@<TRIPOS>MOLECULE
ZINC000003831615
48    49    1     0     0
SMALL
USER_CHARGES
@<TRIPOS>ATOM
1      C1     -0.0187    1.5258    0.0104 C.3      1 ZINC000003831615   -0.1800
2      C2      0.0021   -0.0041    0.0020 C.3      1 ZINC000003831615    0.0900
3      H3     -1.0205   -0.3815    0.0098 H        1 ZINC000003831615    0.1000
4      C4      0.7186   -0.4977   -1.2567 C.3      1 ZINC000003831615   -0.1400
5      C5      1.1615    0.7029   -2.0951 C.3      1 ZINC000003831615   -0.1100
6      C6      1.7934    0.2106   -3.3985 C.3      1 ZINC000003831615   -0.1100
7      C7      3.2317    0.7240   -3.4936 C.3      1 ZINC000003831615    0.1000
8      H8      3.3451    1.6059   -2.8632 H        1 ZINC000003831615    0.0600
9      O9      3.5266    1.0663   -4.8493 O.3      1 ZINC000003831615   -0.5800
10     C10     4.1946   -0.3674   -3.0221 C.3      1 ZINC000003831615   -0.1500
11     C11     4.3937   -0.2531   -1.5093 C.3      1 ZINC000003831615   -0.1200
12     C12     5.7166   -0.9150   -1.1185 C.3      1 ZINC000003831615   -0.1200
13     C13     5.7036   -1.2335    0.3781 C.3      1 ZINC000003831615   -0.1000
14     C14     4.9273   -0.1457    1.1232 C.3      1 ZINC000003831615   -0.1500
15     C15     4.2274   -0.7541    2.3112 C.ar     1 ZINC000003831615    0.0500
16     C16     4.9550   -1.2039    3.3746 C.ar     1 ZINC000003831615   -0.2700
17     C17     4.3175   -1.7674    4.4762 C.ar     1 ZINC000003831615    0.3100
18     O18     5.0514   -2.2121    5.5275 O.3      1 ZINC000003831615   -0.7000
19     C19     2.9348   -1.8758    4.5038 C.ar     1 ZINC000003831615   -0.3100
20     C20     2.1847   -1.4232    3.4314 C.ar     1 ZINC000003831615    0.2000
21     O21     0.8322   -1.5248    3.4538 O.3      1 ZINC000003831615   -0.5000
22     C22     2.8317   -0.8588    2.3213 C.ar     1 ZINC000003831615   -0.3100
23     C23     2.0484   -0.3805    1.1715 C.2      1 ZINC000003831615    0.5200
24     O24     2.6141    0.1085    0.2132 O.2      1 ZINC000003831615   -0.5200
25     O25     0.7048   -0.4853    1.1783 O.3      1 ZINC000003831615   -0.3400
26     H26     1.0039    1.9031    0.0027 H        1 ZINC000003831615    0.0700
27     H27    -0.5459    1.8868   -0.8726 H        1 ZINC000003831615    0.0700
28     H28    -0.5289    1.8773    0.9072 H        1 ZINC000003831615    0.0500
29     H29     1.5923   -1.0837   -0.9713 H        1 ZINC000003831615    0.0900
30     H30     0.0398   -1.1186   -1.8414 H        1 ZINC000003831615    0.0600
31     H31     0.2963    1.3255   -2.3233 H        1 ZINC000003831615    0.0600
32     H32     1.8918    1.2872   -1.5353 H        1 ZINC000003831615    0.0900
33     H33     1.7949   -0.8793   -3.4126 H        1 ZINC000003831615    0.0700
34     H34     1.2175    0.5841   -4.2453 H        1 ZINC000003831615    0.0600
35     H35     4.4241    1.4001   -4.9844 H        1 ZINC000003831615    0.3700
36     H36     3.7792   -1.3464   -3.2610 H        1 ZINC000003831615    0.0600
37     H37     5.1542   -0.2473   -3.5249 H        1 ZINC000003831615    0.0600
38     H38     4.4153    0.7986   -1.2239 H        1 ZINC000003831615    0.0600
39     H39     3.5720   -0.7523   -0.9958 H        1 ZINC000003831615    0.1100
40     H40     5.8430   -1.8374   -1.6854 H        1 ZINC000003831615    0.0500
41     H41     6.5412   -0.2370   -1.3387 H        1 ZINC000003831615    0.0500
42     H42     5.2233   -2.1984    0.5402 H        1 ZINC000003831615    0.0600
43     H43     6.7272   -1.2696    0.7509 H        1 ZINC000003831615    0.0500
44     H44     5.6184    0.6253    1.4641 H        1 ZINC000003831615    0.0500
45     H45     4.1895    0.2973    0.4543 H        1 ZINC000003831615    0.1600
46     H46     6.0318   -1.1224    3.3612 H        1 ZINC000003831615    0.1000
47     H47     2.4439   -2.3130    5.3606 H        1 ZINC000003831615    0.1100
48     H48     0.3863   -0.7560    3.8348 H        1 ZINC000003831615    0.3800
@<TRIPOS>BOND
1     1     2     1
2     1     26    1
3     1     27    1
4     1     28    1
5     2     3     1
6     2     25    1
7     2     4     1
8     4     5     1
9     4     29    1
10    4     30    1
11    5     6     1
12    5     31    1
13    5     32    1
14    6     7     1
15    6     33    1
16    6     34    1
17    7     8     1
18    7     9     1
19    7     10    1
20    9     35    1
21    10    11    1
22    10    36    1
23    10    37    1
24    11    12    1
25    11    38    1
26    11    39    1
27    12    13    1
28    12    40    1
29    12    41    1
30    13    14    1
31    13    42    1
32    13    43    1
33    14    15    1
34    14    44    1
35    14    45    1
36    15    22    ar
37    15    16    ar
38    16    17    ar
39    16    46    1
40    17    18    1
41    17    19    ar
42    19    20    ar
43    19    47    1
44    20    21    1
45    20    22    ar
46    21    48    1
47    22    23    1
48    23    24    2
49    23    25    1
@<TRIPOS>SUBSTRUCTURE
1   ZINC000003831615 1     RESIDUE    1   A     ZIN   1
