@<TRIPOS>MOLECULE
ZINC000001489883
  45   47    0    0    0
SMALL
USER_CHARGES
NO_NAME
@<TRIPOS>ATOM
    1 C1       -0.0173     1.4248     0.0099 C.3    1 <0>       0.0200
    2 O2        0.0021    -0.0041     0.0020 O.3    1 <0>      -0.3000
    3 C3       -1.1998    -0.6372     0.0101 C.ar   1 <0>       0.1200
    4 C4       -2.3727     0.1043     0.0195 C.ar   1 <0>      -0.1800
    5 C5       -3.5950    -0.5332     0.0282 C.ar   1 <0>      -0.0700
    6 C6       -3.6547    -1.9291     0.0270 C.ar   1 <0>      -0.0600
    7 C7       -4.9616    -2.6131     0.0358 C.2    1 <0>       0.2000
    8 C8       -6.0941    -1.8598     0.0395 C.2    1 <0>      -0.3100
    9 C9       -7.3568    -2.4984     0.0479 C.2    1 <0>       0.4300
   10 O10      -8.3933    -1.8540     0.0509 O.2    1 <0>      -0.4700
   11 C11      -7.3715    -3.9711     0.0523 C.ar   1 <0>      -0.3100
   12 C12      -8.5753    -4.6861     0.0601 C.ar   1 <0>       0.2500
   13 O13      -9.7618    -4.0273     0.0638 O.3    1 <0>      -0.2800
   14 C14     -10.9471    -4.8255     0.0718 C.3    1 <0>       0.0200
   15 C15      -8.5462    -6.0687     0.0636 C.ar   1 <0>      -0.3400
   16 C16      -7.3295    -6.7417     0.0593 C.ar   1 <0>       0.2400
   17 O17      -7.3122    -8.0991     0.0624 O.3    1 <0>      -0.2600
   18 C18      -8.5770    -8.7640     0.0699 C.3    1 <0>      -0.0100
   19 C19      -8.3605   -10.2554     0.0723 C.2    1 <0>       0.5000
   20 O20      -7.2280   -10.7070     0.0680 O.co2  1 <0>      -0.6700
   21 O21      -9.3179   -11.0104     0.0786 O.co2  1 <0>      -0.6800
   22 C22      -6.1337    -6.0398     0.0516 C.ar   1 <0>      -0.2200
   23 C23      -6.1428    -4.6540     0.0480 C.ar   1 <0>       0.2200
   24 O24      -4.9877    -3.9554     0.0345 O.3    1 <0>      -0.2200
   25 C25      -2.4730    -2.6760     0.0171 C.ar   1 <0>      -0.1400
   26 C26      -1.2520    -2.0305     0.0031 C.ar   1 <0>       0.1000
   27 O27      -0.1005    -2.7540    -0.0071 O.3    1 <0>      -0.3000
   28 C28      -0.2284    -4.1772    -0.0026 C.3    1 <0>       0.0200
   29 H29       1.0053     1.8021     0.0021 H      1 <0>       0.1000
   30 H30      -0.5445     1.7859    -0.8732 H      1 <0>       0.0600
   31 H31      -0.5275     1.7763     0.9067 H      1 <0>       0.0600
   32 H32      -2.3279     1.1834     0.0205 H      1 <0>       0.1500
   33 H33      -4.5063     0.0463     0.0363 H      1 <0>       0.1400
   34 H34      -6.0301    -0.7817     0.0363 H      1 <0>       0.1600
   35 H35     -10.9656    -5.4573    -0.8162 H      1 <0>       0.0600
   36 H36     -10.9572    -5.4520     0.9637 H      1 <0>       0.0600
   37 H37     -11.8225    -4.1761     0.0740 H      1 <0>       0.1000
   38 H38      -9.4706    -6.6271     0.0700 H      1 <0>       0.1500
   39 H39      -9.1335    -8.4762     0.9619 H      1 <0>       0.0700
   40 H40      -9.1420    -8.4803    -0.8180 H      1 <0>       0.0700
   41 H41      -5.1948    -6.5734     0.0487 H      1 <0>       0.1500
   42 H42      -2.5148    -3.7552     0.0161 H      1 <0>       0.1500
   43 H43      -0.7818    -4.4950    -0.8863 H      1 <0>       0.0600
   44 H44       0.7625    -4.6312    -0.0118 H      1 <0>       0.1000
   45 H45      -0.7636    -4.4911     0.8936 H      1 <0>       0.0600
@<TRIPOS>BOND
   1    1    2 1
   2    1   29 1
   3    1   30 1
   4    1   31 1
   5    2    3 1
   6    3   26 ar
   7    3    4 ar
   8    4    5 ar
   9    4   32 1
  10    5    6 ar
  11    5   33 1
  12    6    7 1
  13    6   25 ar
  14    7   24 1
  15    7    8 2
  16    8    9 1
  17    8   34 1
  18    9   10 2
  19    9   11 1
  20   11   23 ar
  21   11   12 ar
  22   12   13 1
  23   12   15 ar
  24   13   14 1
  25   14   35 1
  26   14   36 1
  27   14   37 1
  28   15   16 ar
  29   15   38 1
  30   16   17 1
  31   16   22 ar
  32   17   18 1
  33   18   19 1
  34   18   39 1
  35   18   40 1
  36   19   20 ar
  37   19   21 ar
  38   22   23 ar
  39   22   41 1
  40   23   24 1
  41   25   26 ar
  42   25   42 1
  43   26   27 1
  44   27   28 1
  45   28   43 1
  46   28   44 1
  47   28   45 1
