@<TRIPOS>MOLECULE
ZINC000038239930
42    44    1     0     0
SMALL
USER_CHARGES
@<TRIPOS>ATOM
1      C1     -0.1596    1.5696    0.5041 C.3      1 ZINC000038239930    0.0200
2      O2     -0.1030    0.1558    0.3043 O.3      1 ZINC000038239930   -0.3100
3      C3     -1.2879   -0.5082    0.2541 C.ar     1 ZINC000038239930    0.1500
4      C4     -2.4784    0.1863    0.3885 C.ar     1 ZINC000038239930   -0.1900
5      C5     -3.6844   -0.4868    0.3379 C.ar     1 ZINC000038239930   -0.0800
6      C6     -3.7108   -1.8634    0.1525 C.ar     1 ZINC000038239930    0.1200
7      N7     -4.9376   -2.5392    0.1023 N.am     1 ZINC000038239930   -0.6800
8      C8     -5.0375   -3.7917    0.5898 C.2      1 ZINC000038239930    0.7100
9      O9     -4.0911   -4.2995    1.1600 O.2      1 ZINC000038239930   -0.5500
10     N10    -6.1863   -4.4814    0.4453 N.am     1 ZINC000038239930   -0.6700
11     C11    -6.3303   -5.7379    1.0499 C.ar     1 ZINC000038239930    0.1300
12     C12    -5.5276   -6.0870    2.1263 C.ar     1 ZINC000038239930   -0.0800
13     C13    -5.6708   -7.3262    2.7212 C.ar     1 ZINC000038239930   -0.1400
14     C14    -6.6139   -8.2201    2.2441 C.ar     1 ZINC000038239930    0.1100
15     F15    -6.7512   -9.4309    2.8275 F        1 ZINC000038239930   -0.1300
16     C16    -7.4173   -7.8750    1.1701 C.ar     1 ZINC000038239930   -0.1700
17     C17    -7.2817   -6.6342    0.5753 C.ar     1 ZINC000038239930    0.0900
18     F18    -8.0655   -6.2970   -0.4721 F        1 ZINC000038239930   -0.1300
19     C19    -2.5260   -2.5695    0.0168 C.ar     1 ZINC000038239930   -0.0400
20     C20    -1.3072   -1.8945    0.0609 C.ar     1 ZINC000038239930   -0.0600
21     C21    -0.0390   -2.6416   -0.0837 C.2      1 ZINC000038239930    0.1800
22     C22     0.6927   -3.1994    0.9274 C.2      1 ZINC000038239930   -0.2200
23     Br23    0.2639   -3.1539    2.7686 Br       1 ZINC000038239930   -0.0100
24     C24     1.8122   -3.8088    0.3591 C.2      1 ZINC000038239930    0.0800
25     N25     1.7698   -3.6338   -0.9374 N.2      1 ZINC000038239930   -0.2800
26     N26     0.6143   -2.9069   -1.2510 N.pl3    1 ZINC000038239930   -0.3600
27     C27     0.1880   -2.4981   -2.5917 C.3      1 ZINC000038239930    0.1000
28     H28     0.8523    1.9744    0.5242 H        1 ZINC000038239930    0.1000
29     H29    -0.7188    2.0296   -0.3106 H        1 ZINC000038239930    0.0600
30     H30    -0.6553    1.7831    1.4511 H        1 ZINC000038239930    0.0600
31     H31    -2.4644    1.2564    0.5335 H        1 ZINC000038239930    0.1400
32     H32    -4.6100    0.0595    0.4432 H        1 ZINC000038239930    0.1400
33     H33    -5.7147   -2.1054   -0.2834 H        1 ZINC000038239930    0.4100
34     H34    -6.9136   -4.1083   -0.0770 H        1 ZINC000038239930    0.4100
35     H35    -4.7909   -5.3908    2.4990 H        1 ZINC000038239930    0.1800
36     H36    -5.0458   -7.5976    3.5591 H        1 ZINC000038239930    0.1500
37     H37    -8.1526   -8.5739    0.7994 H        1 ZINC000038239930    0.1500
38     H38    -2.5471   -3.6397   -0.1269 H        1 ZINC000038239930    0.1500
39     H39     2.5847   -4.3363    0.8989 H        1 ZINC000038239930    0.1900
40     H40    -0.4421   -3.2747   -3.0252 H        1 ZINC000038239930    0.0800
41     H41    -0.3757   -1.5675   -2.5258 H        1 ZINC000038239930    0.0900
42     H42     1.0648   -2.3479   -3.2217 H        1 ZINC000038239930    0.0900
@<TRIPOS>BOND
1     1     2     1
2     1     28    1
3     1     29    1
4     1     30    1
5     2     3     1
6     3     20    ar
7     3     4     ar
8     4     5     ar
9     4     31    1
10    5     6     ar
11    5     32    1
12    6     7     1
13    6     19    ar
14    7     8     am
15    7     33    1
16    8     9     2
17    8     10    am
18    10    11    1
19    10    34    1
20    11    17    ar
21    11    12    ar
22    12    13    ar
23    12    35    1
24    13    14    ar
25    13    36    1
26    14    15    1
27    14    16    ar
28    16    17    ar
29    16    37    1
30    17    18    1
31    19    20    ar
32    19    38    1
33    20    21    1
34    21    26    1
35    21    22    2
36    22    23    1
37    22    24    1
38    24    25    2
39    24    39    1
40    25    26    1
41    26    27    1
42    27    40    1
43    27    41    1
44    27    42    1
@<TRIPOS>SUBSTRUCTURE
1   ZINC000038239930 1     RESIDUE    1   A     ZIN   1
