@<TRIPOS>MOLECULE
ZINC000064490563
82    85    1     0     0
SMALL
USER_CHARGES
@<TRIPOS>ATOM
1      C1     -0.0187    1.5258    0.0104 C.3      1 ZINC000064490563   -0.1800
2      C2      0.0021   -0.0041    0.0020 C.3      1 ZINC000064490563    0.0600
3      C3      0.7421   -0.5109    1.2415 C.3      1 ZINC000064490563   -0.1800
4      C4     -1.4333   -0.5336    0.0129 C.3      1 ZINC000064490563   -0.0900
5      C5     -2.1387   -0.0476    1.2528 C.ar     1 ZINC000064490563   -0.0900
6      C6     -2.0930   -0.7977    2.4127 C.ar     1 ZINC000064490563   -0.1100
7      C7     -2.7401   -0.3519    3.5502 C.ar     1 ZINC000064490563   -0.1100
8      C8     -3.4324    0.8442    3.5275 C.ar     1 ZINC000064490563   -0.1000
9      C9     -3.4773    1.5950    2.3675 C.ar     1 ZINC000064490563   -0.0600
10     C10    -4.2325    2.8988    2.3426 C.3      1 ZINC000064490563   -0.1000
11     C11    -3.3079    4.0224    2.7346 C.2      1 ZINC000064490563    0.5100
12     O12    -2.1498    3.7876    3.0073 O.2      1 ZINC000064490563   -0.5300
13     N13    -3.7681    5.2883    2.7821 N.am     1 ZINC000064490563   -0.7300
14     C14    -2.8692    6.3806    3.1631 C.3      1 ZINC000064490563    0.1600
15     C15    -3.6244    7.6845    3.1382 C.ar     1 ZINC000064490563   -0.1100
16     C16    -3.6734    8.4317    1.9755 C.ar     1 ZINC000064490563   -0.1000
17     C17    -4.3652    9.6294    1.9453 C.ar     1 ZINC000064490563   -0.1200
18     C18    -5.0103   10.0852    3.0768 C.ar     1 ZINC000064490563   -0.1000
19     C19    -4.9643    9.3363    4.2514 C.ar     1 ZINC000064490563   -0.0500
20     C20    -5.6558    9.8212    5.4711 C.ar     1 ZINC000064490563   -0.0500
21     C21    -5.6042    9.0742    6.6467 C.ar     1 ZINC000064490563   -0.0900
22     C22    -6.2476    9.5277    7.7790 C.ar     1 ZINC000064490563   -0.1400
23     C23    -6.9466   10.7268    7.7487 C.ar     1 ZINC000064490563    0.1100
24     O24    -7.5796   11.1712    8.8658 O.3      1 ZINC000064490563   -0.5000
25     C25    -6.9998   11.4731    6.5792 C.ar     1 ZINC000064490563   -0.1400
26     C26    -6.3535   11.0275    5.4453 C.ar     1 ZINC000064490563   -0.0900
27     C27    -4.2708    8.1280    4.2744 C.ar     1 ZINC000064490563   -0.0900
28     C28    -2.8268    1.1513    1.2315 C.ar     1 ZINC000064490563   -0.0900
29     N29     0.6897   -0.4778   -1.2066 N.4      1 ZINC000064490563   -0.5000
30     H30     0.7033   -1.4867   -1.2121 H        1 ZINC000064490563    0.4200
31     H31     0.2017   -0.1436   -2.0240 H        1 ZINC000064490563    0.4200
32     C32     2.0678    0.0307   -1.2170 C.3      1 ZINC000064490563   -0.0500
33     C33     2.7840   -0.4628   -2.4758 C.3      1 ZINC000064490563    0.1700
34     H34     2.2568   -0.1017   -3.3589 H        1 ZINC000064490563    0.1000
35     O35     2.8033   -1.8916   -2.4837 O.3      1 ZINC000064490563   -0.5700
36     C36     4.1978    0.0589   -2.4865 C.ar     1 ZINC000064490563   -0.2500
37     C37     5.1918   -0.6299   -1.8173 C.ar     1 ZINC000064490563   -0.1200
38     C38     6.4914   -0.1562   -1.8240 C.ar     1 ZINC000064490563   -0.3000
39     C39     6.7998    1.0109   -2.5022 C.ar     1 ZINC000064490563    0.2100
40     O40     8.0774    1.4775   -2.5099 O.3      1 ZINC000064490563   -0.6900
41     C41     5.7982    1.7059   -3.1772 C.ar     1 ZINC000064490563    0.1900
42     N42     6.1043    2.8859   -3.8649 N.pl3    1 ZINC000064490563   -1.1300
43     S43     7.6583    3.4579   -3.8771 S.o2     1 ZINC000064490563    2.5700
44     C44     7.5749    4.9740   -4.8695 C.3      1 ZINC000064490563   -0.6800
45     O45     7.9288    3.7666   -2.5167 O.2      1 ZINC000064490563   -1.0200
46     O46     8.3958    2.4541   -4.5611 O.2      1 ZINC000064490563   -1.0200
47     C47     4.4985    1.2222   -3.1706 C.ar     1 ZINC000064490563   -0.2000
48     H48     1.0039    1.9031    0.0027 H        1 ZINC000064490563    0.0900
49     H49    -0.5459    1.8868   -0.8726 H        1 ZINC000064490563    0.0800
50     H50    -0.5289    1.8773    0.9072 H        1 ZINC000064490563    0.1100
51     H51     0.2319   -0.1594    2.1383 H        1 ZINC000064490563    0.1000
52     H52     0.7568   -1.6008    1.2356 H        1 ZINC000064490563    0.0800
53     H53     1.7647   -0.1336    1.2338 H        1 ZINC000064490563    0.0900
54     H54    -1.9605   -0.1726   -0.8702 H        1 ZINC000064490563    0.0900
55     H55    -1.4185   -1.6235    0.0069 H        1 ZINC000064490563    0.0900
56     H56    -1.5520   -1.7323    2.4305 H        1 ZINC000064490563    0.1200
57     H57    -2.7049   -0.9384    4.4564 H        1 ZINC000064490563    0.1300
58     H58    -3.9385    1.1921    4.4159 H        1 ZINC000064490563    0.1200
59     H59    -4.6160    3.0775    1.3380 H        1 ZINC000064490563    0.1000
60     H60    -5.0641    2.8506    3.0456 H        1 ZINC000064490563    0.1000
61     H61    -4.6944    5.4762    2.5639 H        1 ZINC000064490563    0.4000
62     H62    -2.4858    6.2020    4.1677 H        1 ZINC000064490563    0.0800
63     H63    -2.0377    6.4289    2.4601 H        1 ZINC000064490563    0.0800
64     H64    -3.1693    8.0791    1.0878 H        1 ZINC000064490563    0.1300
65     H65    -4.4002   10.2089    1.0346 H        1 ZINC000064490563    0.1300
66     H66    -5.5494   11.0207    3.0524 H        1 ZINC000064490563    0.1300
67     H67    -5.0612    8.1409    6.6707 H        1 ZINC000064490563    0.1300
68     H68    -6.2080    8.9493    8.6902 H        1 ZINC000064490563    0.1300
69     H69    -7.0315   11.7322    9.4316 H        1 ZINC000064490563    0.3900
70     H70    -7.5446   12.4054    6.5584 H        1 ZINC000064490563    0.1300
71     H71    -6.3949   11.6087    4.5359 H        1 ZINC000064490563    0.1300
72     H72    -4.2322    7.5436    5.1818 H        1 ZINC000064490563    0.1300
73     H73    -2.8619    1.7378    0.3253 H        1 ZINC000064490563    0.1200
74     H74     2.0530    1.1205   -1.2110 H        1 ZINC000064490563    0.1400
75     H75     2.5950   -0.3304   -0.3340 H        1 ZINC000064490563    0.1300
76     H76     3.2576   -2.2830   -1.7250 H        1 ZINC000064490563    0.3800
77     H77     4.9531   -1.5402   -1.2874 H        1 ZINC000064490563    0.0600
78     H78     7.2656   -0.6967   -1.2997 H        1 ZINC000064490563    0.0700
79     H79     6.8862    5.6773   -4.4014 H        1 ZINC000064490563    0.1000
80     H80     8.5663    5.4229   -4.9313 H        1 ZINC000064490563    0.0800
81     H81     7.2221    4.7329   -5.8723 H        1 ZINC000064490563    0.1000
82     H82     3.7199    1.7583   -3.6930 H        1 ZINC000064490563    0.0800
@<TRIPOS>BOND
1     1     2     1
2     1     48    1
3     1     49    1
4     1     50    1
5     2     3     1
6     2     4     1
7     2     29    1
8     3     51    1
9     3     52    1
10    3     53    1
11    4     5     1
12    4     54    1
13    4     55    1
14    5     28    ar
15    5     6     ar
16    6     7     ar
17    6     56    1
18    7     8     ar
19    7     57    1
20    8     9     ar
21    8     58    1
22    9     10    1
23    9     28    ar
24    10    11    1
25    10    59    1
26    10    60    1
27    11    12    2
28    11    13    am
29    13    14    1
30    13    61    1
31    14    15    1
32    14    62    1
33    14    63    1
34    15    27    ar
35    15    16    ar
36    16    17    ar
37    16    64    1
38    17    18    ar
39    17    65    1
40    18    19    ar
41    18    66    1
42    19    20    1
43    19    27    ar
44    20    26    ar
45    20    21    ar
46    21    22    ar
47    21    67    1
48    22    23    ar
49    22    68    1
50    23    24    1
51    23    25    ar
52    24    69    1
53    25    26    ar
54    25    70    1
55    26    71    1
56    27    72    1
57    28    73    1
58    29    30    1
59    29    31    1
60    29    32    1
61    32    33    1
62    32    74    1
63    32    75    1
64    33    34    1
65    33    35    1
66    33    36    1
67    35    76    1
68    36    47    ar
69    36    37    ar
70    37    38    ar
71    37    77    1
72    38    39    ar
73    38    78    1
74    39    40    1
75    39    41    ar
76    41    42    1
77    41    47    ar
78    42    43    1
79    43    44    1
80    43    45    2
81    43    46    2
82    44    79    1
83    44    80    1
84    44    81    1
85    47    82    1
@<TRIPOS>SUBSTRUCTURE
1   ZINC000064490563 1     RESIDUE    1   A     ZIN   1
