@<TRIPOS>MOLECULE
ZINC000084759273
70    72    1     0     0
SMALL
USER_CHARGES
@<TRIPOS>ATOM
1      C1      3.6410    1.9669    1.3349 C.3      1 ZINC000084759273   -0.1500
2      C2      3.3821    0.4597    1.2888 C.3      1 ZINC000084759273   -0.1300
3      C3      3.7388   -0.0768   -0.0989 C.3      1 ZINC000084759273   -0.1200
4      C4      3.4798   -1.5841   -0.1450 C.3      1 ZINC000084759273   -0.1200
5      C5      3.8365   -2.1206   -1.5327 C.3      1 ZINC000084759273   -0.1200
6      C6      3.5775   -3.6278   -1.5788 C.3      1 ZINC000084759273    0.0600
7      O7      3.9107   -4.1290   -2.8749 O.3      1 ZINC000084759273   -0.3800
8      C8      3.7042   -5.5350   -3.0252 C.3      1 ZINC000084759273    0.1400
9      H9      3.8486   -6.0282   -2.0640 H        1 ZINC000084759273    0.0700
10     C10     2.2796   -5.7911   -3.5210 C.3      1 ZINC000084759273   -0.1700
11     C11     4.6901   -6.0835   -4.0243 C.ar     1 ZINC000084759273   -0.1100
12     C12     5.2339   -5.2522   -4.9856 C.ar     1 ZINC000084759273   -0.0800
13     C13     6.1397   -5.7484   -5.9064 C.ar     1 ZINC000084759273   -0.1300
14     C14     6.5079   -7.0783   -5.8718 C.ar     1 ZINC000084759273   -0.0900
15     C15     5.9662   -7.9246   -4.9068 C.ar     1 ZINC000084759273   -0.0400
16     C16     6.3583   -9.3543   -4.8652 C.2      1 ZINC000084759273    0.1300
17     C17     7.2382   -9.8841   -5.7339 C.2      1 ZINC000084759273   -0.3000
18     S18     7.4303  -11.5932   -5.3501 S.3      1 ZINC000084759273    0.2000
19     C19     6.2809  -11.4256   -4.0265 C.2      1 ZINC000084759273    0.2800
20     N20     5.8809  -12.4480   -3.1769 N.am     1 ZINC000084759273   -0.6200
21     C21     6.3817  -13.6894   -3.3339 C.2      1 ZINC000084759273    0.5700
22     O22     7.1836  -13.9137   -4.2194 O.2      1 ZINC000084759273   -0.5000
23     C23     5.9556  -14.7785   -2.4289 C.ar     1 ZINC000084759273   -0.1400
24     C24     5.0299  -14.5209   -1.4154 C.ar     1 ZINC000084759273   -0.0700
25     C25     4.6314  -15.5342   -0.5710 C.ar     1 ZINC000084759273   -0.0400
26     Cl26    3.4802  -15.2134    0.6882 Cl       1 ZINC000084759273   -0.0300
27     C27     5.1555  -16.8235   -0.7296 C.ar     1 ZINC000084759273    0.0400
28     C28     4.7315  -17.9066    0.1701 C.2      1 ZINC000084759273   -0.1600
29     C29     3.4369  -18.2931    0.1989 C.2      1 ZINC000084759273   -0.0900
30     C30     2.4582  -17.7234   -0.7954 C.3      1 ZINC000084759273   -0.1200
31     C31     2.9997  -19.2341    1.1642 C.2      1 ZINC000084759273    0.5100
32     O32     3.7952  -19.6970    1.9723 O.co2    1 ZINC000084759273   -0.6900
33     O33     1.8264  -19.5844    1.1904 O.co2    1 ZINC000084759273   -0.6900
34     C34     6.0839  -17.0795   -1.7467 C.ar     1 ZINC000084759273   -0.0400
35     Cl35    6.7356  -18.6762   -1.9462 Cl       1 ZINC000084759273   -0.0400
36     C36     6.4752  -16.0644   -2.5925 C.ar     1 ZINC000084759273   -0.0300
37     N37     5.8702  -10.1968   -3.9660 N.2      1 ZINC000084759273   -0.4800
38     C38     5.0548   -7.4189   -3.9749 C.ar     1 ZINC000084759273    0.1300
39     O39     4.5212   -8.2369   -3.0300 O.3      1 ZINC000084759273   -0.3100
40     C40     5.2272   -8.3455   -1.7923 C.3      1 ZINC000084759273    0.0500
41     H41     4.6938    2.1612    1.1298 H        1 ZINC000084759273    0.0500
42     H42     3.0269    2.4642    0.5842 H        1 ZINC000084759273    0.0500
43     H43     3.3869    2.3492    2.3236 H        1 ZINC000084759273    0.0500
44     H44     3.9963   -0.0376    2.0395 H        1 ZINC000084759273    0.0600
45     H45     2.3293    0.2655    1.4939 H        1 ZINC000084759273    0.0600
46     H46     3.1246    0.4205   -0.8496 H        1 ZINC000084759273    0.0600
47     H47     4.7915    0.1174   -0.3040 H        1 ZINC000084759273    0.0600
48     H48     4.0940   -2.0814    0.6057 H        1 ZINC000084759273    0.0600
49     H49     2.4270   -1.7783    0.0601 H        1 ZINC000084759273    0.0600
50     H50     3.2223   -1.6233   -2.2835 H        1 ZINC000084759273    0.0700
51     H51     4.8893   -1.9264   -1.7378 H        1 ZINC000084759273    0.0700
52     H52     4.1917   -4.1251   -0.8281 H        1 ZINC000084759273    0.0500
53     H53     2.5248   -3.8220   -1.3737 H        1 ZINC000084759273    0.0500
54     H54     2.1222   -6.8636   -3.6357 H        1 ZINC000084759273    0.0700
55     H55     1.5666   -5.3944   -2.7984 H        1 ZINC000084759273    0.0600
56     H56     2.1353   -5.2979   -4.4823 H        1 ZINC000084759273    0.0600
57     H57     4.9502   -4.2106   -5.0184 H        1 ZINC000084759273    0.1300
58     H58     6.5598   -5.0931   -6.6549 H        1 ZINC000084759273    0.1300
59     H59     7.2149   -7.4624   -6.5922 H        1 ZINC000084759273    0.1300
60     H60     7.7399   -9.3536   -6.5297 H        1 ZINC000084759273    0.1800
61     H61     5.2409  -12.2690   -2.4703 H        1 ZINC000084759273    0.4300
62     H62     4.6262  -13.5266   -1.2933 H        1 ZINC000084759273    0.1400
63     H63     5.4546  -18.3932    0.8077 H        1 ZINC000084759273    0.1500
64     H64     2.4286  -18.3585   -1.6808 H        1 ZINC000084759273    0.0600
65     H65     1.4663  -17.6811   -0.3454 H        1 ZINC000084759273    0.0800
66     H66     2.7717  -16.7188   -1.0791 H        1 ZINC000084759273    0.0500
67     H67     7.1910  -16.2614   -3.3769 H        1 ZINC000084759273    0.1500
68     H68     4.6951   -9.0276   -1.1292 H        1 ZINC000084759273    0.0900
69     H69     6.2305   -8.7288   -1.9788 H        1 ZINC000084759273    0.0500
70     H70     5.2946   -7.3631   -1.3250 H        1 ZINC000084759273    0.0300
@<TRIPOS>BOND
1     1     2     1
2     1     41    1
3     1     42    1
4     1     43    1
5     2     3     1
6     2     44    1
7     2     45    1
8     3     4     1
9     3     46    1
10    3     47    1
11    4     5     1
12    4     48    1
13    4     49    1
14    5     6     1
15    5     50    1
16    5     51    1
17    6     7     1
18    6     52    1
19    6     53    1
20    7     8     1
21    8     9     1
22    8     10    1
23    8     11    1
24    10    54    1
25    10    55    1
26    10    56    1
27    11    38    ar
28    11    12    ar
29    12    13    ar
30    12    57    1
31    13    14    ar
32    13    58    1
33    14    15    ar
34    14    59    1
35    15    16    1
36    15    38    ar
37    16    37    1
38    16    17    2
39    17    18    1
40    17    60    1
41    18    19    1
42    19    20    1
43    19    37    2
44    20    21    am
45    20    61    1
46    21    22    2
47    21    23    1
48    23    36    ar
49    23    24    ar
50    24    25    ar
51    24    62    1
52    25    26    1
53    25    27    ar
54    27    28    1
55    27    34    ar
56    28    29    2
57    28    63    1
58    29    30    1
59    29    31    1
60    30    64    1
61    30    65    1
62    30    66    1
63    31    32    ar
64    31    33    ar
65    34    35    1
66    34    36    ar
67    36    67    1
68    38    39    1
69    39    40    1
70    40    68    1
71    40    69    1
72    40    70    1
@<TRIPOS>SUBSTRUCTURE
1   ZINC000084759273 1     RESIDUE    1   A     ZIN   1
