@<TRIPOS>MOLECULE
ZINC000257868423
50    53    1     0     0
SMALL
USER_CHARGES
@<TRIPOS>ATOM
1      C1     -0.2078    1.4140    0.0633 C.3      1 ZINC000257868423   -0.1800
2      C2     -0.0701   -0.1082   -0.0049 C.3      1 ZINC000257868423   -0.0200
3      N3      0.6897   -0.4778   -1.2066 N.4      1 ZINC000257868423   -0.2800
4      C4      0.0393    0.0521   -2.4125 C.3      1 ZINC000257868423   -0.0600
5      C5      2.0925    0.0061   -1.1087 C.3      1 ZINC000257868423    0.0500
6      H6      2.1504    1.0324   -0.7460 H        1 ZINC000257868423    0.1600
7      C7      2.7274   -0.1532   -2.4994 C.3      1 ZINC000257868423   -0.1400
8      C8      2.7806   -1.6424   -2.8524 C.3      1 ZINC000257868423    0.0700
9      H9      3.1318   -1.7597   -3.8776 H        1 ZINC000257868423    0.1200
10     O10     3.6926   -2.3207   -1.9489 O.3      1 ZINC000257868423   -0.3300
11     C11     4.3360   -3.3972   -2.4272 C.2      1 ZINC000257868423    0.4600
12     O12     4.1435   -3.7608   -3.5633 O.2      1 ZINC000257868423   -0.4800
13     C13     5.2985   -4.1525   -1.5472 C.3      1 ZINC000257868423   -0.0300
14     H14     4.7708   -4.5289   -0.6709 H        1 ZINC000257868423    0.1200
15     C15     6.4241   -3.2168   -1.1019 C.3      1 ZINC000257868423    0.0900
16     O16     5.8855   -2.1841   -0.2739 O.3      1 ZINC000257868423   -0.5700
17     C17     5.8818   -5.3089   -2.3176 C.ar     1 ZINC000257868423   -0.1000
18     C18     6.6050   -5.0757   -3.4723 C.ar     1 ZINC000257868423   -0.0900
19     C19     7.1401   -6.1365   -4.1789 C.ar     1 ZINC000257868423   -0.1200
20     C20     6.9523   -7.4305   -3.7305 C.ar     1 ZINC000257868423   -0.1000
21     C21     6.2299   -7.6637   -2.5752 C.ar     1 ZINC000257868423   -0.1200
22     C22     5.6984   -6.6026   -1.8663 C.ar     1 ZINC000257868423   -0.1000
23     C23     1.3835   -2.2553   -2.7193 C.3      1 ZINC000257868423   -0.1600
24     C24     0.8389   -1.9546   -1.2982 C.3      1 ZINC000257868423    0.0400
25     H25    -0.0949   -2.4796   -1.0968 H        1 ZINC000257868423    0.1600
26     C26     1.9450   -2.3184   -0.2811 C.3      1 ZINC000257868423    0.0000
27     H27     2.3915   -3.3107   -0.3443 H        1 ZINC000257868423    0.1800
28     O28     1.9879   -1.5930    0.9494 O.3      1 ZINC000257868423   -0.3100
29     C29     2.7729   -0.9936   -0.1454 C.3      1 ZINC000257868423   -0.0100
30     H30     3.8612   -0.9756   -0.0888 H        1 ZINC000257868423    0.2000
31     H31     0.7827    1.8669    0.1061 H        1 ZINC000257868423    0.0800
32     H32    -0.7327    1.7714   -0.8226 H        1 ZINC000257868423    0.0800
33     H33    -0.7715    1.6883    0.9550 H        1 ZINC000257868423    0.1100
34     H34     0.4549   -0.4656    0.8810 H        1 ZINC000257868423    0.1500
35     H35    -1.0606   -0.5611   -0.0476 H        1 ZINC000257868423    0.1300
36     H36    -0.0093    1.1393   -2.3511 H        1 ZINC000257868423    0.1300
37     H37     0.6145   -0.2367   -3.2922 H        1 ZINC000257868423    0.1300
38     H38    -0.9697   -0.3530   -2.4890 H        1 ZINC000257868423    0.1300
39     H39     2.1256    0.3759   -3.2383 H        1 ZINC000257868423    0.1200
40     H40     3.7378    0.2557   -2.4885 H        1 ZINC000257868423    0.1300
41     H41     7.1664   -3.7833   -0.5396 H        1 ZINC000257868423    0.0700
42     H42     6.8945   -2.7714   -1.9785 H        1 ZINC000257868423    0.0600
43     H43     6.5443   -1.5525    0.0457 H        1 ZINC000257868423    0.3900
44     H44     6.7517   -4.0647   -3.8226 H        1 ZINC000257868423    0.1200
45     H45     7.7045   -5.9543   -5.0815 H        1 ZINC000257868423    0.1300
46     H46     7.3697   -8.2594   -4.2829 H        1 ZINC000257868423    0.1300
47     H47     6.0829   -8.6748   -2.2251 H        1 ZINC000257868423    0.1300
48     H48     5.1340   -6.7848   -0.9637 H        1 ZINC000257868423    0.1200
49     H49     0.7213   -1.8208   -3.4681 H        1 ZINC000257868423    0.1200
50     H50     1.4429   -3.3341   -2.8639 H        1 ZINC000257868423    0.1200
@<TRIPOS>BOND
1     1     2     1
2     1     31    1
3     1     32    1
4     1     33    1
5     2     3     1
6     2     34    1
7     2     35    1
8     3     24    1
9     3     4     1
10    3     5     1
11    4     36    1
12    4     37    1
13    4     38    1
14    5     6     1
15    5     29    1
16    5     7     1
17    7     8     1
18    7     39    1
19    7     40    1
20    8     9     1
21    8     10    1
22    8     23    1
23    10    11    1
24    11    12    2
25    11    13    1
26    13    14    1
27    13    15    1
28    13    17    1
29    15    16    1
30    15    41    1
31    15    42    1
32    16    43    1
33    17    22    ar
34    17    18    ar
35    18    19    ar
36    18    44    1
37    19    20    ar
38    19    45    1
39    20    21    ar
40    20    46    1
41    21    22    ar
42    21    47    1
43    22    48    1
44    23    24    1
45    23    49    1
46    23    50    1
47    24    25    1
48    24    26    1
49    26    27    1
50    26    29    1
51    26    28    1
52    28    29    1
53    29    30    1
@<TRIPOS>SUBSTRUCTURE
1   ZINC000257868423 1     RESIDUE    1   A     ZIN   1
