@<TRIPOS>MOLECULE
ZINC000003798955
  38   40    0    0    0
SMALL
USER_CHARGES
NO_NAME
@<TRIPOS>ATOM
    1 C1       -0.0178     1.4648     0.0101 C.3    1 <0>       0.0200
    2 N2        0.0021    -0.0041     0.0020 N.3    1 <0>      -0.5400
    3 C3        0.7859    -0.5261     1.1294 C.3    1 <0>       0.0200
    4 C4       -1.3620    -0.5491     0.0121 C.3    1 <0>       0.0400
    5 C5       -1.3110    -2.0562    -0.2470 C.3    1 <0>       0.1000
    6 N6       -2.6714    -2.5997    -0.2369 N.am   1 <0>      -0.5600
    7 C7       -3.1883    -3.0318     0.9290 C.2    1 <0>       0.5700
    8 O8       -2.5252    -2.9648     1.9463 O.2    1 <0>      -0.4800
    9 C9       -4.5502    -3.5837     0.9790 C.ar   1 <0>      -0.1400
   10 C10      -5.1215    -4.0404     2.1573 C.ar   1 <0>       0.0300
   11 C11      -6.4130    -4.5549     2.1537 C.ar   1 <0>      -0.0600
   12 N12      -7.0018    -5.0368     3.4233 N.pl3  1 <0>       0.0200
   13 O13      -6.3560    -4.9799     4.4544 O.2    1 <0>      -0.1400
   14 O14      -8.1322    -5.4903     3.4369 O.2    1 <0>      -0.1500
   15 C15      -7.1515    -4.6259     1.0077 C.ar   1 <0>       0.0300
   16 C16      -6.6095    -4.1731    -0.2081 C.ar   1 <0>      -0.0800
   17 C17      -7.3296    -4.2247    -1.4141 C.ar   1 <0>      -0.0300
   18 C18      -6.7600    -3.7726    -2.5701 C.ar   1 <0>      -0.1300
   19 C19      -5.4706    -3.2550    -2.5926 C.ar   1 <0>       0.0200
   20 C20      -4.7266    -3.1867    -1.4236 C.ar   1 <0>      -0.1600
   21 C21      -5.2997    -3.6498    -0.2177 C.ar   1 <0>       0.0300
   22 C22      -3.3606    -2.6437    -1.3929 C.2    1 <0>       0.5700
   23 O23      -2.8490    -2.2354    -2.4178 O.2    1 <0>      -0.4800
   24 H24       1.0047     1.8421     0.0024 H      1 <0>       0.0700
   25 H25      -0.5450     1.8259    -0.8730 H      1 <0>       0.0700
   26 H26      -0.5280     1.8163     0.9069 H      1 <0>       0.0300
   27 H27       0.3442    -0.1877     2.0667 H      1 <0>       0.0300
   28 H28       0.7843    -1.6157     1.0994 H      1 <0>       0.0700
   29 H29       1.8110    -0.1623     1.0586 H      1 <0>       0.0700
   30 H30      -1.8206    -0.3627     0.9832 H      1 <0>       0.0400
   31 H31      -1.9520    -0.0663    -0.7669 H      1 <0>       0.0800
   32 H32      -0.8524    -2.2426    -1.2181 H      1 <0>       0.1100
   33 H33      -0.7210    -2.5390     0.5321 H      1 <0>       0.1000
   34 H34      -4.5616    -3.9967     3.0798 H      1 <0>       0.1700
   35 H35      -8.1525    -5.0305     1.0349 H      1 <0>       0.1700
   36 H36      -8.3336    -4.6222    -1.4267 H      1 <0>       0.1500
   37 H37      -7.3253    -3.8189    -3.4891 H      1 <0>       0.1500
   38 H38      -5.0465    -2.9053    -3.5223 H      1 <0>       0.1600
@<TRIPOS>BOND
   1    1    2 1
   2    1   24 1
   3    1   25 1
   4    1   26 1
   5    2    3 1
   6    2    4 1
   7    3   27 1
   8    3   28 1
   9    3   29 1
  10    4    5 1
  11    4   30 1
  12    4   31 1
  13    5    6 1
  14    5   32 1
  15    5   33 1
  16    6   22 am
  17    6    7 am
  18    7    8 2
  19    7    9 1
  20    9   21 ar
  21    9   10 ar
  22   10   11 ar
  23   10   34 1
  24   11   12 1
  25   11   15 ar
  26   12   13 2
  27   12   14 2
  28   15   16 ar
  29   15   35 1
  30   16   21 ar
  31   16   17 ar
  32   17   18 ar
  33   17   36 1
  34   18   19 ar
  35   18   37 1
  36   19   20 ar
  37   19   38 1
  38   20   21 ar
  39   20   22 1
  40   22   23 2
