@<TRIPOS>MOLECULE
ZINC000150339587
85    89    1     0     0
SMALL
USER_CHARGES
@<TRIPOS>ATOM
1      C1     -0.0173    1.4248    0.0099 C.3      1 ZINC000150339587    0.0300
2      O2      0.0021   -0.0041    0.0020 O.3      1 ZINC000150339587   -0.2800
3      C3      0.6238   -0.6164    1.0381 C.ar     1 ZINC000150339587    0.4700
4      C4      0.6938   -2.0162    1.1053 C.ar     1 ZINC000150339587   -0.1100
5      N5      0.2536   -3.0300    0.3194 N.2      1 ZINC000150339587   -0.4400
6      C6      0.5908   -4.1681    0.8515 C.2      1 ZINC000150339587    0.2500
7      N7      1.2704   -3.9557    2.0153 N.pl3    1 ZINC000150339587   -0.4800
8      C8      1.8140   -4.9872    2.9023 C.3      1 ZINC000150339587    0.3200
9      H9      2.7549   -4.6461    3.3341 H        1 ZINC000150339587    0.1300
10     O10     2.0265   -6.2030    2.1655 O.3      1 ZINC000150339587   -0.3400
11     C11     1.7611   -7.2962    3.0705 C.3      1 ZINC000150339587    0.0500
12     H12     2.6070   -7.4549    3.7393 H        1 ZINC000150339587    0.1100
13     C13     1.4442   -8.5749    2.2925 C.3      1 ZINC000150339587    0.1200
14     O14     2.6087   -9.0015    1.5827 O.3      1 ZINC000150339587   -0.7400
15     P15     2.6376  -10.3178    0.6560 P.3      1 ZINC000150339587    2.3400
16     O16     1.4869  -10.2915   -0.2743 O.2      1 ZINC000150339587   -1.0000
17     N17     2.5431  -11.6894    1.6266 N.3      1 ZINC000150339587   -1.0300
18     C18     3.6718  -11.7491    2.5649 C.3      1 ZINC000150339587    0.0800
19     H19     4.5130  -11.1882    2.1576 H        1 ZINC000150339587    0.1100
20     C20     3.2538  -11.1404    3.9049 C.3      1 ZINC000150339587   -0.1900
21     C21     4.0785  -13.1856    2.7708 C.2      1 ZINC000150339587    0.4600
22     O22     3.4886  -14.0689    2.1949 O.2      1 ZINC000150339587   -0.4600
23     O23     5.0960  -13.4836    3.5938 O.3      1 ZINC000150339587   -0.3500
24     C24     5.4327  -14.8881    3.7441 C.3      1 ZINC000150339587    0.0800
25     C25     6.6078  -15.0300    4.7136 C.3      1 ZINC000150339587   -0.0700
26     C26     6.2186  -14.4503    6.0750 C.3      1 ZINC000150339587   -0.1400
27     C27     6.9625  -16.5098    4.8719 C.3      1 ZINC000150339587   -0.1400
28     C28     7.8173  -14.2716    4.1633 C.3      1 ZINC000150339587   -0.1400
29     O29     4.0088  -10.3504   -0.1872 O.3      1 ZINC000150339587   -0.6200
30     C30     3.9993  -11.2284   -1.2233 C.ar     1 ZINC000150339587    0.0900
31     C31     4.7006  -12.4474   -1.1268 C.ar     1 ZINC000150339587   -0.0500
32     C32     5.4208  -12.7850    0.0303 C.ar     1 ZINC000150339587   -0.1100
33     C33     6.0859  -13.9714    0.0878 C.ar     1 ZINC000150339587   -0.1000
34     C34     6.0635  -14.8591   -0.9863 C.ar     1 ZINC000150339587   -0.1100
35     C35     5.3764  -14.5651   -2.1238 C.ar     1 ZINC000150339587   -0.1000
36     C36     4.6773  -13.3495   -2.2193 C.ar     1 ZINC000150339587   -0.0400
37     C37     3.9565  -13.0117   -3.3773 C.ar     1 ZINC000150339587   -0.1000
38     C38     3.2897  -11.8259   -3.4368 C.ar     1 ZINC000150339587   -0.1000
39     C39     3.3052  -10.9387   -2.3644 C.ar     1 ZINC000150339587   -0.1000
40     C40     0.5202   -6.8148    3.8649 C.3      1 ZINC000150339587    0.0500
41     H41    -0.3946   -6.9825    3.2964 H        1 ZINC000150339587    0.1000
42     O42     0.4504   -7.4566    5.1397 O.3      1 ZINC000150339587   -0.5400
43     C43     0.8048   -5.2982    4.0245 C.3      1 ZINC000150339587    0.1100
44     C44    -0.4789   -4.4890    3.8289 C.3      1 ZINC000150339587   -0.1700
45     O45     1.3769   -5.0288    5.3060 O.3      1 ZINC000150339587   -0.5300
46     C46     1.3514   -2.5990    2.2026 C.ar     1 ZINC000150339587    0.3600
47     N47     1.8810   -1.8116    3.1323 N.ar     1 ZINC000150339587   -0.5900
48     C48     1.7920   -0.4955    3.0289 C.ar     1 ZINC000150339587    0.6300
49     N49     2.3570    0.2931    4.0178 N.pl3    1 ZINC000150339587   -0.8100
50     N50     1.1840    0.0949    2.0077 N.ar     1 ZINC000150339587   -0.6200
51     H51     1.0053    1.8021    0.0021 H        1 ZINC000150339587    0.0600
52     H52    -0.5445    1.7859   -0.8732 H        1 ZINC000150339587    0.1000
53     H53    -0.5275    1.7763    0.9067 H        1 ZINC000150339587    0.0600
54     H54     0.3655   -5.1383    0.4338 H        1 ZINC000150339587    0.2200
55     H55     1.1357   -9.3560    2.9874 H        1 ZINC000150339587    0.0800
56     H56     0.6386   -8.3794    1.5848 H        1 ZINC000150339587    0.1000
57     H57     1.6624  -11.7250    2.1176 H        1 ZINC000150339587    0.3900
58     H58     2.4126  -11.7014    4.3122 H        1 ZINC000150339587    0.0800
59     H59     4.0913  -11.1847    4.6011 H        1 ZINC000150339587    0.1000
60     H60     2.9596  -10.1015    3.7560 H        1 ZINC000150339587    0.0800
61     H61     4.5710  -15.4283    4.1361 H        1 ZINC000150339587    0.0700
62     H62     5.7099  -15.3010    2.7742 H        1 ZINC000150339587    0.0700
63     H63     5.3569  -14.9906    6.4670 H        1 ZINC000150339587    0.0500
64     H64     7.0558  -14.5514    6.7656 H        1 ZINC000150339587    0.0600
65     H65     5.9659  -13.3960    5.9622 H        1 ZINC000150339587    0.0600
66     H66     7.2397  -16.9228    3.9020 H        1 ZINC000150339587    0.0600
67     H67     7.7997  -16.6109    5.5625 H        1 ZINC000150339587    0.0700
68     H68     6.1008  -17.0501    5.2639 H        1 ZINC000150339587    0.0600
69     H69     7.5646  -13.2174    4.0505 H        1 ZINC000150339587    0.0600
70     H70     8.6545  -14.3727    4.8540 H        1 ZINC000150339587    0.0600
71     H71     8.0946  -14.6846    3.1934 H        1 ZINC000150339587    0.0500
72     H72     5.4472  -12.1067    0.8703 H        1 ZINC000150339587    0.1100
73     H73     6.6393  -14.2284    0.9789 H        1 ZINC000150339587    0.1200
74     H74     6.5996  -15.7939   -0.9152 H        1 ZINC000150339587    0.1300
75     H75     5.3685  -15.2622   -2.9487 H        1 ZINC000150339587    0.1300
76     H76     3.9316  -13.6901   -4.2173 H        1 ZINC000150339587    0.1400
77     H77     2.7375  -11.5710   -4.3293 H        1 ZINC000150339587    0.1400
78     H78     2.7678  -10.0048   -2.4381 H        1 ZINC000150339587    0.1400
79     H79     0.3637   -8.4185    5.0916 H        1 ZINC000150339587    0.3900
80     H80    -1.2068   -4.7729    4.5890 H        1 ZINC000150339587    0.0700
81     H81    -0.2555   -3.4259    3.9189 H        1 ZINC000150339587    0.0700
82     H82    -0.8889   -4.6916    2.8395 H        1 ZINC000150339587    0.0700
83     H83     0.8047   -5.2634    6.0494 H        1 ZINC000150339587    0.3900
84     H84     2.8083   -0.1213    4.7698 H        1 ZINC000150339587    0.4200
85     H85     2.3012    1.2596    3.9583 H        1 ZINC000150339587    0.4200
@<TRIPOS>BOND
1     1     2     1
2     1     51    1
3     1     52    1
4     1     53    1
5     2     3     1
6     3     50    ar
7     3     4     ar
8     4     46    ar
9     4     5     1
10    5     6     2
11    6     7     1
12    6     54    1
13    7     8     1
14    7     46    1
15    8     9     1
16    8     43    1
17    8     10    1
18    10    11    1
19    11    12    1
20    11    13    1
21    11    40    1
22    13    14    1
23    13    55    1
24    13    56    1
25    14    15    1
26    15    16    2
27    15    17    1
28    15    29    1
29    17    18    1
30    17    57    1
31    18    19    1
32    18    20    1
33    18    21    1
34    20    58    1
35    20    59    1
36    20    60    1
37    21    22    2
38    21    23    1
39    23    24    1
40    24    25    1
41    24    61    1
42    24    62    1
43    25    26    1
44    25    27    1
45    25    28    1
46    26    63    1
47    26    64    1
48    26    65    1
49    27    66    1
50    27    67    1
51    27    68    1
52    28    69    1
53    28    70    1
54    28    71    1
55    29    30    1
56    30    39    ar
57    30    31    ar
58    31    36    ar
59    31    32    ar
60    32    33    ar
61    32    72    1
62    33    34    ar
63    33    73    1
64    34    35    ar
65    34    74    1
66    35    36    ar
67    35    75    1
68    36    37    ar
69    37    38    ar
70    37    76    1
71    38    39    ar
72    38    77    1
73    39    78    1
74    40    41    1
75    40    42    1
76    40    43    1
77    42    79    1
78    43    44    1
79    43    45    1
80    44    80    1
81    44    81    1
82    44    82    1
83    45    83    1
84    46    47    ar
85    47    48    ar
86    48    49    1
87    48    50    ar
88    49    84    1
89    49    85    1
@<TRIPOS>SUBSTRUCTURE
1   ZINC000150339587 1     RESIDUE    1   A     ZIN   1
