@<TRIPOS>MOLECULE
ZINC000001549366
36    38    1     0     0
SMALL
USER_CHARGES
@<TRIPOS>ATOM
1      N1     -0.0204    1.6518    0.0111 N.am     1 ZINC000001549366   -1.2500
2      S2      0.0021   -0.0041    0.0020 S.o2     1 ZINC000001549366    2.7700
3      O3      1.3604   -0.3860   -0.1664 O.2      1 ZINC000001549366   -0.9700
4      O4     -0.7920   -0.4222    1.1038 O.2      1 ZINC000001549366   -0.9400
5      O5     -0.7306   -0.4577   -1.2525 O.3      1 ZINC000001549366   -0.6700
6      C6     -0.0174   -0.2986   -2.3965 C.ar     1 ZINC000001549366    0.1200
7      C7     -0.1107    0.8956   -3.1082 C.ar     1 ZINC000001549366   -0.1400
8      C8      0.6015    1.0725   -4.2595 C.ar     1 ZINC000001549366   -0.0400
9      C9      1.4297    0.0457   -4.7270 C.ar     1 ZINC000001549366   -0.1300
10     C10     1.5261   -1.1618   -4.0144 C.ar     1 ZINC000001549366    0.1600
11     C11     0.8018   -1.3231   -2.8434 C.ar     1 ZINC000001549366   -0.1100
12     O12     2.3259   -2.1466   -4.4760 O.3      1 ZINC000001549366   -0.2600
13     C13     3.0243   -2.0009   -5.6095 C.2      1 ZINC000001549366    0.5100
14     O14     3.7276   -2.9194   -5.9902 O.2      1 ZINC000001549366   -0.4500
15     C15     2.9713   -0.8122   -6.3811 C.2      1 ZINC000001549366   -0.1900
16     C16     2.2095    0.2162   -5.9622 C.2      1 ZINC000001549366    0.0200
17     C17     2.1236    1.5430   -6.6706 C.3      1 ZINC000001549366   -0.0900
18     C18     2.3420    1.3878   -8.1756 C.3      1 ZINC000001549366   -0.1300
19     C19     3.8341    1.5638   -8.4686 C.3      1 ZINC000001549366   -0.1300
20     C20     4.6287    0.4948   -7.7224 C.3      1 ZINC000001549366   -0.1200
21     C21     3.7690   -0.7699   -7.6568 C.3      1 ZINC000001549366   -0.0800
22     H22     0.8130    2.1481    0.0058 H        1 ZINC000001549366    0.4300
23     H23    -0.8669    2.1253    0.0177 H        1 ZINC000001549366    0.4200
24     H24    -0.7512    1.6866   -2.7469 H        1 ZINC000001549366    0.1500
25     H25     0.5259    2.0002   -4.8072 H        1 ZINC000001549366    0.1600
26     H26     0.8691   -2.2460   -2.2866 H        1 ZINC000001549366    0.1600
27     H27     1.1392    1.9771   -6.4962 H        1 ZINC000001549366    0.0900
28     H28     2.8836    2.2122   -6.2673 H        1 ZINC000001549366    0.1000
29     H29     2.0201    0.3959   -8.4928 H        1 ZINC000001549366    0.0800
30     H30     1.7711    2.1476   -8.7095 H        1 ZINC000001549366    0.0800
31     H31     4.0082    1.4642   -9.5400 H        1 ZINC000001549366    0.0700
32     H32     4.1552    2.5517   -8.1385 H        1 ZINC000001549366    0.0700
33     H33     5.5551    0.2837   -8.2565 H        1 ZINC000001549366    0.0800
34     H34     4.8542    0.8399   -6.7134 H        1 ZINC000001549366    0.0700
35     H35     4.4159   -1.6458   -7.7044 H        1 ZINC000001549366    0.0900
36     H36     3.0859   -0.7833   -8.5062 H        1 ZINC000001549366    0.0900
@<TRIPOS>BOND
1     1     2     am
2     1     22    1
3     1     23    1
4     2     3     2
5     2     4     2
6     2     5     1
7     5     6     1
8     6     11    ar
9     6     7     ar
10    7     8     ar
11    7     24    1
12    8     9     ar
13    8     25    1
14    9     16    1
15    9     10    ar
16    10    11    ar
17    10    12    1
18    11    26    1
19    12    13    1
20    13    14    2
21    13    15    1
22    15    21    1
23    15    16    2
24    16    17    1
25    17    18    1
26    17    27    1
27    17    28    1
28    18    19    1
29    18    29    1
30    18    30    1
31    19    20    1
32    19    31    1
33    19    32    1
34    20    21    1
35    20    33    1
36    20    34    1
37    21    35    1
38    21    36    1
@<TRIPOS>SUBSTRUCTURE
1   ZINC000001549366 1     RESIDUE    1   A     ZIN   1
