@<TRIPOS>MOLECULE
ZINC000003937143
80    86    1     0     0
SMALL
USER_CHARGES
@<TRIPOS>ATOM
1      C1     -0.0173    1.4248    0.0099 C.3      1 ZINC000003937143    0.0300
2      O2      0.0021   -0.0041    0.0020 O.3      1 ZINC000003937143   -0.3600
3      C3      0.6014   -0.6027   -1.0480 C.2      1 ZINC000003937143    0.5400
4      O4      1.0939    0.0714   -1.9325 O.2      1 ZINC000003937143   -0.4900
5      C5      0.6589   -2.0641   -1.1227 C.2      1 ZINC000003937143   -0.1000
6      C6      1.2376   -2.8151   -2.1212 C.2      1 ZINC000003937143    0.1000
7      N7      1.0607   -4.0957   -1.8226 N.2      1 ZINC000003937143   -0.4900
8      C8      0.3894   -4.2012   -0.6870 C.2      1 ZINC000003937143    0.3100
9      C9     -0.0364   -5.4888   -0.0906 C.2      1 ZINC000003937143   -0.0700
10     C10     0.7800   -6.5536   -0.1008 C.2      1 ZINC000003937143   -0.0200
11     C11     0.3500   -7.8750    0.5011 C.3      1 ZINC000003937143   -0.0900
12     C12     0.6417   -8.9835   -0.5168 C.3      1 ZINC000003937143    0.0600
13     N13     2.0503   -8.9124   -0.9251 N.3      1 ZINC000003937143   -0.5400
14     C14     2.4289  -10.0900   -1.7175 C.3      1 ZINC000003937143    0.0600
15     C15     3.9464  -10.1076   -1.9119 C.3      1 ZINC000003937143   -0.0700
16     C16     4.3347  -11.3156   -2.7248 C.ar     1 ZINC000003937143   -0.1200
17     C17     4.6286  -12.5087   -2.0908 C.ar     1 ZINC000003937143   -0.0700
18     C18     4.9848  -13.6176   -2.8338 C.ar     1 ZINC000003937143   -0.1500
19     C19     5.0472  -13.5334   -4.2171 C.ar     1 ZINC000003937143    0.1300
20     O20     5.3969  -14.6230   -4.9502 O.3      1 ZINC000003937143   -0.3100
21     C21     5.4404  -14.4632   -6.3696 C.3      1 ZINC000003937143    0.1100
22     C22     5.8441  -15.7664   -7.0097 C.ar     1 ZINC000003937143    0.1600
23     C23     6.0961  -16.8705   -6.1988 C.ar     1 ZINC000003937143   -0.1500
24     C24     6.4627  -18.0602   -6.7615 C.ar     1 ZINC000003937143   -0.0600
25     C25     6.5735  -18.1255   -8.1630 C.ar     1 ZINC000003937143   -0.1000
26     C26     6.9449  -19.3139   -8.8125 C.ar     1 ZINC000003937143   -0.1000
27     C27     7.0407  -19.3368  -10.1703 C.ar     1 ZINC000003937143   -0.1100
28     C28     6.7748  -18.1959  -10.9253 C.ar     1 ZINC000003937143   -0.1000
29     C29     6.4125  -17.0278  -10.3289 C.ar     1 ZINC000003937143   -0.0900
30     C30     6.3026  -16.9642   -8.9286 C.ar     1 ZINC000003937143    0.1300
31     N31     5.9435  -15.8322   -8.3153 N.ar     1 ZINC000003937143   -0.4700
32     C32     4.7514  -12.3353   -4.8509 C.ar     1 ZINC000003937143   -0.2000
33     C33     4.3910  -11.2306   -4.1037 C.ar     1 ZINC000003937143   -0.0700
34     C34     2.3385   -7.6718   -1.6557 C.3      1 ZINC000003937143    0.0600
35     C35     2.1597   -6.4759   -0.7202 C.3      1 ZINC000003937143   -0.1000
36     C36    -1.3908   -5.5732    0.5207 C.ar     1 ZINC000003937143   -0.0300
37     C37    -2.3127   -6.5124    0.0712 C.ar     1 ZINC000003937143   -0.1000
38     C38    -3.5609   -6.5709    0.6628 C.ar     1 ZINC000003937143   -0.1100
39     C39    -3.8759   -5.6997    1.6898 C.ar     1 ZINC000003937143   -0.1200
40     C40    -2.9555   -4.7672    2.1304 C.ar     1 ZINC000003937143   -0.1100
41     C41    -1.7013   -4.6984    1.5414 C.ar     1 ZINC000003937143   -0.0800
42     C42    -0.7228   -3.6726    2.0202 C.3      1 ZINC000003937143   -0.0900
43     C43    -0.5153   -2.5411    1.0408 C.3      1 ZINC000003937143    0.1100
44     N44     0.1442   -2.9663   -0.1947 N.pl3    1 ZINC000003937143   -0.4200
45     H45     1.0053    1.8021    0.0021 H        1 ZINC000003937143    0.0600
46     H46    -0.5445    1.7859   -0.8732 H        1 ZINC000003937143    0.0600
47     H47    -0.5275    1.7763    0.9067 H        1 ZINC000003937143    0.1000
48     H48     1.7452   -2.4300   -2.9933 H        1 ZINC000003937143    0.1900
49     H49     0.9099   -8.0610    1.4176 H        1 ZINC000003937143    0.0900
50     H50    -0.7173   -7.8491    0.7205 H        1 ZINC000003937143    0.0900
51     H51     0.4432   -9.9548   -0.0636 H        1 ZINC000003937143    0.0800
52     H52     0.0030   -8.8523   -1.3903 H        1 ZINC000003937143    0.0400
53     H53     2.1190  -10.9948   -1.1945 H        1 ZINC000003937143    0.0800
54     H54     1.9385  -10.0465   -2.6900 H        1 ZINC000003937143    0.0400
55     H55     4.2562   -9.2028   -2.4349 H        1 ZINC000003937143    0.0700
56     H56     4.4368  -10.1511   -0.9394 H        1 ZINC000003937143    0.0800
57     H57     4.5799  -12.5737   -1.0139 H        1 ZINC000003937143    0.1300
58     H58     5.2149  -14.5491   -2.3380 H        1 ZINC000003937143    0.1300
59     H59     4.4553  -14.1699   -6.7325 H        1 ZINC000003937143    0.0900
60     H60     6.1667  -13.6920   -6.6263 H        1 ZINC000003937143    0.0900
61     H61     6.0022  -16.7861   -5.1262 H        1 ZINC000003937143    0.1500
62     H62     6.6622  -18.9263   -6.1480 H        1 ZINC000003937143    0.1400
63     H63     7.1537  -20.2044   -8.2382 H        1 ZINC000003937143    0.1300
64     H64     7.3267  -20.2511  -10.6690 H        1 ZINC000003937143    0.1300
65     H65     6.8582  -18.2396  -12.0012 H        1 ZINC000003937143    0.1300
66     H66     6.2103  -16.1528  -10.9288 H        1 ZINC000003937143    0.1400
67     H67     4.7996  -12.2672   -5.9276 H        1 ZINC000003937143    0.1300
68     H68     4.1603  -10.2978   -4.5966 H        1 ZINC000003937143    0.1200
69     H69     3.3640   -7.6966   -2.0240 H        1 ZINC000003937143    0.0800
70     H70     1.6519   -7.5775   -2.4970 H        1 ZINC000003937143    0.0400
71     H71     2.2591   -5.5491   -1.2853 H        1 ZINC000003937143    0.1100
72     H72     2.9125   -6.5095    0.0673 H        1 ZINC000003937143    0.0800
73     H73    -2.0565   -7.1883   -0.7313 H        1 ZINC000003937143    0.1300
74     H74    -4.2878   -7.2942    0.3238 H        1 ZINC000003937143    0.1300
75     H75    -4.8509   -5.7482    2.1518 H        1 ZINC000003937143    0.1200
76     H76    -3.2128   -4.0921    2.9332 H        1 ZINC000003937143    0.1300
77     H77    -1.0830   -3.2584    2.9619 H        1 ZINC000003937143    0.1000
78     H78     0.2354   -4.1602    2.1994 H        1 ZINC000003937143    0.0800
79     H79    -1.4850   -2.1087    0.7941 H        1 ZINC000003937143    0.0900
80     H80     0.0972   -1.7745    1.5155 H        1 ZINC000003937143    0.1100
@<TRIPOS>BOND
1     1     2     1
2     1     45    1
3     1     46    1
4     1     47    1
5     2     3     1
6     3     4     2
7     3     5     1
8     5     44    1
9     5     6     2
10    6     7     1
11    6     48    1
12    7     8     2
13    8     44    1
14    8     9     1
15    9     10    2
16    9     36    1
17    10    35    1
18    10    11    1
19    11    12    1
20    11    49    1
21    11    50    1
22    12    13    1
23    12    51    1
24    12    52    1
25    13    14    1
26    13    34    1
27    14    15    1
28    14    53    1
29    14    54    1
30    15    16    1
31    15    55    1
32    15    56    1
33    16    33    ar
34    16    17    ar
35    17    18    ar
36    17    57    1
37    18    19    ar
38    18    58    1
39    19    20    1
40    19    32    ar
41    20    21    1
42    21    22    1
43    21    59    1
44    21    60    1
45    22    31    ar
46    22    23    ar
47    23    24    ar
48    23    61    1
49    24    25    ar
50    24    62    1
51    25    30    ar
52    25    26    ar
53    26    27    ar
54    26    63    1
55    27    28    ar
56    27    64    1
57    28    29    ar
58    28    65    1
59    29    30    ar
60    29    66    1
61    30    31    ar
62    32    33    ar
63    32    67    1
64    33    68    1
65    34    35    1
66    34    69    1
67    34    70    1
68    35    71    1
69    35    72    1
70    36    41    ar
71    36    37    ar
72    37    38    ar
73    37    73    1
74    38    39    ar
75    38    74    1
76    39    40    ar
77    39    75    1
78    40    41    ar
79    40    76    1
80    41    42    1
81    42    43    1
82    42    77    1
83    42    78    1
84    43    44    1
85    43    79    1
86    43    80    1
@<TRIPOS>SUBSTRUCTURE
1   ZINC000003937143 1     RESIDUE    1   A     ZIN   1
