@<TRIPOS>MOLECULE
ZINC000001716098
47    48    1     0     0
SMALL
USER_CHARGES
@<TRIPOS>ATOM
1      C1     -0.0178    1.4608    0.0101 C.3      1 ZINC000001716098    0.0600
2      N2      0.0021   -0.0041    0.0020 N.am     1 ZINC000001716098   -0.3300
3      N3      0.0232   -0.7110    1.2114 N.am     1 ZINC000001716098   -0.5200
4      C4     -1.0961   -0.8056    1.9563 C.2      1 ZINC000001716098    0.5200
5      O5     -2.1215   -0.2788    1.5796 O.2      1 ZINC000001716098   -0.4700
6      C6     -1.0734   -1.5660    3.2571 C.3      1 ZINC000001716098   -0.1400
7      C7     -2.4406   -1.5208    3.8894 C.2      1 ZINC000001716098    0.5200
8      O8     -3.3444   -0.9292    3.3379 O.2      1 ZINC000001716098   -0.4700
9      N9     -2.6590   -2.1376    5.0676 N.am     1 ZINC000001716098   -0.5200
10     N10    -3.9300   -2.0955    5.6554 N.am     1 ZINC000001716098   -0.3300
11     C11    -5.0140   -2.9204    5.1163 C.3      1 ZINC000001716098    0.0600
12     C12    -4.1555   -1.2961    6.7168 C.2      1 ZINC000001716098    0.3800
13     S13    -2.8887   -0.3321    7.3468 S.2      1 ZINC000001716098   -0.5400
14     C14    -5.4948   -1.2517    7.3361 C.ar     1 ZINC000001716098   -0.1000
15     C15    -6.2758   -2.4075    7.4020 C.ar     1 ZINC000001716098   -0.0900
16     C16    -7.5264   -2.3589    7.9820 C.ar     1 ZINC000001716098   -0.1300
17     C17    -8.0074   -1.1685    8.4979 C.ar     1 ZINC000001716098   -0.0800
18     C18    -7.2390   -0.0195    8.4361 C.ar     1 ZINC000001716098   -0.1200
19     C19    -5.9843   -0.0550    7.8640 C.ar     1 ZINC000001716098   -0.0400
20     C20     0.0001   -0.6716   -1.1688 C.2      1 ZINC000001716098    0.3800
21     S21     0.0233   -2.3834   -1.1782 S.2      1 ZINC000001716098   -0.5400
22     C22    -0.0221    0.0733   -2.4432 C.ar     1 ZINC000001716098   -0.1000
23     C23     0.6577    1.2878   -2.5577 C.ar     1 ZINC000001716098   -0.0900
24     C24     0.6327    1.9786   -3.7514 C.ar     1 ZINC000001716098   -0.1300
25     C25    -0.0639    1.4708   -4.8338 C.ar     1 ZINC000001716098   -0.0800
26     C26    -0.7397    0.2681   -4.7273 C.ar     1 ZINC000001716098   -0.1200
27     C27    -0.7183   -0.4361   -3.5414 C.ar     1 ZINC000001716098   -0.0400
28     H28     1.0048    1.8381    0.0023 H        1 ZINC000001716098    0.0900
29     H29    -0.5450    1.8219   -0.8730 H        1 ZINC000001716098    0.1100
30     H30    -0.5280    1.8123    0.9069 H        1 ZINC000001716098    0.0900
31     H31     0.8433   -1.1324    1.5126 H        1 ZINC000001716098    0.4300
32     H32    -0.7951   -2.6027    3.0672 H        1 ZINC000001716098    0.1400
33     H33    -0.3464   -1.1122    3.9307 H        1 ZINC000001716098    0.1400
34     H34    -1.9361   -2.6107    5.5087 H        1 ZINC000001716098    0.4300
35     H35    -5.0157   -3.8895    5.6152 H        1 ZINC000001716098    0.0900
36     H36    -5.9686   -2.4225    5.2865 H        1 ZINC000001716098    0.1100
37     H37    -4.8643   -3.0630    4.0461 H        1 ZINC000001716098    0.0900
38     H38    -5.9017   -3.3372    6.9994 H        1 ZINC000001716098    0.1400
39     H39    -8.1316   -3.2519    8.0333 H        1 ZINC000001716098    0.1300
40     H40    -8.9874   -1.1359    8.9507 H        1 ZINC000001716098    0.1300
41     H41    -7.6207    0.9064    8.8403 H        1 ZINC000001716098    0.1400
42     H42    -5.3855    0.8425    7.8163 H        1 ZINC000001716098    0.1400
43     H43     1.2014    1.6854   -1.7135 H        1 ZINC000001716098    0.1400
44     H44     1.1577    2.9181   -3.8413 H        1 ZINC000001716098    0.1300
45     H45    -0.0805    2.0160   -5.7659 H        1 ZINC000001716098    0.1300
46     H46    -1.2817   -0.1223   -5.5760 H        1 ZINC000001716098    0.1400
47     H47    -1.2462   -1.3747   -3.4596 H        1 ZINC000001716098    0.1400
@<TRIPOS>BOND
1     1     2     1
2     1     28    1
3     1     29    1
4     1     30    1
5     2     3     1
6     2     20    am
7     3     4     am
8     3     31    1
9     4     5     2
10    4     6     1
11    6     7     1
12    6     32    1
13    6     33    1
14    7     8     2
15    7     9     am
16    9     10    1
17    9     34    1
18    10    11    1
19    10    12    am
20    11    35    1
21    11    36    1
22    11    37    1
23    12    13    2
24    12    14    1
25    14    19    ar
26    14    15    ar
27    15    16    ar
28    15    38    1
29    16    17    ar
30    16    39    1
31    17    18    ar
32    17    40    1
33    18    19    ar
34    18    41    1
35    19    42    1
36    20    21    2
37    20    22    1
38    22    27    ar
39    22    23    ar
40    23    24    ar
41    23    43    1
42    24    25    ar
43    24    44    1
44    25    26    ar
45    25    45    1
46    26    27    ar
47    26    46    1
48    27    47    1
@<TRIPOS>SUBSTRUCTURE
1   ZINC000001716098 1     RESIDUE    1   A     ZIN   1
