@<TRIPOS>MOLECULE
ZINC000002033589
56    60    1     0     0
SMALL
USER_CHARGES
@<TRIPOS>ATOM
1      C1     -0.0173    1.4248    0.0099 C.3      1 ZINC000002033589    0.0200
2      O2      0.0021   -0.0041    0.0020 O.3      1 ZINC000002033589   -0.3100
3      C3      0.6062   -0.6075   -1.0564 C.ar     1 ZINC000002033589    0.1000
4      C4      1.1727    0.1587   -2.0618 C.ar     1 ZINC000002033589   -0.1800
5      C5      1.7870   -0.4565   -3.1372 C.ar     1 ZINC000002033589   -0.0600
6      C6      2.4028    0.3787   -4.2300 C.3      1 ZINC000002033589    0.1100
7      H7      2.6721    1.3588   -3.8361 H        1 ZINC000002033589    0.0900
8      O8      3.5709   -0.2753   -4.7375 O.3      1 ZINC000002033589   -0.2900
9      C9      4.0716    0.1928   -5.9134 C.ar     1 ZINC000002033589    0.0400
10     C10     5.3700   -0.1305   -6.2772 C.ar     1 ZINC000002033589   -0.0800
11     C11     5.8913    0.3347   -7.4700 C.ar     1 ZINC000002033589   -0.0700
12     C12     7.3028   -0.0181   -7.8625 C.3      1 ZINC000002033589    0.1600
13     H13     7.5956   -0.9464   -7.3719 H        1 ZINC000002033589    0.0900
14     O14     7.3763   -0.1839   -9.2784 O.3      1 ZINC000002033589   -0.3000
15     C15     8.5917   -0.3534   -9.8502 C.ar     1 ZINC000002033589    0.2100
16     C16     8.6940   -0.9652  -11.0867 C.ar     1 ZINC000002033589   -0.2900
17     C17     9.9379   -1.1355  -11.6816 C.ar     1 ZINC000002033589    0.3300
18     O18    10.0254   -1.7378  -12.8941 O.3      1 ZINC000002033589   -0.6900
19     C19    11.0930   -0.6951  -11.0478 C.ar     1 ZINC000002033589   -0.3100
20     C20    11.0138   -0.0831   -9.8094 C.ar     1 ZINC000002033589    0.2300
21     O21    12.1388    0.3502   -9.1883 O.3      1 ZINC000002033589   -0.4900
22     C22     9.7604    0.0868   -9.2011 C.ar     1 ZINC000002033589   -0.4000
23     C23     9.6480    0.7176   -7.8814 C.2      1 ZINC000002033589    0.3800
24     O24    10.6215    0.9158   -7.1840 O.2      1 ZINC000002033589   -0.4700
25     C25     8.2517    1.1102   -7.4324 C.3      1 ZINC000002033589    0.0400
26     H26     7.9575    2.0451   -7.9094 H        1 ZINC000002033589    0.0900
27     O27     8.2211    1.2586   -6.0115 O.3      1 ZINC000002033589   -0.5400
28     C28     5.1200    1.1226   -8.3034 C.ar     1 ZINC000002033589   -0.0800
29     C29     3.8253    1.4498   -7.9460 C.ar     1 ZINC000002033589   -0.1100
30     C30     3.2970    0.9881   -6.7500 C.ar     1 ZINC000002033589    0.0500
31     O31     2.0236    1.3253   -6.4076 O.3      1 ZINC000002033589   -0.2900
32     C32     1.4029    0.5412   -5.3829 C.3      1 ZINC000002033589    0.0600
33     H33     1.1383   -0.4389   -5.7797 H        1 ZINC000002033589    0.0900
34     C34     0.1442    1.2515   -4.8809 C.3      1 ZINC000002033589    0.0900
35     O35    -0.8173    1.3194   -5.9358 O.3      1 ZINC000002033589   -0.5600
36     C36     1.8380   -1.8356   -3.2117 C.ar     1 ZINC000002033589   -0.1100
37     C37     1.2740   -2.6064   -2.2116 C.ar     1 ZINC000002033589   -0.1000
38     C38     0.6617   -1.9965   -1.1290 C.ar     1 ZINC000002033589    0.0800
39     O39     0.1067   -2.7530   -0.1447 O.3      1 ZINC000002033589   -0.4900
40     H40     1.0053    1.8021    0.0021 H        1 ZINC000002033589    0.0600
41     H41    -0.5445    1.7859   -0.8732 H        1 ZINC000002033589    0.0600
42     H42    -0.5275    1.7763    0.9067 H        1 ZINC000002033589    0.1000
43     H43     1.1343    1.2366   -2.0060 H        1 ZINC000002033589    0.1400
44     H44     5.9747   -0.7462   -5.6278 H        1 ZINC000002033589    0.1400
45     H45     7.8040   -1.3111  -11.5914 H        1 ZINC000002033589    0.1200
46     H46    12.0538   -0.8308  -11.5221 H        1 ZINC000002033589    0.1100
47     H47    12.3798    1.2620   -9.4021 H        1 ZINC000002033589    0.3800
48     H48     8.8255    1.9335   -5.6734 H        1 ZINC000002033589    0.3900
49     H49     5.5296    1.4835   -9.2352 H        1 ZINC000002033589    0.1400
50     H50     3.2248    2.0659   -8.5989 H        1 ZINC000002033589    0.1400
51     H51    -0.2756    0.6969   -4.0417 H        1 ZINC000002033589    0.0700
52     H52     0.4008    2.2603   -4.5576 H        1 ZINC000002033589    0.0600
53     H53    -1.6426    1.7582   -5.6881 H        1 ZINC000002033589    0.3800
54     H54     2.3190   -2.3124   -4.0529 H        1 ZINC000002033589    0.1400
55     H55     1.3146   -3.6839   -2.2726 H        1 ZINC000002033589    0.1400
56     H56     0.7153   -2.9709    0.5745 H        1 ZINC000002033589    0.3900
@<TRIPOS>BOND
1     1     2     1
2     1     40    1
3     1     41    1
4     1     42    1
5     2     3     1
6     3     38    ar
7     3     4     ar
8     4     5     ar
9     4     43    1
10    5     6     1
11    5     36    ar
12    6     7     1
13    6     32    1
14    6     8     1
15    8     9     1
16    9     30    ar
17    9     10    ar
18    10    11    ar
19    10    44    1
20    11    12    1
21    11    28    ar
22    12    13    1
23    12    25    1
24    12    14    1
25    14    15    1
26    15    22    ar
27    15    16    ar
28    16    17    ar
29    16    45    1
30    17    18    1
31    17    19    ar
32    19    20    ar
33    19    46    1
34    20    21    1
35    20    22    ar
36    21    47    1
37    22    23    1
38    23    24    2
39    23    25    1
40    25    26    1
41    25    27    1
42    27    48    1
43    28    29    ar
44    28    49    1
45    29    30    ar
46    29    50    1
47    30    31    1
48    31    32    1
49    32    33    1
50    32    34    1
51    34    35    1
52    34    51    1
53    34    52    1
54    35    53    1
55    36    37    ar
56    36    54    1
57    37    38    ar
58    37    55    1
59    38    39    1
60    39    56    1
@<TRIPOS>SUBSTRUCTURE
1   ZINC000002033589 1     RESIDUE    1   A     ZIN   1
