@<TRIPOS>MOLECULE
ZINC000252606123
46    48    1     0     0
SMALL
USER_CHARGES
@<TRIPOS>ATOM
1      C1     -0.0891    1.7915   -0.7580 C.3      1 ZINC000252606123    0.0300
2      O2     -0.0593    0.3681   -0.8810 O.3      1 ZINC000252606123   -0.2200
3      N3     -1.3276   -0.2479   -0.7508 N.2      1 ZINC000252606123   -0.2900
4      C4     -1.4354   -1.5430   -0.8434 C.2      1 ZINC000252606123    0.1900
5      C5     -2.7388   -2.1985   -0.5838 C.2      1 ZINC000252606123    0.5800
6      O6     -2.8393   -3.4063   -0.6702 O.2      1 ZINC000252606123   -0.4700
7      N7     -3.8128   -1.4549   -0.2518 N.am     1 ZINC000252606123   -0.7000
8      C8     -5.1013   -2.1030    0.0049 C.3      1 ZINC000252606123    0.1300
9      H9     -4.9979   -3.1387    0.3284 H        1 ZINC000252606123    0.1600
10     C10    -6.1133   -1.9113   -1.1120 C.2      1 ZINC000252606123    0.5300
11     O11    -6.1138   -2.1388   -2.3034 O.2      1 ZINC000252606123   -0.4300
12     N12    -7.0079   -1.3895   -0.2551 N.am     1 ZINC000252606123   -0.5500
13     C13    -8.3919   -1.1509   -0.1969 C.2      1 ZINC000252606123    0.0900
14     C14    -9.1453   -0.8803   -1.4321 C.2      1 ZINC000252606123    0.5200
15     O15   -10.3242   -0.5584   -1.3715 O.co2    1 ZINC000252606123   -0.6600
16     O16    -8.5928   -0.9771   -2.5193 O.co2    1 ZINC000252606123   -0.6500
17     C17    -9.0183   -1.1704    0.9720 C.2      1 ZINC000252606123   -0.1800
18     C18   -10.5098   -0.9607    0.9212 C.3      1 ZINC000252606123    0.1400
19     O19   -11.0666   -1.1204    2.2527 O.3      1 ZINC000252606123   -0.3800
20     C20   -12.4031   -1.0660    2.3649 C.2      1 ZINC000252606123    0.4500
21     C21   -13.0528   -1.2235    3.7155 C.3      1 ZINC000252606123   -0.1400
22     O22   -13.0851   -0.8907    1.3831 O.2      1 ZINC000252606123   -0.5100
23     C23    -8.4357   -1.3738    2.3318 C.3      1 ZINC000252606123   -0.0100
24     S24    -6.8048   -2.1762    2.2692 S.3      1 ZINC000252606123   -0.2400
25     C25    -6.0372   -1.2782    0.8825 C.3      1 ZINC000252606123    0.1300
26     H26    -5.6994   -0.2711    1.1273 H        1 ZINC000252606123    0.1400
27     C27    -0.2571   -2.3587   -1.2077 C.2      1 ZINC000252606123    0.1000
28     C28     0.9777   -1.8320   -1.3250 C.2      1 ZINC000252606123   -0.2300
29     S29     2.0899   -3.1244   -1.7688 S.3      1 ZINC000252606123    0.0500
30     C30     0.7605   -4.2788   -1.7550 C.2      1 ZINC000252606123    0.3500
31     N31     0.8733   -5.6306   -2.0334 N.pl3    1 ZINC000252606123   -0.8100
32     N32    -0.3390   -3.6696   -1.4383 N.2      1 ZINC000252606123   -0.5000
33     H33     0.9204    2.1871   -0.8696 H        1 ZINC000252606123    0.1000
34     H34    -0.7311    2.2099   -1.5332 H        1 ZINC000252606123    0.0600
35     H35    -0.4795    2.0633    0.2228 H        1 ZINC000252606123    0.0600
36     H36    -3.7325   -0.4907   -0.1828 H        1 ZINC000252606123    0.4100
37     H37   -10.7233    0.0440    0.5563 H        1 ZINC000252606123    0.1000
38     H38   -10.9572   -1.6938    0.2500 H        1 ZINC000252606123    0.1000
39     H39   -12.7004   -0.4366    4.3823 H        1 ZINC000252606123    0.0900
40     H40   -14.1352   -1.1513    3.6086 H        1 ZINC000252606123    0.1000
41     H41   -12.7930   -2.1965    4.1324 H        1 ZINC000252606123    0.0900
42     H42    -8.3346   -0.4053    2.8216 H        1 ZINC000252606123    0.0900
43     H43    -9.1132   -1.9952    2.9174 H        1 ZINC000252606123    0.1300
44     H44     1.2403   -0.7955   -1.1735 H        1 ZINC000252606123    0.2000
45     H45     1.7376   -6.0089   -2.2585 H        1 ZINC000252606123    0.4100
46     H46     0.0880   -6.1992   -2.0032 H        1 ZINC000252606123    0.4200
@<TRIPOS>BOND
1     1     2     1
2     1     33    1
3     1     34    1
4     1     35    1
5     2     3     1
6     3     4     2
7     4     5     1
8     4     27    1
9     5     6     2
10    5     7     am
11    7     8     1
12    7     36    1
13    8     9     1
14    8     25    1
15    8     10    1
16    10    11    2
17    10    12    am
18    12    25    1
19    12    13    1
20    13    14    1
21    13    17    2
22    14    15    ar
23    14    16    ar
24    17    18    1
25    17    23    1
26    18    19    1
27    18    37    1
28    18    38    1
29    19    20    1
30    20    21    1
31    20    22    2
32    21    39    1
33    21    40    1
34    21    41    1
35    23    24    1
36    23    42    1
37    23    43    1
38    24    25    1
39    25    26    1
40    27    32    1
41    27    28    2
42    28    29    1
43    28    44    1
44    29    30    1
45    30    31    1
46    30    32    2
47    31    45    1
48    31    46    1
@<TRIPOS>SUBSTRUCTURE
1   ZINC000252606123 1     RESIDUE    1   A     ZIN   1
