@<TRIPOS>MOLECULE
ZINC000033970495
62    67    1     0     0
SMALL
USER_CHARGES
@<TRIPOS>ATOM
1      C1     -2.1073    1.9190   -0.7286 C.3      1 ZINC000033970495   -0.0500
2      C2     -1.4696    0.6218   -0.4506 C.1      1 ZINC000033970495   -0.1700
3      C3     -0.9610   -0.4129   -0.2289 C.1      1 ZINC000033970495   -0.2100
4      C4     -0.3234   -1.7101    0.0490 C.3      1 ZINC000033970495    0.2500
5      O5      0.3852   -1.6530    1.2887 O.3      1 ZINC000033970495   -0.5400
6      C6      0.6381   -2.0834   -1.0952 C.3      1 ZINC000033970495   -0.1500
7      C7      0.1471   -3.4368   -1.6608 C.3      1 ZINC000033970495   -0.1200
8      C8     -0.6517   -4.0403   -0.4920 C.3      1 ZINC000033970495   -0.0700
9      H9      0.0515   -4.4129    0.2529 H        1 ZINC000033970495    0.0800
10     C10    -1.5523   -5.1749   -0.9172 C.3      1 ZINC000033970495   -0.0500
11     H11    -1.8805   -5.6808   -0.0092 H        1 ZINC000033970495    0.0900
12     C12    -0.7610   -6.1874   -1.7330 C.3      1 ZINC000033970495   -0.1100
13     C13    -1.6779   -7.2196   -2.3877 C.3      1 ZINC000033970495   -0.1000
14     C14    -2.6767   -6.4829   -3.2436 C.2      1 ZINC000033970495    0.0300
15     C15    -3.0134   -6.9185   -4.4775 C.2      1 ZINC000033970495   -0.2500
16     C16    -3.8783   -6.1669   -5.2914 C.2      1 ZINC000033970495    0.3900
17     O17    -4.2857   -6.6457   -6.3307 O.2      1 ZINC000033970495   -0.4700
18     C18    -4.3089   -4.7794   -4.8978 C.3      1 ZINC000033970495   -0.1700
19     C19    -4.5125   -4.7074   -3.3816 C.3      1 ZINC000033970495   -0.0800
20     C20    -3.2896   -5.2703   -2.6987 C.2      1 ZINC000033970495   -0.1200
21     C21    -2.7810   -4.6920   -1.6229 C.2      1 ZINC000033970495   -0.0500
22     C22    -3.5059   -3.4946   -1.0383 C.3      1 ZINC000033970495   -0.0200
23     H23    -4.2899   -3.1691   -1.7221 H        1 ZINC000033970495    0.1100
24     C24    -4.1120   -3.8658    0.2906 C.ar     1 ZINC000033970495   -0.0500
25     C25    -4.6079   -2.8794    1.1220 C.ar     1 ZINC000033970495   -0.1000
26     C26    -5.1650   -3.2150    2.3423 C.ar     1 ZINC000033970495   -0.1000
27     C27    -5.2268   -4.5419    2.7346 C.ar     1 ZINC000033970495    0.0300
28     O28    -5.7155   -5.1298    3.8655 O.3      1 ZINC000033970495   -0.3100
29     C29    -5.8813   -6.5213    3.5346 C.3      1 ZINC000033970495    0.2100
30     O30    -4.9028   -6.7465    2.5026 O.3      1 ZINC000033970495   -0.3100
31     C31    -4.7270   -5.5362    1.8965 C.ar     1 ZINC000033970495    0.0400
32     C32    -4.1760   -5.1932    0.6730 C.ar     1 ZINC000033970495   -0.1000
33     C33    -2.4901   -2.3711   -0.8466 C.3      1 ZINC000033970495   -0.1000
34     C34    -1.3962   -2.8328    0.0984 C.3      1 ZINC000033970495   -0.0200
35     C35    -1.9268   -3.0798    1.5120 C.3      1 ZINC000033970495   -0.1400
36     H36    -1.3461    2.6985   -0.7609 H        1 ZINC000033970495    0.0800
37     H37    -2.6212    1.8730   -1.6887 H        1 ZINC000033970495    0.0800
38     H38    -2.8267    2.1462    0.0581 H        1 ZINC000033970495    0.0800
39     H39     1.0784   -0.9793    1.3148 H        1 ZINC000033970495    0.3800
40     H40     0.6071   -1.3204   -1.8729 H        1 ZINC000033970495    0.0700
41     H41     1.6533   -2.1853   -0.7116 H        1 ZINC000033970495    0.0800
42     H42    -0.4966   -3.2809   -2.5264 H        1 ZINC000033970495    0.0700
43     H43     0.9922   -4.0750   -1.9188 H        1 ZINC000033970495    0.0700
44     H44    -0.2045   -5.6623   -2.5094 H        1 ZINC000033970495    0.0700
45     H45    -0.0574   -6.7009   -1.0778 H        1 ZINC000033970495    0.0800
46     H46    -1.0883   -7.8946   -3.0082 H        1 ZINC000033970495    0.0900
47     H47    -2.2006   -7.7880   -1.6184 H        1 ZINC000033970495    0.0900
48     H48    -2.6137   -7.8533   -4.8420 H        1 ZINC000033970495    0.1400
49     H49    -3.5416   -4.0643   -5.1944 H        1 ZINC000033970495    0.1000
50     H50    -5.2444   -4.5343   -5.4008 H        1 ZINC000033970495    0.1000
51     H51    -4.6534   -3.6692   -3.0808 H        1 ZINC000033970495    0.0900
52     H52    -5.3887   -5.2927   -3.1025 H        1 ZINC000033970495    0.0800
53     H53    -4.5598   -1.8442    0.8182 H        1 ZINC000033970495    0.1400
54     H54    -5.5517   -2.4421    2.9900 H        1 ZINC000033970495    0.1400
55     H55    -5.6747   -7.1484    4.4018 H        1 ZINC000033970495    0.1300
56     H56    -6.8865   -6.7079    3.1565 H        1 ZINC000033970495    0.0800
57     H57    -3.7932   -5.9624    0.0187 H        1 ZINC000033970495    0.1400
58     H58    -2.0736   -2.0922   -1.8145 H        1 ZINC000033970495    0.0800
59     H59    -2.9870   -1.5062   -0.4074 H        1 ZINC000033970495    0.0800
60     H60    -2.5040   -4.0043    1.5271 H        1 ZINC000033970495    0.0700
61     H61    -1.0896   -3.1628    2.2050 H        1 ZINC000033970495    0.0600
62     H62    -2.5649   -2.2482    1.8111 H        1 ZINC000033970495    0.0600
@<TRIPOS>BOND
1     1     2     1
2     1     36    1
3     1     37    1
4     1     38    1
5     2     3     3
6     3     4     1
7     4     34    1
8     4     5     1
9     4     6     1
10    5     39    1
11    6     7     1
12    6     40    1
13    6     41    1
14    7     8     1
15    7     42    1
16    7     43    1
17    8     9     1
18    8     34    1
19    8     10    1
20    10    11    1
21    10    21    1
22    10    12    1
23    12    13    1
24    12    44    1
25    12    45    1
26    13    14    1
27    13    46    1
28    13    47    1
29    14    20    1
30    14    15    2
31    15    16    1
32    15    48    1
33    16    17    2
34    16    18    1
35    18    19    1
36    18    49    1
37    18    50    1
38    19    20    1
39    19    51    1
40    19    52    1
41    20    21    2
42    21    22    1
43    22    23    1
44    22    24    1
45    22    33    1
46    24    32    ar
47    24    25    ar
48    25    26    ar
49    25    53    1
50    26    27    ar
51    26    54    1
52    27    31    ar
53    27    28    1
54    28    29    1
55    29    30    1
56    29    55    1
57    29    56    1
58    30    31    1
59    31    32    ar
60    32    57    1
61    33    34    1
62    33    58    1
63    33    59    1
64    34    35    1
65    35    60    1
66    35    61    1
67    35    62    1
@<TRIPOS>SUBSTRUCTURE
1   ZINC000033970495 1     RESIDUE    1   A     ZIN   1
