@<TRIPOS>MOLECULE
ZINC000009084028
44    47    1     0     0
SMALL
USER_CHARGES
@<TRIPOS>ATOM
1      C1     -0.0173    1.4248    0.0099 C.3      1 ZINC000009084028    0.0200
2      O2      0.0021   -0.0041    0.0020 O.3      1 ZINC000009084028   -0.3000
3      C3     -1.1988   -0.6367    0.0101 C.ar     1 ZINC000009084028    0.1700
4      C4     -2.3877    0.0882    0.0195 C.ar     1 ZINC000009084028   -0.2600
5      C5     -3.5882   -0.5920    0.0276 C.ar     1 ZINC000009084028    0.1400
6      N6     -3.6179   -1.9111    0.0264 N.ar     1 ZINC000009084028   -0.5000
7      C7     -2.5130   -2.6328    0.0176 C.ar     1 ZINC000009084028    0.1700
8      C8     -2.6066   -4.1369    0.0162 C.3      1 ZINC000009084028   -0.4100
9      S9     -2.6564   -4.7381   -1.6946 S.o      1 ZINC000009084028    1.4200
10     O10    -3.9086   -4.4046   -2.2776 O.2      1 ZINC000009084028   -0.8200
11     C11    -2.7638   -6.4857   -1.4976 C.2      1 ZINC000009084028   -0.0600
12     N12    -1.7446   -7.2905   -1.4164 N.2      1 ZINC000009084028   -0.4100
13     C13    -2.1818   -8.5679   -1.2693 C.ar     1 ZINC000009084028    0.0600
14     C14    -1.5322   -9.7974   -1.1375 C.ar     1 ZINC000009084028   -0.0800
15     C15    -2.2762  -10.9540   -1.0016 C.ar     1 ZINC000009084028    0.1300
16     N16    -1.6255  -12.1904   -0.8691 N.pl3    1 ZINC000009084028   -0.4000
17     C17    -0.2736  -12.3810   -0.8538 C.2      1 ZINC000009084028   -0.0200
18     C18    -0.0357  -13.7008   -0.7105 C.2      1 ZINC000009084028   -0.1900
19     C19    -1.2844  -14.3497   -0.6345 C.2      1 ZINC000009084028   -0.1900
20     C20    -2.2394  -13.4019   -0.7283 C.2      1 ZINC000009084028   -0.0200
21     C21    -3.6680  -10.8997   -0.9949 C.ar     1 ZINC000009084028   -0.1100
22     C22    -4.3192   -9.6925   -1.1246 C.ar     1 ZINC000009084028   -0.0800
23     C23    -3.5863   -8.5218   -1.2620 C.ar     1 ZINC000009084028    0.0500
24     N24    -3.9240   -7.1891   -1.4025 N.pl3    1 ZINC000009084028   -0.5600
25     C25    -1.2734   -2.0276    0.0033 C.ar     1 ZINC000009084028   -0.1600
26     C26    -0.0171   -2.8598   -0.0072 C.3      1 ZINC000009084028   -0.1200
27     H27     1.0053    1.8021    0.0021 H        1 ZINC000009084028    0.1100
28     H28    -0.5445    1.7859   -0.8732 H        1 ZINC000009084028    0.0600
29     H29    -0.5275    1.7763    0.9067 H        1 ZINC000009084028    0.0600
30     H30    -2.3703    1.1681    0.0209 H        1 ZINC000009084028    0.1400
31     H31    -4.5151   -0.0378    0.0353 H        1 ZINC000009084028    0.1600
32     H32    -1.7373   -4.5556    0.5233 H        1 ZINC000009084028    0.1500
33     H33    -3.5138   -4.4450    0.5361 H        1 ZINC000009084028    0.1200
34     H34    -0.4533   -9.8440   -1.1422 H        1 ZINC000009084028    0.1400
35     H35     0.4759  -11.6083   -0.9418 H        1 ZINC000009084028    0.1700
36     H36     0.9340  -14.1737   -0.6628 H        1 ZINC000009084028    0.1400
37     H37    -1.4468  -15.4110   -0.5179 H        1 ZINC000009084028    0.1400
38     H38    -3.3055  -13.5725   -0.7031 H        1 ZINC000009084028    0.1700
39     H39    -4.2401  -11.8095   -0.8878 H        1 ZINC000009084028    0.1400
40     H40    -5.3986   -9.6572   -1.1194 H        1 ZINC000009084028    0.1400
41     H41    -4.8220   -6.8233   -1.4299 H        1 ZINC000009084028    0.4300
42     H42     0.2753   -3.0632   -1.0374 H        1 ZINC000009084028    0.0800
43     H43     0.7825   -2.3171    0.4970 H        1 ZINC000009084028    0.0800
44     H44    -0.2004   -3.8010    0.5111 H        1 ZINC000009084028    0.0800
@<TRIPOS>BOND
1     1     2     1
2     1     27    1
3     1     28    1
4     1     29    1
5     2     3     1
6     3     25    ar
7     3     4     ar
8     4     5     ar
9     4     30    1
10    5     6     ar
11    5     31    1
12    6     7     ar
13    7     8     1
14    7     25    ar
15    8     9     1
16    8     32    1
17    8     33    1
18    9     10    2
19    9     11    1
20    11    24    1
21    11    12    2
22    12    13    1
23    13    23    ar
24    13    14    ar
25    14    15    ar
26    14    34    1
27    15    16    1
28    15    21    ar
29    16    20    1
30    16    17    1
31    17    18    2
32    17    35    1
33    18    19    1
34    18    36    1
35    19    20    2
36    19    37    1
37    20    38    1
38    21    22    ar
39    21    39    1
40    22    23    ar
41    22    40    1
42    23    24    1
43    24    41    1
44    25    26    1
45    26    42    1
46    26    43    1
47    26    44    1
@<TRIPOS>SUBSTRUCTURE
1   ZINC000009084028 1     RESIDUE    1   A     ZIN   1
