@<TRIPOS>MOLECULE
ZINC000003798772
49    52    1     0     0
SMALL
USER_CHARGES
@<TRIPOS>ATOM
1      O1      0.0021   -0.0041    0.0020 O.co2    1 ZINC000003798772   -0.7000
2      C2     -0.0145    1.2150    0.0087 C.2      1 ZINC000003798772    0.5000
3      O3      1.0330    1.8389    0.0021 O.co2    1 ZINC000003798772   -0.7000
4      C4     -1.3296    1.9507    0.0190 C.3      1 ZINC000003798772   -0.2000
5      C5     -2.4790    0.9408    0.0189 C.3      1 ZINC000003798772    0.1300
6      N6     -3.7575    1.6559    0.0289 N.pl3    1 ZINC000003798772   -0.4600
7      C7     -4.4395    2.0412    1.1626 C.ar     1 ZINC000003798772    0.1000
8      C8     -4.1859    1.9056    2.5231 C.ar     1 ZINC000003798772   -0.1200
9      C9     -5.0821    2.4086    3.4408 C.ar     1 ZINC000003798772   -0.1100
10     C10    -6.2388    3.0505    3.0212 C.ar     1 ZINC000003798772   -0.1500
11     C11    -6.5081    3.1956    1.6896 C.ar     1 ZINC000003798772   -0.0800
12     C12    -5.6139    2.6949    0.7413 C.ar     1 ZINC000003798772   -0.1000
13     C13    -5.5801    2.6737   -0.7175 C.2      1 ZINC000003798772   -0.1900
14     C14    -4.4473    2.0449   -1.0846 C.2      1 ZINC000003798772    0.0900
15     C15    -4.0443    1.8170   -2.5235 C.3      1 ZINC000003798772   -0.0600
16     C16    -5.2769    2.0168   -3.4122 C.3      1 ZINC000003798772   -0.1300
17     C17    -5.9500    3.3469   -3.0618 C.3      1 ZINC000003798772    0.1500
18     H18    -5.2037    4.1412   -3.0533 H        1 ZINC000003798772    0.1000
19     N19    -6.9781    3.6525   -4.0597 N.am     1 ZINC000003798772   -1.1100
20     S20    -6.6173    4.6283   -5.3481 S.o2     1 ZINC000003798772    2.7000
21     O21    -7.7960    4.7015   -6.1385 O.2      1 ZINC000003798772   -0.9600
22     O22    -5.9671    5.7735   -4.8144 O.2      1 ZINC000003798772   -0.9500
23     C23    -5.4167    3.7832   -6.3224 C.ar     1 ZINC000003798772   -0.6900
24     C24    -4.0699    3.9612   -6.0661 C.ar     1 ZINC000003798772    0.0100
25     C25    -3.1274    3.2989   -6.8296 C.ar     1 ZINC000003798772   -0.1700
26     C26    -3.5324    2.4566   -7.8511 C.ar     1 ZINC000003798772    0.1600
27     F27    -2.6118    1.8083   -8.5978 F        1 ZINC000003798772   -0.1300
28     C28    -4.8815    2.2788   -8.1065 C.ar     1 ZINC000003798772   -0.1800
29     C29    -5.8224    2.9384   -7.3386 C.ar     1 ZINC000003798772    0.0100
30     C30    -6.5952    3.2417   -1.6757 C.3      1 ZINC000003798772   -0.0300
31     H31    -1.3917    2.5717    0.9126 H        1 ZINC000003798772    0.0600
32     H32    -1.4001    2.5813   -0.8673 H        1 ZINC000003798772    0.0600
33     H33    -2.4169    0.3198   -0.8748 H        1 ZINC000003798772    0.0900
34     H34    -2.4085    0.3101    0.9052 H        1 ZINC000003798772    0.0900
35     H35    -3.2889    1.4070    2.8595 H        1 ZINC000003798772    0.1200
36     H36    -4.8826    2.3020    4.4968 H        1 ZINC000003798772    0.1200
37     H37    -6.9318    3.4382    3.7532 H        1 ZINC000003798772    0.1200
38     H38    -7.4107    3.6960    1.3713 H        1 ZINC000003798772    0.1200
39     H39    -3.2706    2.5315   -2.8046 H        1 ZINC000003798772    0.0900
40     H40    -3.6684    0.8007   -2.6419 H        1 ZINC000003798772    0.0900
41     H41    -4.9722    2.0285   -4.4586 H        1 ZINC000003798772    0.0700
42     H42    -5.9795    1.1998   -3.2477 H        1 ZINC000003798772    0.0800
43     H43    -7.8702    3.2832   -3.9658 H        1 ZINC000003798772    0.4200
44     H44    -3.7543    4.6183   -5.2693 H        1 ZINC000003798772    0.1500
45     H45    -2.0753    3.4387   -6.6297 H        1 ZINC000003798772    0.1500
46     H46    -5.1986    1.6222   -8.9032 H        1 ZINC000003798772    0.1500
47     H47    -6.8748    2.7995   -7.5374 H        1 ZINC000003798772    0.1500
48     H48    -7.4590    2.5786   -1.7229 H        1 ZINC000003798772    0.0700
49     H49    -6.9069    4.2310   -1.3406 H        1 ZINC000003798772    0.0800
@<TRIPOS>BOND
1     1     2     ar
2     2     3     ar
3     2     4     1
4     4     5     1
5     4     31    1
6     4     32    1
7     5     6     1
8     5     33    1
9     5     34    1
10    6     14    1
11    6     7     1
12    7     12    ar
13    7     8     ar
14    8     9     ar
15    8     35    1
16    9     10    ar
17    9     36    1
18    10    11    ar
19    10    37    1
20    11    12    ar
21    11    38    1
22    12    13    1
23    13    30    1
24    13    14    2
25    14    15    1
26    15    16    1
27    15    39    1
28    15    40    1
29    16    17    1
30    16    41    1
31    16    42    1
32    17    18    1
33    17    19    1
34    17    30    1
35    19    20    am
36    19    43    1
37    20    21    2
38    20    22    2
39    20    23    1
40    23    29    ar
41    23    24    ar
42    24    25    ar
43    24    44    1
44    25    26    ar
45    25    45    1
46    26    27    1
47    26    28    ar
48    28    29    ar
49    28    46    1
50    29    47    1
51    30    48    1
52    30    49    1
@<TRIPOS>SUBSTRUCTURE
1   ZINC000003798772 1     RESIDUE    1   A     ZIN   1
