@<TRIPOS>MOLECULE
ZINC000000589683
41    43    1     0     0
SMALL
USER_CHARGES
@<TRIPOS>ATOM
1      C1     -0.0999    1.4802    0.2125 C.3      1 ZINC000000589683   -0.1400
2      C2     -0.0200   -0.0367    0.0292 C.3      1 ZINC000000589683    0.0400
3      C3     -1.4218   -0.6239   -0.1473 C.3      1 ZINC000000589683   -0.1400
4      O4      0.8013   -0.3583   -1.0991 O.3      1 ZINC000000589683   -0.2500
5      C5      1.8505   -1.0880   -0.6821 C.2      1 ZINC000000589683    0.2200
6      C6      2.9068   -1.5978   -1.5728 C.ar     1 ZINC000000589683   -0.0100
7      C7      2.5691   -2.2297   -2.7738 C.ar     1 ZINC000000589683   -0.1000
8      C8      3.5638   -2.7040   -3.6026 C.ar     1 ZINC000000589683   -0.0200
9      C9      4.8936   -2.5563   -3.2483 C.ar     1 ZINC000000589683   -0.6600
10     S10     6.1574   -3.1662   -4.3139 S.o2     1 ZINC000000589683    2.7000
11     N11     6.5528   -1.9417   -5.3563 N.am     1 ZINC000000589683   -1.2500
12     O12     7.3002   -3.3833   -3.4978 O.2      1 ZINC000000589683   -0.9600
13     O13     5.5599   -4.1867   -5.1019 O.2      1 ZINC000000589683   -0.9500
14     C14     5.2359   -1.9316   -2.0616 C.ar     1 ZINC000000589683   -0.0100
15     C15     4.2529   -1.4474   -1.2247 C.ar     1 ZINC000000589683   -0.0900
16     C16     1.8188   -1.3021    0.6815 C.2      1 ZINC000000589683   -0.2900
17     C17     2.8243   -2.0651    1.4575 C.ar     1 ZINC000000589683    0.0200
18     C18     2.9736   -3.4362    1.2520 C.ar     1 ZINC000000589683   -0.1200
19     C19     3.9115   -4.1428    1.9771 C.ar     1 ZINC000000589683   -0.0900
20     C20     4.7035   -3.4944    2.9069 C.ar     1 ZINC000000589683   -0.1500
21     C21     4.5607   -2.1319    3.1165 C.ar     1 ZINC000000589683    0.1000
22     F22     5.3374   -1.5041    4.0263 F        1 ZINC000000589683   -0.1400
23     C23     3.6287   -1.4136    2.3918 C.ar     1 ZINC000000589683   -0.1400
24     C24     0.6709   -0.6738    1.2167 C.2      1 ZINC000000589683    0.3900
25     O25     0.3155   -0.6502    2.3783 O.2      1 ZINC000000589683   -0.4200
26     H26     0.9067    1.8891    0.3001 H        1 ZINC000000589683    0.0700
27     H27    -0.5989    1.9244   -0.6487 H        1 ZINC000000589683    0.0800
28     H28    -0.6645    1.7076    1.1168 H        1 ZINC000000589683    0.0900
29     H29    -1.8970   -0.1741   -1.0190 H        1 ZINC000000589683    0.0800
30     H30    -1.3488   -1.7021   -0.2891 H        1 ZINC000000589683    0.0700
31     H31    -2.0182   -0.4137    0.7405 H        1 ZINC000000589683    0.0900
32     H32     1.5318   -2.3463   -3.0512 H        1 ZINC000000589683    0.1400
33     H33     3.3046   -3.1922   -4.5304 H        1 ZINC000000589683    0.1500
34     H34     7.4535   -1.8784   -5.7107 H        1 ZINC000000589683    0.4200
35     H35     5.8838   -1.2877   -5.6124 H        1 ZINC000000589683    0.4200
36     H36     6.2758   -1.8198   -1.7922 H        1 ZINC000000589683    0.1500
37     H37     4.5215   -0.9599   -0.2992 H        1 ZINC000000589683    0.1400
38     H38     2.3559   -3.9446    0.5265 H        1 ZINC000000589683    0.1300
39     H39     4.0270   -5.2048    1.8183 H        1 ZINC000000589683    0.1400
40     H40     5.4357   -4.0518    3.4722 H        1 ZINC000000589683    0.1400
41     H41     3.5176   -0.3518    2.5549 H        1 ZINC000000589683    0.1300
@<TRIPOS>BOND
1     1     2     1
2     1     26    1
3     1     27    1
4     1     28    1
5     2     24    1
6     2     3     1
7     2     4     1
8     3     29    1
9     3     30    1
10    3     31    1
11    4     5     1
12    5     6     1
13    5     16    2
14    6     15    ar
15    6     7     ar
16    7     8     ar
17    7     32    1
18    8     9     ar
19    8     33    1
20    9     10    1
21    9     14    ar
22    10    11    am
23    10    12    2
24    10    13    2
25    11    34    1
26    11    35    1
27    14    15    ar
28    14    36    1
29    15    37    1
30    16    17    1
31    16    24    1
32    17    23    ar
33    17    18    ar
34    18    19    ar
35    18    38    1
36    19    20    ar
37    19    39    1
38    20    21    ar
39    20    40    1
40    21    22    1
41    21    23    ar
42    23    41    1
43    24    25    2
@<TRIPOS>SUBSTRUCTURE
1   ZINC000000589683 1     RESIDUE    1   A     ZIN   1
