@<TRIPOS>MOLECULE
ZINC000063298074
56    60    1     0     0
SMALL
USER_CHARGES
@<TRIPOS>ATOM
1      N1      0.3180    1.6486   -0.1200 N.pl3    1 ZINC000063298074   -0.8500
2      C2      0.4150    0.2637   -0.1497 C.ar     1 ZINC000063298074    0.4500
3      C3     -0.7585   -0.5206   -0.0413 C.ar     1 ZINC000063298074   -0.1700
4      C4     -2.1508   -0.1103    0.1057 C.2      1 ZINC000063298074   -0.0300
5      C5     -2.5658    1.3113    0.1677 C.ar     1 ZINC000063298074   -0.0500
6      C6     -3.2609    1.7883    1.2786 C.ar     1 ZINC000063298074   -0.0800
7      C7     -3.6458    3.1112    1.3336 C.ar     1 ZINC000063298074   -0.1100
8      C8     -3.3421    3.9687    0.2833 C.ar     1 ZINC000063298074    0.1600
9      N9     -3.7345    5.3110    0.3416 N.am     1 ZINC000063298074   -0.6800
10     C10    -3.6974    5.9736    1.5147 C.2      1 ZINC000063298074    0.7000
11     O11    -3.3842    5.3887    2.5336 O.2      1 ZINC000063298074   -0.5500
12     N12    -4.0075    7.2845    1.5583 N.am     1 ZINC000063298074   -0.6800
13     C13    -3.8448    8.0027    2.7481 C.ar     1 ZINC000063298074    0.1900
14     C14    -4.6712    9.0833    3.0268 C.ar     1 ZINC000063298074   -0.1600
15     C15    -4.5091    9.7913    4.2019 C.ar     1 ZINC000063298074   -0.0700
16     C16    -3.5248    9.4260    5.1010 C.ar     1 ZINC000063298074   -0.1700
17     C17    -2.6982    8.3487    4.8269 C.ar     1 ZINC000063298074    0.1200
18     F18    -1.7373    7.9935    5.7077 F        1 ZINC000063298074   -0.1300
19     C19    -2.8604    7.6327    3.6547 C.ar     1 ZINC000063298074   -0.1600
20     C20    -2.6492    3.4962   -0.8246 C.ar     1 ZINC000063298074   -0.1400
21     C21    -2.2569    2.1756   -0.8822 C.ar     1 ZINC000063298074   -0.0800
22     C22    -3.0182   -1.1182    0.1792 C.2      1 ZINC000063298074   -0.2000
23     S23    -2.2035   -2.6671    0.0744 S.3      1 ZINC000063298074    0.1400
24     C24    -0.6267   -1.9083   -0.0745 C.ar     1 ZINC000063298074   -0.0600
25     C25     0.6652   -2.4628   -0.2139 C.ar     1 ZINC000063298074   -0.0800
26     C26     0.8514   -3.9353   -0.2544 C.2      1 ZINC000063298074   -0.1900
27     C27     1.5701   -4.6316   -1.1816 C.2      1 ZINC000063298074    0.0800
28     N28     1.4894   -5.9402   -0.8617 N.pl3    1 ZINC000063298074   -0.3700
29     C29     2.1167   -7.0438   -1.5930 C.3      1 ZINC000063298074    0.1400
30     C30     2.9842   -7.8626   -0.6350 C.3      1 ZINC000063298074    0.0700
31     O31     3.5961   -8.9391   -1.3484 O.3      1 ZINC000063298074   -0.5700
32     N32     0.7029   -6.0608    0.2904 N.2      1 ZINC000063298074   -0.2900
33     C33     0.3233   -4.8663    0.6609 C.2      1 ZINC000063298074    0.0700
34     C34     1.7548   -1.6152   -0.3126 C.ar     1 ZINC000063298074    0.1600
35     N35     1.5976   -0.3019   -0.2838 N.ar     1 ZINC000063298074   -0.5400
36     H36     1.0197    2.1924   -0.5107 H        1 ZINC000063298074    0.4000
37     H37    -0.4535    2.0721    0.2879 H        1 ZINC000063298074    0.4100
38     H38    -3.4979    1.1220    2.0949 H        1 ZINC000063298074    0.1300
39     H39    -4.1842    3.4811    2.1937 H        1 ZINC000063298074    0.1400
40     H40    -4.0330    5.7644   -0.4623 H        1 ZINC000063298074    0.4100
41     H41    -4.3436    7.7300    0.7649 H        1 ZINC000063298074    0.4100
42     H42    -5.4402    9.3703    2.3250 H        1 ZINC000063298074    0.1300
43     H43    -5.1521   10.6316    4.4183 H        1 ZINC000063298074    0.1400
44     H44    -3.3998    9.9817    6.0186 H        1 ZINC000063298074    0.1400
45     H45    -2.2162    6.7927    3.4406 H        1 ZINC000063298074    0.1500
46     H46    -2.4145    4.1649   -1.6395 H        1 ZINC000063298074    0.1300
47     H47    -1.7180    1.8090   -1.7434 H        1 ZINC000063298074    0.1300
48     H48    -4.0857   -0.9970    0.2895 H        1 ZINC000063298074    0.1700
49     H49     2.1064   -4.2117   -2.0198 H        1 ZINC000063298074    0.1800
50     H50     1.3436   -7.6829   -2.0195 H        1 ZINC000063298074    0.1000
51     H51     2.7385   -6.6423   -2.3932 H        1 ZINC000063298074    0.1100
52     H52     3.7573   -7.2235   -0.2085 H        1 ZINC000063298074    0.0500
53     H53     2.3624   -8.2641    0.1652 H        1 ZINC000063298074    0.0600
54     H54     4.1621   -9.5015   -0.8022 H        1 ZINC000063298074    0.3900
55     H55    -0.2938   -4.6342    1.5163 H        1 ZINC000063298074    0.1800
56     H56     2.7457   -2.0312   -0.4189 H        1 ZINC000063298074    0.1600
@<TRIPOS>BOND
1     1     2     1
2     1     36    1
3     1     37    1
4     2     35    ar
5     2     3     ar
6     3     24    ar
7     3     4     1
8     4     5     1
9     4     22    2
10    5     21    ar
11    5     6     ar
12    6     7     ar
13    6     38    1
14    7     8     ar
15    7     39    1
16    8     9     1
17    8     20    ar
18    9     10    am
19    9     40    1
20    10    11    2
21    10    12    am
22    12    13    1
23    12    41    1
24    13    19    ar
25    13    14    ar
26    14    15    ar
27    14    42    1
28    15    16    ar
29    15    43    1
30    16    17    ar
31    16    44    1
32    17    18    1
33    17    19    ar
34    19    45    1
35    20    21    ar
36    20    46    1
37    21    47    1
38    22    23    1
39    22    48    1
40    23    24    1
41    24    25    ar
42    25    26    1
43    25    34    ar
44    26    33    1
45    26    27    2
46    27    28    1
47    27    49    1
48    28    29    1
49    28    32    1
50    29    30    1
51    29    50    1
52    29    51    1
53    30    31    1
54    30    52    1
55    30    53    1
56    31    54    1
57    32    33    2
58    33    55    1
59    34    35    ar
60    34    56    1
@<TRIPOS>SUBSTRUCTURE
1   ZINC000063298074 1     RESIDUE    1   A     ZIN   1
