@<TRIPOS>MOLECULE
ZINC000001664879
27    26    1     0     0
SMALL
USER_CHARGES
@<TRIPOS>ATOM
1      C1     -0.2903    1.3320    1.3542 C.3      1 ZINC000001664879   -0.1500
2      C2     -0.1737   -0.0256    0.6584 C.3      1 ZINC000001664879   -0.1200
3      C3     -1.5290   -0.7348    0.6937 C.3      1 ZINC000001664879   -0.0800
4      H4     -2.2895   -0.0870    0.2578 H        1 ZINC000001664879    0.0900
5      C5     -1.9002   -1.0535    2.1434 C.3      1 ZINC000001664879   -0.1500
6      C6     -1.4453   -2.0348   -0.1089 C.3      1 ZINC000001664879   -0.1100
7      H7     -0.6848   -2.6826    0.3270 H        1 ZINC000001664879    0.0900
8      C8     -1.0741   -1.7161   -1.5585 C.3      1 ZINC000001664879   -0.1100
9      C9     -2.1013   -0.7467   -2.1468 C.3      1 ZINC000001664879   -0.1600
10     C10    -2.7802   -2.7333   -0.0741 C.2      1 ZINC000001664879    0.5200
11     N11    -2.8369   -4.0797   -0.0950 N.am     1 ZINC000001664879   -0.8600
12     O12    -3.8034   -2.0839   -0.0274 O.2      1 ZINC000001664879   -0.5400
13     H13     0.6751    1.8373    1.3290 H        1 ZINC000001664879    0.0500
14     H14    -1.0329    1.9416    0.8392 H        1 ZINC000001664879    0.0500
15     H15    -0.5963    1.1845    2.3899 H        1 ZINC000001664879    0.0600
16     H16     0.1323    0.1220   -0.3773 H        1 ZINC000001664879    0.0700
17     H17     0.5689   -0.6352    1.1733 H        1 ZINC000001664879    0.0600
18     H18    -1.1397   -1.7013    2.5792 H        1 ZINC000001664879    0.0500
19     H19    -1.9598   -0.1274    2.7151 H        1 ZINC000001664879    0.0600
20     H20    -2.8657   -1.5588    2.1685 H        1 ZINC000001664879    0.0600
21     H21    -0.0848   -1.2594   -1.5883 H        1 ZINC000001664879    0.0800
22     H22    -1.0670   -2.6365   -2.1425 H        1 ZINC000001664879    0.0600
23     H23    -1.8842   -0.5840   -3.2025 H        1 ZINC000001664879    0.0500
24     H24    -3.1007   -1.1689   -2.0422 H        1 ZINC000001664879    0.0600
25     H25    -2.0506    0.2032   -1.6148 H        1 ZINC000001664879    0.0600
26     H26    -2.0243   -4.5977   -0.2058 H        1 ZINC000001664879    0.4000
27     H27    -3.6903   -4.5308    0.0008 H        1 ZINC000001664879    0.4000
@<TRIPOS>BOND
1     1     2     1
2     1     13    1
3     1     14    1
4     1     15    1
5     2     3     1
6     2     16    1
7     2     17    1
8     3     4     1
9     3     5     1
10    3     6     1
11    5     18    1
12    5     19    1
13    5     20    1
14    6     7     1
15    6     8     1
16    6     10    1
17    8     9     1
18    8     21    1
19    8     22    1
20    9     23    1
21    9     24    1
22    9     25    1
23    10    11    am
24    10    12    2
25    11    26    1
26    11    27    1
@<TRIPOS>SUBSTRUCTURE
1   ZINC000001664879 1     RESIDUE    1   A     ZIN   1
