@<TRIPOS>MOLECULE
ZINC000001491487
30    33    1     0     0
SMALL
USER_CHARGES
@<TRIPOS>ATOM
1      O1      0.0021   -0.0041    0.0020 O.2      1 ZINC000001491487   -0.4600
2      C2     -0.0144    1.2127    0.0087 C.2      1 ZINC000001491487    0.5200
3      N3     -1.0806    1.9994    0.0289 N.2      1 ZINC000001491487   -0.6300
4      C4     -0.7611    3.3008    0.0320 C.2      1 ZINC000001491487    0.4300
5      C5     -1.5943    4.4333    0.0509 C.2      1 ZINC000001491487   -0.1600
6      C6     -1.0412    5.6809    0.0520 C.2      1 ZINC000001491487    0.0000
7      C7      0.3507    5.8206    0.0344 C.2      1 ZINC000001491487   -0.2000
8      C8      1.1380    4.7169    0.0157 C.2      1 ZINC000001491487    0.1500
9      N9      0.5945    3.4782    0.0138 N.pl3    1 ZINC000001491487   -0.4700
10     C10     1.1701    2.1375    0.0024 C.3      1 ZINC000001491487    0.0400
11     C11     2.0968    1.8935    1.1966 C.3      1 ZINC000001491487   -0.0600
12     C12     3.1783    0.9713    0.6685 C.ar     1 ZINC000001491487   -0.0900
13     C13     4.1012    0.1926    1.3447 C.ar     1 ZINC000001491487   -0.1000
14     C14     5.0053   -0.5806    0.6422 C.ar     1 ZINC000001491487   -0.1100
15     C15     4.9892   -0.5775   -0.7399 C.ar     1 ZINC000001491487   -0.1100
16     C16     4.0689    0.1996   -1.4166 C.ar     1 ZINC000001491487   -0.1000
17     C17     3.1628    0.9756   -0.7150 C.ar     1 ZINC000001491487   -0.0900
18     C18     2.0717    1.9032   -1.2130 C.3      1 ZINC000001491487   -0.0600
19     H19    -2.6679    4.3163    0.0640 H        1 ZINC000001491487    0.1600
20     H20    -1.6745    6.5556    0.0661 H        1 ZINC000001491487    0.1500
21     H21     0.7966    6.8042    0.0354 H        1 ZINC000001491487    0.1600
22     H22     2.2122    4.8281    0.0021 H        1 ZINC000001491487    0.1700
23     H23     2.5324    2.8331    1.5366 H        1 ZINC000001491487    0.0900
24     H24     1.5509    1.4121    2.0080 H        1 ZINC000001491487    0.0900
25     H25     4.1148    0.1895    2.4246 H        1 ZINC000001491487    0.1200
26     H26     5.7246   -1.1868    1.1727 H        1 ZINC000001491487    0.1300
27     H27     5.6954   -1.1816   -1.2901 H        1 ZINC000001491487    0.1300
28     H28     4.0569    0.2021   -2.4965 H        1 ZINC000001491487    0.1200
29     H29     1.5095    1.4297   -2.0178 H        1 ZINC000001491487    0.0900
30     H30     2.5011    2.8457   -1.5527 H        1 ZINC000001491487    0.0900
@<TRIPOS>BOND
1     1     2     2
2     2     10    1
3     2     3     1
4     3     4     2
5     4     9     1
6     4     5     1
7     5     6     2
8     5     19    1
9     6     7     1
10    6     20    1
11    7     8     2
12    7     21    1
13    8     9     1
14    8     22    1
15    9     10    1
16    10    18    1
17    10    11    1
18    11    12    1
19    11    23    1
20    11    24    1
21    12    17    ar
22    12    13    ar
23    13    14    ar
24    13    25    1
25    14    15    ar
26    14    26    1
27    15    16    ar
28    15    27    1
29    16    17    ar
30    16    28    1
31    17    18    1
32    18    29    1
33    18    30    1
@<TRIPOS>SUBSTRUCTURE
1   ZINC000001491487 1     RESIDUE    1   A     ZIN   1
