@<TRIPOS>MOLECULE
ZINC000095628825
66    70    1     0     0
SMALL
USER_CHARGES
@<TRIPOS>ATOM
1      N1      0.0175   -1.1399   -0.0042 N.1      1 ZINC000095628825   -0.3800
2      C2      0.0021   -0.0041    0.0020 C.1      1 ZINC000095628825    0.2600
3      C3     -0.0173    1.4278    0.0099 C.2      1 ZINC000095628825    0.1300
4      C4     -1.1355    2.2012    0.0307 C.2      1 ZINC000095628825   -0.0900
5      C5     -0.7236    3.5549    0.0326 C.ar     1 ZINC000095628825   -0.1300
6      C6     -1.4208    4.7749    0.0494 C.ar     1 ZINC000095628825    0.1800
7      O7     -2.7786    4.7855    0.0697 O.3      1 ZINC000095628825   -0.3000
8      C8     -3.4172    6.0637    0.0860 C.3      1 ZINC000095628825    0.0300
9      C9     -4.9354    5.8751    0.1076 C.3      1 ZINC000095628825    0.0900
10     H10    -5.2107    5.2409    0.9503 H        1 ZINC000095628825    0.1300
11     O11    -5.3561    5.2578   -1.1106 O.3      1 ZINC000095628825   -0.5400
12     C12    -5.6166    7.2376    0.2507 C.3      1 ZINC000095628825   -0.0400
13     N13    -7.0664    7.0477    0.3917 N.4      1 ZINC000095628825   -0.3800
14     H14    -7.4116    6.5049   -0.3857 H        1 ZINC000095628825    0.4300
15     C15    -7.7321    8.3570    0.4081 C.3      1 ZINC000095628825    0.0000
16     C16    -9.2441    8.1592    0.5361 C.3      1 ZINC000095628825    0.0200
17     N17    -9.5362    7.4263    1.7761 N.3      1 ZINC000095628825   -0.5300
18     C18   -10.9842    7.2655    1.9640 C.3      1 ZINC000095628825    0.1800
19     C19   -11.2442    6.5113    3.2426 C.ar     1 ZINC000095628825   -0.0900
20     C20   -10.4878    6.7781    4.3684 C.ar     1 ZINC000095628825   -0.1000
21     C21   -10.7263    6.0863    5.5412 C.ar     1 ZINC000095628825   -0.1200
22     C22   -11.7215    5.1280    5.5882 C.ar     1 ZINC000095628825   -0.1100
23     C23   -12.4784    4.8618    4.4626 C.ar     1 ZINC000095628825   -0.1100
24     C24   -12.2428    5.5567    3.2910 C.ar     1 ZINC000095628825   -0.1100
25     C25   -11.6346    8.6228    2.0403 C.ar     1 ZINC000095628825   -0.0900
26     C26   -11.0127    9.6497    2.7257 C.ar     1 ZINC000095628825   -0.1000
27     C27   -11.6093   10.8947    2.7957 C.ar     1 ZINC000095628825   -0.1200
28     C28   -12.8275   11.1130    2.1799 C.ar     1 ZINC000095628825   -0.1100
29     C29   -13.4489   10.0864    1.4938 C.ar     1 ZINC000095628825   -0.1200
30     C30   -12.8503    8.8425    1.4202 C.ar     1 ZINC000095628825   -0.1100
31     C31    -8.8560    6.1234    1.7849 C.3      1 ZINC000095628825    0.0200
32     C32    -7.3473    6.3383    1.6469 C.3      1 ZINC000095628825   -0.0100
33     C33    -0.7169    5.9628    0.0457 C.ar     1 ZINC000095628825   -0.2400
34     C34     0.6704    5.9567    0.0254 C.ar     1 ZINC000095628825   -0.0500
35     C35     1.3687    4.7689    0.0087 C.ar     1 ZINC000095628825   -0.1600
36     C36     0.6842    3.5576    0.0121 C.ar     1 ZINC000095628825    0.1600
37     N37     1.0975    2.2446    0.0036 N.pl3    1 ZINC000095628825   -0.5700
38     H38    -2.1553    1.8459    0.0431 H        1 ZINC000095628825    0.1600
39     H39    -3.1067    6.6137    0.9743 H        1 ZINC000095628825    0.0800
40     H40    -3.1332    6.6231   -0.8054 H        1 ZINC000095628825    0.0800
41     H41    -5.1432    5.7680   -1.9040 H        1 ZINC000095628825    0.3900
42     H42    -5.2293    7.7465    1.1333 H        1 ZINC000095628825    0.1500
43     H43    -5.4135    7.8401   -0.6346 H        1 ZINC000095628825    0.1400
44     H44    -7.3688    8.9387    1.2554 H        1 ZINC000095628825    0.1400
45     H45    -7.5122    8.8880   -0.5181 H        1 ZINC000095628825    0.1400
46     H46    -9.7370    9.1310    0.5633 H        1 ZINC000095628825    0.1300
47     H47    -9.6099    7.5892   -0.3180 H        1 ZINC000095628825    0.0600
48     H48   -11.4002    6.7100    1.1235 H        1 ZINC000095628825    0.0700
49     H49    -9.7103    7.5268    4.3317 H        1 ZINC000095628825    0.1300
50     H50   -10.1349    6.2943    6.4206 H        1 ZINC000095628825    0.1200
51     H51   -11.9073    4.5870    6.5043 H        1 ZINC000095628825    0.1300
52     H52   -13.2557    4.1129    4.4992 H        1 ZINC000095628825    0.1300
53     H53   -12.8342    5.3487    2.4116 H        1 ZINC000095628825    0.1200
54     H54   -10.0609    9.4791    3.2068 H        1 ZINC000095628825    0.1300
55     H55   -11.1238   11.6967    3.3318 H        1 ZINC000095628825    0.1200
56     H56   -13.2939   12.0855    2.2352 H        1 ZINC000095628825    0.1300
57     H57   -14.4008   10.2569    1.0130 H        1 ZINC000095628825    0.1300
58     H58   -13.3358    8.0405    0.8841 H        1 ZINC000095628825    0.1200
59     H59    -9.0659    5.6099    2.7233 H        1 ZINC000095628825    0.1300
60     H60    -9.2154    5.5199    0.9514 H        1 ZINC000095628825    0.0600
61     H61    -6.8419    5.3725    1.6389 H        1 ZINC000095628825    0.1400
62     H62    -6.9861    6.9303    2.4878 H        1 ZINC000095628825    0.1400
63     H63    -1.2494    6.9023    0.0582 H        1 ZINC000095628825    0.1300
64     H64     1.2087    6.8929    0.0223 H        1 ZINC000095628825    0.1400
65     H65     2.4485    4.7783   -0.0073 H        1 ZINC000095628825    0.1300
66     H66     2.0192    1.9424   -0.0064 H        1 ZINC000095628825    0.4300
@<TRIPOS>BOND
1     1     2     3
2     2     3     1
3     3     37    1
4     3     4     2
5     4     5     1
6     4     38    1
7     5     36    ar
8     5     6     ar
9     6     7     1
10    6     33    ar
11    7     8     1
12    8     9     1
13    8     39    1
14    8     40    1
15    9     10    1
16    9     11    1
17    9     12    1
18    11    41    1
19    12    13    1
20    12    42    1
21    12    43    1
22    13    14    1
23    13    32    1
24    13    15    1
25    15    16    1
26    15    44    1
27    15    45    1
28    16    17    1
29    16    46    1
30    16    47    1
31    17    18    1
32    17    31    1
33    18    19    1
34    18    25    1
35    18    48    1
36    19    24    ar
37    19    20    ar
38    20    21    ar
39    20    49    1
40    21    22    ar
41    21    50    1
42    22    23    ar
43    22    51    1
44    23    24    ar
45    23    52    1
46    24    53    1
47    25    30    ar
48    25    26    ar
49    26    27    ar
50    26    54    1
51    27    28    ar
52    27    55    1
53    28    29    ar
54    28    56    1
55    29    30    ar
56    29    57    1
57    30    58    1
58    31    32    1
59    31    59    1
60    31    60    1
61    32    61    1
62    32    62    1
63    33    34    ar
64    33    63    1
65    34    35    ar
66    34    64    1
67    35    36    ar
68    35    65    1
69    36    37    1
70    37    66    1
@<TRIPOS>SUBSTRUCTURE
1   ZINC000095628825 1     RESIDUE    1   A     ZIN   1
