@<TRIPOS>MOLECULE
ZINC000011616140
58    59    1     0     0
SMALL
USER_CHARGES
@<TRIPOS>ATOM
1      C1      0.1521    1.4826   -0.2485 C.3      1 ZINC000011616140    0.0300
2      N2      0.1578    0.0137   -0.2291 N.3      1 ZINC000011616140   -0.6900
3      C3     -1.2114   -0.5176   -0.1984 C.3      1 ZINC000011616140    0.1400
4      C4     -1.1653   -2.0238   -0.1793 C.2      1 ZINC000011616140    0.0000
5      C5     -1.1278   -2.7957    0.9217 C.2      1 ZINC000011616140   -0.1900
6      C6     -1.0926   -4.1382    0.4797 C.2      1 ZINC000011616140   -0.1800
7      C7     -1.1107   -4.1064   -0.8650 C.2      1 ZINC000011616140   -0.0100
8      C8     -1.0865   -5.3071   -1.7754 C.3      1 ZINC000011616140   -0.0100
9      S9     -2.7862   -5.8398   -2.1189 S.3      1 ZINC000011616140   -0.2100
10     C10    -2.5529   -7.2698   -3.2103 C.3      1 ZINC000011616140   -0.1200
11     C11    -3.9173   -7.8440   -3.5972 C.3      1 ZINC000011616140    0.1600
12     N12    -3.7289   -8.9989   -4.4786 N.pl3    1 ZINC000011616140   -0.7000
13     C13    -4.8208   -9.6830   -4.9583 C.2      1 ZINC000011616140    0.7500
14     N14    -6.0236   -9.3040   -4.6287 N.am     1 ZINC000011616140   -1.0500
15     S15    -7.3400  -10.0374   -5.3152 S.o2     1 ZINC000011616140    2.5600
16     C16    -8.7608   -9.1103   -4.6730 C.3      1 ZINC000011616140   -0.6300
17     O17    -7.1827   -9.8068   -6.7085 O.2      1 ZINC000011616140   -0.9900
18     O18    -7.3235  -11.3554   -4.7843 O.2      1 ZINC000011616140   -0.9900
19     N19    -4.6440  -10.7667   -5.7855 N.pl3    1 ZINC000011616140   -0.7500
20     C20    -3.2939  -11.2614   -6.0662 C.3      1 ZINC000011616140    0.0800
21     C21    -3.3827  -12.5379   -6.9051 C.3      1 ZINC000011616140    0.1400
22     H22    -4.0145  -13.2648   -6.3948 H        1 ZINC000011616140    0.1200
23     O23    -3.9458  -12.2306   -8.1820 O.3      1 ZINC000011616140   -0.5400
24     C24    -2.0026  -13.1143   -7.0902 C.ar     1 ZINC000011616140   -0.1300
25     C25    -1.1543  -12.5813   -8.0431 C.ar     1 ZINC000011616140   -0.0900
26     C26     0.1113  -13.1078   -8.2148 C.ar     1 ZINC000011616140   -0.1400
27     C27     0.5309  -14.1720   -7.4299 C.ar     1 ZINC000011616140    0.1100
28     O28     1.7756  -14.6915   -7.5966 O.3      1 ZINC000011616140   -0.5000
29     C29    -0.3220  -14.7047   -6.4742 C.ar     1 ZINC000011616140   -0.1400
30     C30    -1.5849  -14.1715   -6.3031 C.ar     1 ZINC000011616140   -0.0900
31     O31    -1.1606   -2.8233   -1.2584 O.3      1 ZINC000011616140   -0.1700
32     H32     1.1782    1.8497   -0.2711 H        1 ZINC000011616140    0.0700
33     H33    -0.3784    1.8322   -1.1341 H        1 ZINC000011616140    0.0300
34     H34    -0.3477    1.8558    0.6454 H        1 ZINC000011616140    0.0700
35     H35     0.6718   -0.3562   -1.0146 H        1 ZINC000011616140    0.3500
36     H36    -1.7206   -0.1583    0.6958 H        1 ZINC000011616140    0.1100
37     H37    -1.7513   -0.1819   -1.0837 H        1 ZINC000011616140    0.0500
38     H38    -1.1246   -2.4553    1.9466 H        1 ZINC000011616140    0.1500
39     H39    -1.0576   -5.0201    1.1022 H        1 ZINC000011616140    0.1500
40     H40    -0.5922   -5.0441   -2.7105 H        1 ZINC000011616140    0.1000
41     H41    -0.5421   -6.1184   -1.2923 H        1 ZINC000011616140    0.1100
42     H42    -2.0219   -6.9577   -4.1096 H        1 ZINC000011616140    0.0900
43     H43    -1.9718   -8.0320   -2.6913 H        1 ZINC000011616140    0.0900
44     H44    -4.4483   -8.1562   -2.6979 H        1 ZINC000011616140    0.0900
45     H45    -4.4984   -7.0818   -4.1162 H        1 ZINC000011616140    0.0900
46     H46    -2.8338   -9.2809   -4.7239 H        1 ZINC000011616140    0.4100
47     H47    -8.6766   -8.0648   -4.9697 H        1 ZINC000011616140    0.1300
48     H48    -9.6817   -9.5299   -5.0781 H        1 ZINC000011616140    0.1300
49     H49    -8.7779   -9.1790   -3.5853 H        1 ZINC000011616140    0.1300
50     H50    -5.4132  -11.2038   -6.1832 H        1 ZINC000011616140    0.4200
51     H51    -2.7362  -10.5034   -6.6161 H        1 ZINC000011616140    0.0800
52     H52    -2.7839  -11.4782   -5.1276 H        1 ZINC000011616140    0.0900
53     H53    -3.4346  -11.5883   -8.6930 H        1 ZINC000011616140    0.3800
54     H54    -1.4814  -11.7528   -8.6539 H        1 ZINC000011616140    0.1300
55     H55     0.7734  -12.6916   -8.9597 H        1 ZINC000011616140    0.1300
56     H56     2.4526  -14.2751   -7.0458 H        1 ZINC000011616140    0.3900
57     H57     0.0022  -15.5333   -5.8621 H        1 ZINC000011616140    0.1300
58     H58    -2.2491  -14.5856   -5.5590 H        1 ZINC000011616140    0.1300
@<TRIPOS>BOND
1     1     2     1
2     1     32    1
3     1     33    1
4     1     34    1
5     2     3     1
6     2     35    1
7     3     4     1
8     3     36    1
9     3     37    1
10    4     31    1
11    4     5     2
12    5     6     1
13    5     38    1
14    6     7     2
15    6     39    1
16    7     8     1
17    7     31    1
18    8     9     1
19    8     40    1
20    8     41    1
21    9     10    1
22    10    11    1
23    10    42    1
24    10    43    1
25    11    12    1
26    11    44    1
27    11    45    1
28    12    13    1
29    12    46    1
30    13    14    2
31    13    19    1
32    14    15    am
33    15    16    1
34    15    17    2
35    15    18    2
36    16    47    1
37    16    48    1
38    16    49    1
39    19    20    1
40    19    50    1
41    20    21    1
42    20    51    1
43    20    52    1
44    21    22    1
45    21    23    1
46    21    24    1
47    23    53    1
48    24    30    ar
49    24    25    ar
50    25    26    ar
51    25    54    1
52    26    27    ar
53    26    55    1
54    27    28    1
55    27    29    ar
56    28    56    1
57    29    30    ar
58    29    57    1
59    30    58    1
@<TRIPOS>SUBSTRUCTURE
1   ZINC000011616140 1     RESIDUE    1   A     ZIN   1
