@<TRIPOS>MOLECULE
ZINC000004626669
  43   46    0    0    0
SMALL
USER_CHARGES
NO_NAME
@<TRIPOS>ATOM
    1 C1       -0.1022     1.4514     0.0444 C.3    1 <0>       0.0200
    2 O2       -0.0687     0.0230     0.0225 O.3    1 <0>      -0.3000
    3 C3       -1.2630    -0.6218     0.0452 C.ar   1 <0>       0.1800
    4 C4       -2.4627     0.0868     0.0823 C.ar   1 <0>      -0.2600
    5 C5       -3.6523    -0.6124     0.1038 C.ar   1 <0>       0.1400
    6 N6       -3.6664    -1.9319     0.0886 N.ar   1 <0>      -0.4900
    7 C7       -2.5466    -2.6356     0.0532 C.ar   1 <0>       0.1900
    8 C8       -1.3295    -2.0124     0.0266 C.ar   1 <0>      -0.1800
    9 C9       -0.0535    -2.8256    -0.0051 C.3    1 <0>      -0.0700
   10 C10       0.0698    -3.4801    -1.3840 C.3    1 <0>      -0.1200
   11 C11      -0.6906    -4.7909    -1.4291 C.3    1 <0>      -0.1300
   12 C12      -2.1970    -4.6446    -1.3433 C.3    1 <0>      -0.0800
   13 C13      -2.6222    -4.1491     0.0341 C.3    1 <0>      -0.3700
   14 H14      -3.6447    -4.4668     0.2381 H      1 <0>       0.1300
   15 S15      -1.5098    -4.8276     1.2961 S.o    1 <0>       1.4000
   16 O16      -2.0416    -4.5642     2.5873 O.2    1 <0>      -0.8100
   17 C17      -1.7296    -6.5674     1.1243 C.2    1 <0>      -0.0700
   18 N18      -2.6894    -7.2549     1.6711 N.2    1 <0>      -0.4200
   19 C19      -2.5619    -8.5643     1.3348 C.ar   1 <0>       0.0300
   20 C20      -3.2977    -9.7127     1.6370 C.ar   1 <0>      -0.0500
   21 C21      -2.9084   -10.9225     1.1350 C.ar   1 <0>      -0.1300
   22 C22      -1.7864   -11.0247     0.3253 C.ar   1 <0>      -0.0900
   23 C23      -1.0448    -9.9046     0.0141 C.ar   1 <0>      -0.1200
   24 C24      -1.4253    -8.6673     0.5146 C.ar   1 <0>       0.0700
   25 N25      -0.9240    -7.3864     0.3958 N.pl3  1 <0>      -0.5600
   26 H26       0.9163     1.8391     0.0226 H      1 <0>       0.1100
   27 H27      -0.6482     1.8155    -0.8259 H      1 <0>       0.0600
   28 H28      -0.6001     1.7893     0.9532 H      1 <0>       0.0600
   29 H29      -2.4614     1.1667     0.0943 H      1 <0>       0.1400
   30 H30      -4.5864    -0.0712     0.1339 H      1 <0>       0.1600
   31 H31       0.8017    -2.1723     0.1681 H      1 <0>       0.1100
   32 H32      -0.0912    -3.5966     0.7644 H      1 <0>       0.0500
   33 H33      -0.3342    -2.8052    -2.1386 H      1 <0>       0.0800
   34 H34       1.1217    -3.6683    -1.5987 H      1 <0>       0.0900
   35 H35      -0.4453    -5.3010    -2.3606 H      1 <0>       0.0900
   36 H36      -0.3558    -5.4136    -0.5995 H      1 <0>       0.0400
   37 H37      -2.5310    -3.9313    -2.0969 H      1 <0>       0.0800
   38 H38      -2.6621    -5.6114    -1.5358 H      1 <0>       0.0800
   39 H39      -4.1725    -9.6446     2.2666 H      1 <0>       0.1300
   40 H40      -3.4796   -11.8081     1.3712 H      1 <0>       0.1300
   41 H41      -1.4918   -11.9882    -0.0637 H      1 <0>       0.1300
   42 H42      -0.1718    -9.9898    -0.6160 H      1 <0>       0.1300
   43 H43      -0.1417    -7.1201    -0.1122 H      1 <0>       0.4300
@<TRIPOS>BOND
   1    1    2 1
   2    1   26 1
   3    1   27 1
   4    1   28 1
   5    2    3 1
   6    3    8 ar
   7    3    4 ar
   8    4    5 ar
   9    4   29 1
  10    5    6 ar
  11    5   30 1
  12    6    7 ar
  13    7   13 1
  14    7    8 ar
  15    8    9 1
  16    9   10 1
  17    9   31 1
  18    9   32 1
  19   10   11 1
  20   10   33 1
  21   10   34 1
  22   11   12 1
  23   11   35 1
  24   11   36 1
  25   12   13 1
  26   12   37 1
  27   12   38 1
  28   13   14 1
  29   13   15 1
  30   15   16 2
  31   15   17 1
  32   17   25 1
  33   17   18 2
  34   18   19 1
  35   19   24 ar
  36   19   20 ar
  37   20   21 ar
  38   20   39 1
  39   21   22 ar
  40   21   40 1
  41   22   23 ar
  42   22   41 1
  43   23   24 ar
  44   23   42 1
  45   24   25 1
  46   25   43 1
