@<TRIPOS>MOLECULE
ZINC000068247898
61    65    1     0     0
SMALL
USER_CHARGES
@<TRIPOS>ATOM
1      C1      0.0253    1.8522   -0.1767 C.3      1 ZINC000068247898    0.0700
2      N2     -0.1643    0.4019   -0.0944 N.am     1 ZINC000068247898   -0.6000
3      C3     -0.2165   -0.2037    1.1085 C.2      1 ZINC000068247898    0.5500
4      O4     -0.2874   -1.4155    1.1765 O.2      1 ZINC000068247898   -0.5000
5      C5     -0.1876    0.6049    2.3445 C.ar     1 ZINC000068247898   -0.0900
6      C6      0.8333    1.5351    2.5494 C.ar     1 ZINC000068247898   -0.0600
7      C7      0.8552    2.2875    3.7044 C.ar     1 ZINC000068247898   -0.1200
8      C8     -0.1340    2.1218    4.6614 C.ar     1 ZINC000068247898    0.1200
9      F9     -0.1078    2.8617    5.7915 F        1 ZINC000068247898   -0.1200
10     C10    -1.1505    1.1997    4.4627 C.ar     1 ZINC000068247898   -0.1100
11     C11    -1.1847    0.4458    3.3095 C.ar     1 ZINC000068247898   -0.1100
12     C12    -2.2900   -0.5559    3.0950 C.3      1 ZINC000068247898    0.5000
13     F13    -3.1541   -0.5396    4.1951 F        1 ZINC000068247898   -0.1700
14     F14    -3.0022   -0.2237    1.9376 F        1 ZINC000068247898   -0.1700
15     F15    -1.7397   -1.8343    2.9531 F        1 ZINC000068247898   -0.1500
16     C16    -0.2973   -0.3902   -1.3196 C.3      1 ZINC000068247898    0.1400
17     C17    -1.5077    0.1016   -2.1180 C.3      1 ZINC000068247898   -0.1300
18     C18    -1.6056   -0.6883   -3.4251 C.3      1 ZINC000068247898    0.0600
19     N19    -0.3747   -0.5027   -4.2041 N.3      1 ZINC000068247898   -0.4800
20     C20    -0.4815   -1.0974   -5.4503 C.ar     1 ZINC000068247898    0.3000
21     C21     0.1175   -0.4948   -6.5803 C.ar     1 ZINC000068247898   -0.0700
22     C22     0.8346    0.7039   -6.5108 C.ar     1 ZINC000068247898   -0.0700
23     C23     1.3838    1.2218   -7.6472 C.ar     1 ZINC000068247898   -0.1100
24     C24     1.2416    0.5764   -8.8726 C.ar     1 ZINC000068247898   -0.0900
25     C25     0.5479   -0.5949   -8.9739 C.ar     1 ZINC000068247898   -0.0900
26     C26    -0.0263   -1.1509   -7.8293 C.ar     1 ZINC000068247898   -0.0500
27     C27    -0.7844   -2.4009   -7.8480 C.ar     1 ZINC000068247898    0.1500
28     C28    -0.9819   -3.1487   -9.1049 C.2      1 ZINC000068247898    0.1300
29     C29     0.0073   -3.6508   -9.9231 C.2      1 ZINC000068247898   -0.2400
30     C30    -0.6142   -4.2845  -10.9984 C.2      1 ZINC000068247898    0.0500
31     N31    -1.9110   -4.1808  -10.8543 N.2      1 ZINC000068247898   -0.2800
32     N32    -2.1781   -3.4784   -9.6726 N.pl3    1 ZINC000068247898   -0.3500
33     C33    -3.5044   -3.1480   -9.1454 C.3      1 ZINC000068247898    0.1000
34     N34    -1.2890   -2.8444   -6.7055 N.ar     1 ZINC000068247898   -0.2300
35     N35    -1.1390   -2.2338   -5.5905 N.ar     1 ZINC000068247898   -0.3000
36     C36     0.7955   -1.0111   -3.4770 C.3      1 ZINC000068247898    0.0600
37     C37     0.9651   -0.2308   -2.1714 C.3      1 ZINC000068247898   -0.1200
38     H38     1.0897    2.0826   -0.1311 H        1 ZINC000068247898    0.0600
39     H39    -0.3861    2.2196   -1.1168 H        1 ZINC000068247898    0.0800
40     H40    -0.4866    2.3334    0.6566 H        1 ZINC000068247898    0.0700
41     H41     1.6046    1.6647    1.8046 H        1 ZINC000068247898    0.1500
42     H42     1.6446    3.0070    3.8640 H        1 ZINC000068247898    0.1600
43     H43    -1.9187    1.0745    5.2115 H        1 ZINC000068247898    0.1600
44     H44    -0.4323   -1.4405   -1.0615 H        1 ZINC000068247898    0.1100
45     H45    -2.4151   -0.0489   -1.5331 H        1 ZINC000068247898    0.0800
46     H46    -1.3898    1.1619   -2.3416 H        1 ZINC000068247898    0.0800
47     H47    -1.7373   -1.7468   -3.2008 H        1 ZINC000068247898    0.0600
48     H48    -2.4582   -0.3308   -4.0026 H        1 ZINC000068247898    0.0800
49     H49     0.9521    1.2149   -5.5666 H        1 ZINC000068247898    0.1500
50     H50     1.9375    2.1476   -7.5955 H        1 ZINC000068247898    0.1400
51     H51     1.6866    1.0092   -9.7564 H        1 ZINC000068247898    0.1400
52     H52     0.4440   -1.0862   -9.9300 H        1 ZINC000068247898    0.1400
53     H53     1.0718   -3.5682   -9.7606 H        1 ZINC000068247898    0.1500
54     H54    -0.1091   -4.7785  -11.8153 H        1 ZINC000068247898    0.1900
55     H55    -3.8074   -3.9058   -8.4229 H        1 ZINC000068247898    0.0800
56     H56    -3.4691   -2.1741   -8.6572 H        1 ZINC000068247898    0.0800
57     H57    -4.2237   -3.1182   -9.9639 H        1 ZINC000068247898    0.1000
58     H58     0.6525   -2.0681   -3.2524 H        1 ZINC000068247898    0.0600
59     H59     1.6869   -0.8880   -4.0921 H        1 ZINC000068247898    0.0900
60     H60     1.1219    0.8243   -2.3958 H        1 ZINC000068247898    0.0800
61     H61     1.8245   -0.6188   -1.6246 H        1 ZINC000068247898    0.0800
@<TRIPOS>BOND
1     1     2     1
2     1     38    1
3     1     39    1
4     1     40    1
5     2     3     am
6     2     16    1
7     3     4     2
8     3     5     1
9     5     11    ar
10    5     6     ar
11    6     7     ar
12    6     41    1
13    7     8     ar
14    7     42    1
15    8     9     1
16    8     10    ar
17    10    11    ar
18    10    43    1
19    11    12    1
20    12    13    1
21    12    14    1
22    12    15    1
23    16    37    1
24    16    17    1
25    16    44    1
26    17    18    1
27    17    45    1
28    17    46    1
29    18    19    1
30    18    47    1
31    18    48    1
32    19    20    1
33    19    36    1
34    20    35    ar
35    20    21    ar
36    21    26    ar
37    21    22    ar
38    22    23    ar
39    22    49    1
40    23    24    ar
41    23    50    1
42    24    25    ar
43    24    51    1
44    25    26    ar
45    25    52    1
46    26    27    ar
47    27    28    1
48    27    34    ar
49    28    32    1
50    28    29    2
51    29    30    1
52    29    53    1
53    30    31    2
54    30    54    1
55    31    32    1
56    32    33    1
57    33    55    1
58    33    56    1
59    33    57    1
60    34    35    ar
61    36    37    1
62    36    58    1
63    36    59    1
64    37    60    1
65    37    61    1
@<TRIPOS>SUBSTRUCTURE
1   ZINC000068247898 1     RESIDUE    1   A     ZIN   1
