@<TRIPOS>MOLECULE
ZINC000000002908
36    37    1     0     0
SMALL
USER_CHARGES
@<TRIPOS>ATOM
1      C1     -0.0184    1.5028    0.0103 C.3      1 ZINC000000002908   -0.1300
2      C2      0.0021   -0.0041    0.0020 C.2      1 ZINC000000002908    0.4700
3      O3      1.0605   -0.5961   -0.0113 O.2      1 ZINC000000002908   -0.6300
4      N4     -1.1558   -0.6938    0.0094 N.am     1 ZINC000000002908   -0.4100
5      O5     -2.3915   -0.0025    0.0249 O.3      1 ZINC000000002908   -0.6900
6      C6     -1.1360   -2.1586    0.0013 C.3      1 ZINC000000002908    0.1600
7      C7     -0.7484   -2.6633    1.3674 C.ar     1 ZINC000000002908   -0.1200
8      C8      0.5837   -2.8715    1.6738 C.ar     1 ZINC000000002908   -0.0500
9      C9      0.9416   -3.3340    2.9254 C.ar     1 ZINC000000002908   -0.1600
10     C10    -0.0368   -3.5892    3.8752 C.ar     1 ZINC000000002908    0.1100
11     O11     0.3128   -4.0439    5.1073 O.3      1 ZINC000000002908   -0.3100
12     C12    -0.7473   -4.2850    6.0347 C.3      1 ZINC000000002908    0.1000
13     C13    -0.1727   -4.7811    7.3366 C.ar     1 ZINC000000002908   -0.0900
14     C14     0.0098   -6.1362    7.5397 C.ar     1 ZINC000000002908   -0.1000
15     C15     0.5369   -6.5912    8.7338 C.ar     1 ZINC000000002908   -0.1300
16     C16     0.8818   -5.6912    9.7247 C.ar     1 ZINC000000002908   -0.1100
17     C17     0.7000   -4.3360    9.5212 C.ar     1 ZINC000000002908   -0.1200
18     C18     0.1770   -3.8806    8.3254 C.ar     1 ZINC000000002908   -0.1000
19     C19    -1.3726   -3.3790    3.5654 C.ar     1 ZINC000000002908   -0.2200
20     C20    -1.7250   -2.9118    2.3140 C.ar     1 ZINC000000002908   -0.0600
21     H21     1.0042    1.8801    0.0026 H        1 ZINC000000002908    0.0600
22     H22    -0.5455    1.8639   -0.8728 H        1 ZINC000000002908    0.0700
23     H23    -0.5286    1.8543    0.9071 H        1 ZINC000000002908    0.0700
24     H24    -2.1261   -2.5340   -0.2572 H        1 ZINC000000002908    0.0700
25     H25    -0.4114   -2.5081   -0.7342 H        1 ZINC000000002908    0.0600
26     H26     1.3450   -2.6727    0.9340 H        1 ZINC000000002908    0.1400
27     H27     1.9822   -3.4972    3.1641 H        1 ZINC000000002908    0.1200
28     H28    -1.2953   -3.3590    6.2089 H        1 ZINC000000002908    0.0700
29     H29    -1.4235   -5.0360    5.6264 H        1 ZINC000000002908    0.0700
30     H30    -0.2596   -6.8394    6.7655 H        1 ZINC000000002908    0.1200
31     H31     0.6789   -7.6500    8.8928 H        1 ZINC000000002908    0.1200
32     H32     1.2929   -6.0467   10.6579 H        1 ZINC000000002908    0.1200
33     H33     0.9692   -3.6328   10.2955 H        1 ZINC000000002908    0.1200
34     H34     0.0350   -2.8219    8.1664 H        1 ZINC000000002908    0.1300
35     H35    -2.1362   -3.5772    4.3031 H        1 ZINC000000002908    0.1200
36     H36    -2.7648   -2.7476    2.0725 H        1 ZINC000000002908    0.1200
@<TRIPOS>BOND
1     1     2     1
2     1     21    1
3     1     22    1
4     1     23    1
5     2     3     2
6     2     4     am
7     4     5     1
8     4     6     1
9     6     7     1
10    6     24    1
11    6     25    1
12    7     20    ar
13    7     8     ar
14    8     9     ar
15    8     26    1
16    9     10    ar
17    9     27    1
18    10    11    1
19    10    19    ar
20    11    12    1
21    12    13    1
22    12    28    1
23    12    29    1
24    13    18    ar
25    13    14    ar
26    14    15    ar
27    14    30    1
28    15    16    ar
29    15    31    1
30    16    17    ar
31    16    32    1
32    17    18    ar
33    17    33    1
34    18    34    1
35    19    20    ar
36    19    35    1
37    20    36    1
@<TRIPOS>SUBSTRUCTURE
1   ZINC000000002908 1     RESIDUE    1   A     ZIN   1
