@<TRIPOS>MOLECULE
ZINC000085550135
40    42    1     0     0
SMALL
USER_CHARGES
@<TRIPOS>ATOM
1      O1      0.4512   15.7962    4.7507 O.co2    1 ZINC000085550135   -0.6900
2      C2      0.5399   16.3991    3.6893 C.2      1 ZINC000085550135    0.5300
3      O3      0.8324   17.5875    3.6831 O.co2    1 ZINC000085550135   -0.6700
4      C4      0.2953   15.6967    2.4235 C.2      1 ZINC000085550135   -0.2100
5      C5     -0.0426   14.3508    2.4187 C.2      1 ZINC000085550135   -0.0200
6      C6     -0.2675   13.6944    1.1946 C.2      1 ZINC000085550135    0.0500
7      N7     -0.5868   12.4003    1.1890 N.2      1 ZINC000085550135   -0.1600
8      N8     -0.6936   11.7672    0.0702 N.pl3    1 ZINC000085550135   -0.4900
9      C9     -0.9224   10.3932    0.0666 C.ar     1 ZINC000085550135    0.2000
10     C10    -1.0378    9.7087   -1.1386 C.ar     1 ZINC000085550135   -0.1800
11     C11    -1.2650    8.3470   -1.1378 C.ar     1 ZINC000085550135    0.0100
12     C12    -1.3781    7.6634    0.0594 C.ar     1 ZINC000085550135   -0.6500
13     S13    -1.6686    5.9256    0.0548 S.o2     1 ZINC000085550135    2.6300
14     O14    -2.2723    5.6229   -1.1955 O.2      1 ZINC000085550135   -1.0200
15     O15    -2.2712    5.6162    1.3040 O.2      1 ZINC000085550135   -1.0200
16     N16    -0.1893    5.1813    0.0521 N.pl3    1 ZINC000085550135   -1.0700
17     C17    -0.1094    3.7935    0.0483 C.ar     1 ZINC000085550135    0.4400
18     C18     1.1364    3.1748    0.0461 C.ar     1 ZINC000085550135   -0.2200
19     C19     1.2012    1.7929    0.0419 C.ar     1 ZINC000085550135   -0.0500
20     C20     0.0135    1.0739    0.0400 C.ar     1 ZINC000085550135   -0.2900
21     C21    -1.1884    1.7533    0.0366 C.ar     1 ZINC000085550135    0.1500
22     N22    -1.2200    3.0723    0.0464 N.ar     1 ZINC000085550135   -0.6000
23     C23    -1.2695    8.3414    1.2602 C.ar     1 ZINC000085550135    0.0100
24     C24    -1.0363    9.7021    1.2681 C.ar     1 ZINC000085550135   -0.1600
25     C25    -0.1639   14.3955   -0.0303 C.2      1 ZINC000085550135   -0.1000
26     C26     0.1582   15.7085   -0.0577 C.2      1 ZINC000085550135   -0.1800
27     C27     0.3986   16.4085    1.1447 C.2      1 ZINC000085550135    0.3900
28     O28     0.6892   17.5946    1.1206 O.2      1 ZINC000085550135   -0.4300
29     H29    -0.1282   13.8091    3.3491 H        1 ZINC000085550135    0.1500
30     H30    -0.6147   12.2479   -0.7686 H        1 ZINC000085550135    0.3900
31     H31    -0.9503   10.2418   -2.0738 H        1 ZINC000085550135    0.1300
32     H32    -1.3548    7.8147   -2.0733 H        1 ZINC000085550135    0.1400
33     H33     2.0407    3.7652    0.0480 H        1 ZINC000085550135    0.1200
34     H34     2.1543    1.2849    0.0404 H        1 ZINC000085550135    0.1100
35     H35     0.0297   -0.0060    0.0368 H        1 ZINC000085550135    0.1100
36     H36    -2.1146    1.1979    0.0306 H        1 ZINC000085550135    0.1300
37     H37    -1.3629    7.8049    2.1928 H        1 ZINC000085550135    0.1400
38     H38    -0.9476   10.2301    2.2060 H        1 ZINC000085550135    0.1400
39     H39    -0.3452   13.8735   -0.9583 H        1 ZINC000085550135    0.1200
40     H40     0.2316   16.2243   -1.0037 H        1 ZINC000085550135    0.1400
@<TRIPOS>BOND
1     1     2     ar
2     2     3     ar
3     2     4     1
4     4     27    1
5     4     5     2
6     5     6     1
7     5     29    1
8     6     7     2
9     6     25    1
10    7     8     1
11    8     9     1
12    8     30    1
13    9     24    ar
14    9     10    ar
15    10    11    ar
16    10    31    1
17    11    12    ar
18    11    32    1
19    12    13    1
20    12    23    ar
21    13    14    2
22    13    15    2
23    13    16    1
24    16    17    1
25    17    22    ar
26    17    18    ar
27    18    19    ar
28    18    33    1
29    19    20    ar
30    19    34    1
31    20    21    ar
32    20    35    1
33    21    22    ar
34    21    36    1
35    23    24    ar
36    23    37    1
37    24    38    1
38    25    26    2
39    25    39    1
40    26    27    1
41    26    40    1
42    27    28    2
@<TRIPOS>SUBSTRUCTURE
1   ZINC000085550135 1     RESIDUE    1   A     ZIN   1
