@<TRIPOS>MOLECULE
ZINC000000019902
  33   35    0    0    0
SMALL
USER_CHARGES
NO_NAME
@<TRIPOS>ATOM
    1 N1       -0.0169     1.3937     0.0097 N.pl3  1 <0>      -0.8500
    2 C2        0.0021    -0.0041     0.0020 C.2    1 <0>       0.1000
    3 C3       -1.1558    -0.7318     0.0034 C.2    1 <0>      -0.1700
    4 C4       -1.0314    -2.1941    -0.0056 C.ar   1 <0>      -0.0900
    5 C5       -2.1384    -3.0063    -0.2764 C.ar   1 <0>      -0.0800
    6 C6       -1.9961    -4.3758    -0.2826 C.ar   1 <0>      -0.1200
    7 C7       -0.7638    -4.9556    -0.0229 C.ar   1 <0>      -0.1000
    8 C8        0.3427    -4.1669     0.2487 C.ar   1 <0>       0.1800
    9 N9        1.5815    -4.7619     0.5086 N.pl3  1 <0>      -0.6700
   10 C10       1.9716    -5.1253     1.8794 C.3    1 <0>       0.1500
   11 C11       3.3586    -4.5384     2.1625 C.3    1 <0>       0.0400
   12 N12       4.2932    -4.9717     1.1152 N.3    1 <0>      -0.6900
   13 C13       3.8937    -4.4572    -0.2015 C.3    1 <0>       0.0400
   14 C14       2.5261    -5.0463    -0.5822 C.3    1 <0>       0.1500
   15 C15       0.2174    -2.7786     0.2615 C.ar   1 <0>       0.0800
   16 O16       1.2857    -1.9905     0.5328 O.3    1 <0>      -0.2600
   17 C17       1.2683    -0.7527    -0.0141 C.2    1 <0>       0.5100
   18 O18       2.2756    -0.2704    -0.4990 O.2    1 <0>      -0.4400
   19 H19       0.8165     1.8901     0.0044 H      1 <0>       0.4100
   20 H20      -0.8634     1.8673     0.0163 H      1 <0>       0.4100
   21 H21      -2.1223    -0.2500     0.0111 H      1 <0>       0.1500
   22 H22      -3.1010    -2.5605    -0.4796 H      1 <0>       0.1400
   23 H23      -2.8505    -5.0027    -0.4909 H      1 <0>       0.1300
   24 H24      -0.6655    -6.0310    -0.0319 H      1 <0>       0.1400
   25 H25       1.2497    -4.7161     2.5862 H      1 <0>       0.0700
   26 H26       2.0068    -6.2105     1.9746 H      1 <0>       0.0600
   27 H27       3.2987    -3.4501     2.1690 H      1 <0>       0.0300
   28 H28       3.7110    -4.8895     3.1324 H      1 <0>       0.0800
   29 H29       5.2385    -4.6985     1.3386 H      1 <0>       0.3400
   30 H30       3.8264    -3.3700    -0.1621 H      1 <0>       0.0400
   31 H31       4.6342    -4.7494    -0.9461 H      1 <0>       0.0800
   32 H32       2.6179    -6.1232    -0.7236 H      1 <0>       0.0600
   33 H33       2.1710    -4.5823    -1.5024 H      1 <0>       0.0700
@<TRIPOS>BOND
   1    1    2 1
   2    1   19 1
   3    1   20 1
   4    2   17 1
   5    2    3 2
   6    3    4 1
   7    3   21 1
   8    4   15 ar
   9    4    5 ar
  10    5    6 ar
  11    5   22 1
  12    6    7 ar
  13    6   23 1
  14    7    8 ar
  15    7   24 1
  16    8    9 1
  17    8   15 ar
  18    9   14 1
  19    9   10 1
  20   10   11 1
  21   10   25 1
  22   10   26 1
  23   11   12 1
  24   11   27 1
  25   11   28 1
  26   12   13 1
  27   12   29 1
  28   13   14 1
  29   13   30 1
  30   13   31 1
  31   14   32 1
  32   14   33 1
  33   15   16 1
  34   16   17 1
  35   17   18 2
