@<TRIPOS>MOLECULE
ZINC000068208690
60    63    1     0     0
SMALL
USER_CHARGES
@<TRIPOS>ATOM
1      C1     -0.0187    1.5258    0.0104 C.3      1 ZINC000068208690   -0.1500
2      C2      0.0021   -0.0041    0.0020 C.3      1 ZINC000068208690    0.0000
3      C3      0.7421   -0.5109    1.2415 C.3      1 ZINC000068208690   -0.1500
4      C4     -1.4117   -0.5257    0.0127 C.2      1 ZINC000068208690    0.2000
5      N5     -2.3068   -0.2997    0.9281 N.2      1 ZINC000068208690   -0.3800
6      O6     -3.3473   -0.8578    0.6514 O.3      1 ZINC000068208690    0.0500
7      C7     -3.2133   -1.5174   -0.5079 C.2      1 ZINC000068208690    0.3500
8      N8     -4.1753   -2.2652   -1.1423 N.3      1 ZINC000068208690   -0.4200
9      C9     -4.3905   -1.7904   -2.5151 C.3      1 ZINC000068208690    0.0600
10     C10    -5.3576   -2.7320   -3.2363 C.3      1 ZINC000068208690   -0.1100
11     C11    -6.6860   -2.7716   -2.4758 C.3      1 ZINC000068208690   -0.0900
12     C12    -7.6363   -3.7579   -3.1577 C.3      1 ZINC000068208690    0.0600
13     O13    -8.9134   -3.7084   -2.5184 O.3      1 ZINC000068208690   -0.3000
14     C14    -9.8798   -4.5298   -3.0063 C.ar     1 ZINC000068208690    0.0900
15     C15   -11.1515   -4.5344   -2.4400 C.ar     1 ZINC000068208690   -0.1100
16     C16   -12.1053   -5.3859   -2.9681 C.ar     1 ZINC000068208690   -0.1100
17     C17   -11.7633   -6.2049   -4.0421 C.ar     1 ZINC000068208690    0.1100
18     C18   -12.7768   -7.1224   -4.6175 C.ar     1 ZINC000068208690    0.0200
19     C19   -14.0661   -7.1600   -4.0896 C.ar     1 ZINC000068208690   -0.1300
20     C20   -15.0052   -8.0153   -4.6293 C.ar     1 ZINC000068208690   -0.0200
21     C21   -14.6687   -8.8345   -5.6919 C.ar     1 ZINC000068208690   -0.6600
22     S22   -15.8727   -9.9243   -6.3755 S.o2     1 ZINC000068208690    2.5000
23     C23   -16.6792   -8.9497   -7.6756 C.3      1 ZINC000068208690   -0.6500
24     O24   -15.1084  -10.9786   -6.9442 O.2      1 ZINC000068208690   -0.9400
25     O25   -16.7734  -10.1680   -5.3037 O.2      1 ZINC000068208690   -0.9400
26     C26   -13.3908   -8.8009   -6.2202 C.ar     1 ZINC000068208690   -0.0300
27     C27   -12.4451   -7.9458   -5.6919 C.ar     1 ZINC000068208690   -0.1100
28     N28   -10.5405   -6.1721   -4.5556 N.ar     1 ZINC000068208690   -0.4300
29     C29    -9.6117   -5.3696   -4.0789 C.ar     1 ZINC000068208690    0.0300
30     C30    -6.4275   -3.2226   -1.0356 C.3      1 ZINC000068208690   -0.1100
31     C31    -5.4293   -2.2667   -0.3783 C.3      1 ZINC000068208690    0.0500
32     N32    -1.9776   -1.3037   -0.9247 N.2      1 ZINC000068208690   -0.4900
33     H33     1.0039    1.9031    0.0027 H        1 ZINC000068208690    0.0700
34     H34    -0.5459    1.8868   -0.8726 H        1 ZINC000068208690    0.0600
35     H35    -0.5289    1.8773    0.9072 H        1 ZINC000068208690    0.0600
36     H36     0.5123   -0.3556   -0.8948 H        1 ZINC000068208690    0.1000
37     H37     0.7568   -1.6008    1.2356 H        1 ZINC000068208690    0.0600
38     H38     1.7647   -0.1336    1.2338 H        1 ZINC000068208690    0.0700
39     H39     0.2319   -0.1594    2.1383 H        1 ZINC000068208690    0.0600
40     H40    -4.8127   -0.7858   -2.4900 H        1 ZINC000068208690    0.0600
41     H41    -3.4387   -1.7710   -3.0461 H        1 ZINC000068208690    0.1000
42     H42    -5.5293   -2.3706   -4.2502 H        1 ZINC000068208690    0.0900
43     H43    -4.9299   -3.7339   -3.2739 H        1 ZINC000068208690    0.0900
44     H44    -7.1336   -1.7777   -2.4725 H        1 ZINC000068208690    0.0900
45     H45    -7.7454   -3.4899   -4.2086 H        1 ZINC000068208690    0.0700
46     H46    -7.2301   -4.7664   -3.0803 H        1 ZINC000068208690    0.0700
47     H47   -11.3878   -3.8885   -1.6074 H        1 ZINC000068208690    0.1500
48     H48   -13.1019   -5.4157   -2.5530 H        1 ZINC000068208690    0.1500
49     H49   -14.3297   -6.5214   -3.2594 H        1 ZINC000068208690    0.1400
50     H50   -16.0046   -8.0454   -4.2209 H        1 ZINC000068208690    0.1500
51     H51   -15.9380   -8.6467   -8.4152 H        1 ZINC000068208690    0.1300
52     H52   -17.4482   -9.5532   -8.1579 H        1 ZINC000068208690    0.1300
53     H53   -17.1360   -8.0636   -7.2349 H        1 ZINC000068208690    0.1300
54     H54   -13.1336   -9.4427   -7.0499 H        1 ZINC000068208690    0.1500
55     H55   -11.4476   -7.9204   -6.1052 H        1 ZINC000068208690    0.1400
56     H56    -8.6270   -5.3703   -4.5226 H        1 ZINC000068208690    0.1600
57     H57    -7.3635   -3.2117   -0.4773 H        1 ZINC000068208690    0.0900
58     H58    -6.0166   -4.2322   -1.0387 H        1 ZINC000068208690    0.0800
59     H59    -5.2321   -2.5934    0.6428 H        1 ZINC000068208690    0.1000
60     H60    -5.8467   -1.2599   -0.3631 H        1 ZINC000068208690    0.0600
@<TRIPOS>BOND
1     1     2     1
2     1     33    1
3     1     34    1
4     1     35    1
5     2     3     1
6     2     4     1
7     2     36    1
8     3     37    1
9     3     38    1
10    3     39    1
11    4     32    1
12    4     5     2
13    5     6     1
14    6     7     1
15    7     8     1
16    7     32    2
17    8     31    1
18    8     9     1
19    9     10    1
20    9     40    1
21    9     41    1
22    10    11    1
23    10    42    1
24    10    43    1
25    11    12    1
26    11    30    1
27    11    44    1
28    12    13    1
29    12    45    1
30    12    46    1
31    13    14    1
32    14    29    ar
33    14    15    ar
34    15    16    ar
35    15    47    1
36    16    17    ar
37    16    48    1
38    17    18    1
39    17    28    ar
40    18    27    ar
41    18    19    ar
42    19    20    ar
43    19    49    1
44    20    21    ar
45    20    50    1
46    21    22    1
47    21    26    ar
48    22    23    1
49    22    24    2
50    22    25    2
51    23    51    1
52    23    52    1
53    23    53    1
54    26    27    ar
55    26    54    1
56    27    55    1
57    28    29    ar
58    29    56    1
59    30    31    1
60    30    57    1
61    30    58    1
62    31    59    1
63    31    60    1
@<TRIPOS>SUBSTRUCTURE
1   ZINC000068208690 1     RESIDUE    1   A     ZIN   1
