@<TRIPOS>MOLECULE
ZINC000000008826
42    43    1     0     0
SMALL
USER_CHARGES
@<TRIPOS>ATOM
1      O1      0.0021   -0.0041    0.0020 O.3      1 ZINC000000008826   -0.5300
2      N2     -0.0171    1.4118    0.0098 N.ar     1 ZINC000000008826   -0.1200
3      C3     -1.1795    2.0376    0.0297 C.ar     1 ZINC000000008826    0.1000
4      C4     -1.2464    3.4191    0.0385 C.ar     1 ZINC000000008826   -0.1100
5      C5     -0.0744    4.1544    0.0261 C.ar     1 ZINC000000008826   -0.0400
6      C6      1.1430    3.4632    0.0050 C.ar     1 ZINC000000008826   -0.0700
7      C7      2.4241    4.1987   -0.0084 C.2      1 ZINC000000008826    0.2500
8      Cl8     2.4284    5.9347    0.0020 Cl       1 ZINC000000008826   -0.0300
9      N9      3.5435    3.5488   -0.0278 N.2      1 ZINC000000008826   -0.3100
10     O10     4.7714    4.2538   -0.0406 O.3      1 ZINC000000008826   -0.2000
11     C11     5.9253    3.4111   -0.0617 C.3      1 ZINC000000008826    0.0400
12     C12     7.1878    4.2753   -0.0741 C.3      1 ZINC000000008826    0.0900
13     H13     7.1665    4.9618    0.7722 H        1 ZINC000000008826    0.1300
14     O14     7.2424    5.0215   -1.2916 O.3      1 ZINC000000008826   -0.5400
15     C15     8.4219    3.3768    0.0291 C.3      1 ZINC000000008826   -0.0400
16     N16     9.6267    4.2102    0.1378 N.4      1 ZINC000000008826   -0.3800
17     H17     9.6606    4.8535   -0.6388 H        1 ZINC000000008826    0.4300
18     C18    10.8173    3.3521    0.1127 C.3      1 ZINC000000008826   -0.0100
19     C19    12.0771    4.2202    0.1439 C.3      1 ZINC000000008826   -0.1500
20     C20    12.0791    5.0614    1.4236 C.3      1 ZINC000000008826   -0.1400
21     C21    10.7969    5.8972    1.4754 C.3      1 ZINC000000008826   -0.1500
22     C22     9.5854    4.9657    1.3956 C.3      1 ZINC000000008826   -0.0100
23     C23     1.1261    2.0680    0.0024 C.ar     1 ZINC000000008826    0.1200
24     H24    -2.0929    1.4614    0.0390 H        1 ZINC000000008826    0.1900
25     H25    -2.2037    3.9188    0.0544 H        1 ZINC000000008826    0.1800
26     H26    -0.0981    5.2341    0.0322 H        1 ZINC000000008826    0.1700
27     H27     5.9280    2.7765    0.8245 H        1 ZINC000000008826    0.0800
28     H28     5.9033    2.7872   -0.9553 H        1 ZINC000000008826    0.0800
29     H29     7.2638    4.4736   -2.0881 H        1 ZINC000000008826    0.3900
30     H30     8.3374    2.7434    0.9122 H        1 ZINC000000008826    0.1400
31     H31     8.4917    2.7516   -0.8611 H        1 ZINC000000008826    0.1400
32     H32    10.8086    2.6939    0.9814 H        1 ZINC000000008826    0.1300
33     H33    10.8128    2.7518   -0.7971 H        1 ZINC000000008826    0.1300
34     H34    12.9599    3.5812    0.1270 H        1 ZINC000000008826    0.1100
35     H35    12.0869    4.8788   -0.7246 H        1 ZINC000000008826    0.0900
36     H36    12.1209    4.4039    2.2920 H        1 ZINC000000008826    0.0800
37     H37    12.9455    5.7228    1.4237 H        1 ZINC000000008826    0.1000
38     H38    10.7647    6.4569    2.4102 H        1 ZINC000000008826    0.1100
39     H39    10.7802    6.5906    0.6345 H        1 ZINC000000008826    0.0900
40     H40     8.6702    5.5566    1.4323 H        1 ZINC000000008826    0.1300
41     H41     9.6039    4.2734    2.2374 H        1 ZINC000000008826    0.1300
42     H42     2.0573    1.5212   -0.0137 H        1 ZINC000000008826    0.1900
@<TRIPOS>BOND
1     1     2     1
2     2     23    ar
3     2     3     ar
4     3     4     ar
5     3     24    1
6     4     5     ar
7     4     25    1
8     5     6     ar
9     5     26    1
10    6     7     1
11    6     23    ar
12    7     8     1
13    7     9     2
14    9     10    1
15    10    11    1
16    11    12    1
17    11    27    1
18    11    28    1
19    12    13    1
20    12    14    1
21    12    15    1
22    14    29    1
23    15    16    1
24    15    30    1
25    15    31    1
26    16    17    1
27    16    22    1
28    16    18    1
29    18    19    1
30    18    32    1
31    18    33    1
32    19    20    1
33    19    34    1
34    19    35    1
35    20    21    1
36    20    36    1
37    20    37    1
38    21    22    1
39    21    38    1
40    21    39    1
41    22    40    1
42    22    41    1
43    23    42    1
@<TRIPOS>SUBSTRUCTURE
1   ZINC000000008826 1     RESIDUE    1   A     ZIN   1
