@<TRIPOS>MOLECULE
ZINC000001533114
  54   57    0    0    0
SMALL
USER_CHARGES
NO_NAME
@<TRIPOS>ATOM
    1 O1        0.0021    -0.0041     0.0020 O.co2  1 <0>      -0.6900
    2 C2       -0.0145     1.2191     0.0087 C.2    1 <0>       0.5200
    3 O3        1.0364     1.8450     0.0021 O.co2  1 <0>      -0.6800
    4 C4       -1.3000     1.9381     0.0187 C.ar   1 <0>      -0.1500
    5 C5       -1.3188     3.3412     0.0207 C.ar   1 <0>      -0.0500
    6 C6       -2.5004     4.0203     0.0303 C.ar   1 <0>      -0.1500
    7 C7       -3.7092     3.3264     0.0380 C.ar   1 <0>       0.0900
    8 N8       -5.0231     3.7259     0.0482 N.pl3  1 <0>      -0.6000
    9 C9       -5.8451     2.6315     0.0524 C.2    1 <0>       0.0400
   10 C10      -5.1121     1.5076     0.0453 C.2    1 <0>      -0.1800
   11 C11      -5.6358     0.0945     0.0468 C.3    1 <0>      -0.0400
   12 C12      -5.6842    -0.4299     1.4834 C.3    1 <0>      -0.1100
   13 C13      -6.2159    -1.8645     1.4849 C.3    1 <0>      -0.1500
   14 C14      -6.2642    -2.3889     2.9215 C.3    1 <0>      -0.0100
   15 N15      -6.7747    -3.7663     2.9230 N.4    1 <0>      -0.3900
   16 H16      -6.2138    -4.3350     2.3065 H      1 <0>       0.4300
   17 C17      -8.1690    -3.7738     2.4651 C.3    1 <0>       0.0300
   18 C18      -8.7678    -5.1405     2.6328 C.2    1 <0>      -0.1900
   19 C19      -8.2504    -6.0565     3.4227 C.2    1 <0>      -0.0500
   20 C20      -8.9189    -7.3710     3.5231 C.ar   1 <0>      -0.0800
   21 C21      -9.4924    -7.7751     4.7292 C.ar   1 <0>      -0.1000
   22 C22     -10.1149    -9.0033     4.8163 C.ar   1 <0>      -0.1200
   23 C23     -10.1706    -9.8338     3.7112 C.ar   1 <0>      -0.1100
   24 C24      -9.6036    -9.4392     2.5126 C.ar   1 <0>      -0.1200
   25 C25      -8.9840    -8.2106     2.4105 C.ar   1 <0>      -0.1000
   26 C26      -7.0028    -5.8142     4.2269 C.3    1 <0>      -0.1100
   27 C27      -6.7140    -4.3125     4.2880 C.3    1 <0>       0.0000
   28 C28      -3.7044     1.9169     0.0357 C.ar   1 <0>      -0.1200
   29 C29      -2.4973     1.2247     0.0206 C.ar   1 <0>      -0.0400
   30 H30      -0.3877     3.8884     0.0148 H      1 <0>       0.1300
   31 H31      -2.5001     5.1003     0.0324 H      1 <0>       0.1100
   32 H32      -5.3242     4.6479     0.0521 H      1 <0>       0.4100
   33 H33      -6.9245     2.6672     0.0603 H      1 <0>       0.1600
   34 H34      -6.6387     0.0783    -0.3798 H      1 <0>       0.0700
   35 H35      -4.9773    -0.5377    -0.5488 H      1 <0>       0.0700
   36 H36      -4.6813    -0.4136     1.9100 H      1 <0>       0.0800
   37 H37      -6.3427     0.2024     2.0790 H      1 <0>       0.0700
   38 H38      -7.2188    -1.8807     1.0583 H      1 <0>       0.0800
   39 H39      -5.5574    -2.4967     0.8893 H      1 <0>       0.0900
   40 H40      -5.2613    -2.3726     3.3481 H      1 <0>       0.1400
   41 H41      -6.9227    -1.7567     3.5171 H      1 <0>       0.1300
   42 H42      -8.7438    -3.0543     3.0482 H      1 <0>       0.1400
   43 H43      -8.2044    -3.4913     1.4129 H      1 <0>       0.1400
   44 H44      -9.6638    -5.3823     2.0804 H      1 <0>       0.1500
   45 H45      -9.4489    -7.1280     5.5928 H      1 <0>       0.1200
   46 H46     -10.5592    -9.3173     5.7492 H      1 <0>       0.1300
   47 H47     -10.6587   -10.7944     3.7847 H      1 <0>       0.1300
   48 H48      -9.6498   -10.0924     1.6538 H      1 <0>       0.1300
   49 H49      -8.5420    -7.9036     1.4742 H      1 <0>       0.1200
   50 H50      -7.1417    -6.1989     5.2373 H      1 <0>       0.1200
   51 H51      -6.1627    -6.3251     3.7565 H      1 <0>       0.1100
   52 H52      -5.7211    -4.1475     4.7064 H      1 <0>       0.1400
   53 H53      -7.4622    -3.8210     4.9098 H      1 <0>       0.1300
   54 H54      -2.4883     0.1448     0.0132 H      1 <0>       0.1200
@<TRIPOS>BOND
   1    1    2 ar
   2    2    3 ar
   3    2    4 1
   4    4   29 ar
   5    4    5 ar
   6    5    6 ar
   7    5   30 1
   8    6    7 ar
   9    6   31 1
  10    7   28 ar
  11    7    8 1
  12    8    9 1
  13    8   32 1
  14    9   10 2
  15    9   33 1
  16   10   11 1
  17   10   28 1
  18   11   12 1
  19   11   34 1
  20   11   35 1
  21   12   13 1
  22   12   36 1
  23   12   37 1
  24   13   14 1
  25   13   38 1
  26   13   39 1
  27   14   15 1
  28   14   40 1
  29   14   41 1
  30   15   16 1
  31   15   27 1
  32   15   17 1
  33   17   18 1
  34   17   42 1
  35   17   43 1
  36   18   19 2
  37   18   44 1
  38   19   20 1
  39   19   26 1
  40   20   25 ar
  41   20   21 ar
  42   21   22 ar
  43   21   45 1
  44   22   23 ar
  45   22   46 1
  46   23   24 ar
  47   23   47 1
  48   24   25 ar
  49   24   48 1
  50   25   49 1
  51   26   27 1
  52   26   50 1
  53   26   51 1
  54   27   52 1
  55   27   53 1
  56   28   29 ar
  57   29   54 1
