@<TRIPOS>MOLECULE
ZINC000001535471
  60   62    0    0    0
SMALL
USER_CHARGES
NO_NAME
@<TRIPOS>ATOM
    1 C1       -0.0173     1.4248     0.0099 C.3    1 <0>       0.0300
    2 O2        0.0021    -0.0041     0.0020 O.3    1 <0>      -0.3100
    3 C3        0.6058    -0.6071    -1.0557 C.ar   1 <0>       0.1700
    4 C4        1.1728     0.1614    -2.0623 C.ar   1 <0>      -0.2400
    5 C5        1.7869    -0.4511    -3.1383 C.ar   1 <0>      -0.0400
    6 C6        1.8376    -1.8294    -3.2150 C.ar   1 <0>      -0.2300
    7 C7        1.2717    -2.6029    -2.2106 C.ar   1 <0>       0.1500
    8 O8        1.3222    -3.9585    -2.2862 O.3    1 <0>      -0.2200
    9 C9        1.9374    -4.5158    -3.3647 C.ar   1 <0>      -0.0800
   10 C10       1.2208    -4.8097    -4.5261 C.ar   1 <0>       0.4600
   11 N11      -0.1388    -4.5380    -4.6036 N.am   1 <0>      -1.0200
   12 S12      -0.9763    -4.8919    -5.9877 S.o2   1 <0>       2.6900
   13 O13      -2.3290    -4.5334    -5.7409 O.2    1 <0>      -0.9400
   14 O14      -0.2155    -4.3609    -7.0640 O.2    1 <0>      -0.9200
   15 C15      -0.9526    -6.6434    -6.1782 C.ar   1 <0>      -0.6800
   16 C16       0.0720    -7.2483    -6.8818 C.ar   1 <0>       0.0100
   17 C17       0.0906    -8.6225    -7.0313 C.ar   1 <0>      -0.1400
   18 C18      -0.9152    -9.3917    -6.4768 C.ar   1 <0>      -0.0100
   19 C19      -0.8952   -10.8897    -6.6402 C.3    1 <0>      -0.0400
   20 C20       0.3853   -11.4532    -6.0207 C.3    1 <0>      -0.1400
   21 C21      -2.1114   -11.4957    -5.9370 C.3    1 <0>      -0.1500
   22 C22      -0.9391   -11.2410    -8.1286 C.3    1 <0>      -0.1400
   23 C23      -1.9391    -8.7869    -5.7720 C.ar   1 <0>      -0.1500
   24 C24      -1.9556    -7.4131    -5.6193 C.ar   1 <0>      -0.0200
   25 N25       1.8611    -5.3538    -5.5580 N.ar   1 <0>      -0.5700
   26 C26       3.1510    -5.6141    -5.4923 C.ar   1 <0>       0.3900
   27 N27       3.8619    -5.3519    -4.4141 N.ar   1 <0>      -0.5800
   28 C28       3.3001    -4.8029    -3.3415 C.ar   1 <0>       0.4000
   29 O29       4.0408    -4.5365    -2.2368 O.3    1 <0>      -0.2700
   30 C30       5.4288    -4.8720    -2.2900 C.3    1 <0>       0.0700
   31 C31       6.0944    -4.5013    -0.9631 C.3    1 <0>       0.0800
   32 O32       5.5505    -5.3072     0.0841 O.3    1 <0>      -0.5700
   33 C33       0.6605    -1.9906    -1.1270 C.ar   1 <0>      -0.1800
   34 H34       1.0053     1.8021     0.0021 H      1 <0>       0.0600
   35 H35      -0.5445     1.7859    -0.8732 H      1 <0>       0.0600
   36 H36      -0.5275     1.7763     0.9067 H      1 <0>       0.1000
   37 H37       1.1340     1.2392    -2.0050 H      1 <0>       0.1300
   38 H38       2.2277     0.1490    -3.9207 H      1 <0>       0.1300
   39 H39       2.3174    -2.3057    -4.0573 H      1 <0>       0.1200
   40 H40      -0.5979    -4.1410    -3.8470 H      1 <0>       0.4400
   41 H41       0.8578    -6.6473    -7.3151 H      1 <0>       0.1500
   42 H42       0.8908    -9.0950    -7.5816 H      1 <0>       0.1300
   43 H43       0.4166   -11.2029    -4.9603 H      1 <0>       0.0600
   44 H44       0.3998   -12.5367    -6.1389 H      1 <0>       0.0600
   45 H45       1.2518   -11.0215    -6.5217 H      1 <0>       0.0600
   46 H46      -3.0237   -11.0942    -6.3783 H      1 <0>       0.0600
   47 H47      -2.0969   -12.5792    -6.0552 H      1 <0>       0.0600
   48 H48      -2.0801   -11.2454    -4.8766 H      1 <0>       0.0600
   49 H49      -0.0727   -10.8093    -8.6296 H      1 <0>       0.0600
   50 H50      -0.9247   -12.3245    -8.2468 H      1 <0>       0.0600
   51 H51      -1.8514   -10.8395    -8.5699 H      1 <0>       0.0600
   52 H52      -2.7247    -9.3879    -5.3385 H      1 <0>       0.1400
   53 H53      -2.7556    -6.9406    -5.0686 H      1 <0>       0.1400
   54 H54       3.6404    -6.0560    -6.3476 H      1 <0>       0.2200
   55 H55       5.5374    -5.9425    -2.4643 H      1 <0>       0.0800
   56 H56       5.9049    -4.3216    -3.1015 H      1 <0>       0.0900
   57 H57       7.1682    -4.6743    -1.0344 H      1 <0>       0.0700
   58 H58       5.9095    -3.4493    -0.7454 H      1 <0>       0.0600
   59 H59       5.9272    -5.1258     0.9561 H      1 <0>       0.3800
   60 H60       0.2197    -2.5905    -0.3445 H      1 <0>       0.1400
@<TRIPOS>BOND
   1    1    2 1
   2    1   34 1
   3    1   35 1
   4    1   36 1
   5    2    3 1
   6    3   33 ar
   7    3    4 ar
   8    4    5 ar
   9    4   37 1
  10    5    6 ar
  11    5   38 1
  12    6    7 ar
  13    6   39 1
  14    7    8 1
  15    7   33 ar
  16    8    9 1
  17    9   28 ar
  18    9   10 ar
  19   10   11 1
  20   10   25 ar
  21   11   12 am
  22   11   40 1
  23   12   13 2
  24   12   14 2
  25   12   15 1
  26   15   24 ar
  27   15   16 ar
  28   16   17 ar
  29   16   41 1
  30   17   18 ar
  31   17   42 1
  32   18   19 1
  33   18   23 ar
  34   19   20 1
  35   19   21 1
  36   19   22 1
  37   20   43 1
  38   20   44 1
  39   20   45 1
  40   21   46 1
  41   21   47 1
  42   21   48 1
  43   22   49 1
  44   22   50 1
  45   22   51 1
  46   23   24 ar
  47   23   52 1
  48   24   53 1
  49   25   26 ar
  50   26   27 ar
  51   26   54 1
  52   27   28 ar
  53   28   29 1
  54   29   30 1
  55   30   31 1
  56   30   55 1
  57   30   56 1
  58   31   32 1
  59   31   57 1
  60   31   58 1
  61   32   59 1
  62   33   60 1
