@<TRIPOS>MOLECULE
ZINC000013442447
40    43    1     0     0
SMALL
USER_CHARGES
@<TRIPOS>ATOM
1      C1     -0.0184    1.5028    0.0103 C.3      1 ZINC000013442447   -0.1300
2      C2      0.0021   -0.0041    0.0020 C.2      1 ZINC000013442447   -0.1000
3      C3      0.0047   -0.6100   -1.1420 C.2      1 ZINC000013442447   -0.1600
4      C4      0.0141   -2.0985   -1.3052 C.3      1 ZINC000013442447   -0.0400
5      H5      0.7018   -2.3724   -2.1053 H        1 ZINC000013442447    0.1200
6      C6     -1.3920   -2.5924   -1.6493 C.3      1 ZINC000013442447   -0.1100
7      C7     -2.3138   -2.4213   -0.4685 C.2      1 ZINC000013442447    0.2400
8      C8     -1.8608   -2.2455    0.7894 C.2      1 ZINC000013442447   -0.2400
9      C9     -2.7798   -2.1017    1.8476 C.2      1 ZINC000013442447   -0.0500
10     C10    -4.1165   -2.1358    1.5955 C.2      1 ZINC000013442447   -0.2000
11     C11    -4.5558   -2.3141    0.2724 C.2      1 ZINC000013442447    0.5200
12     O12    -5.7501   -2.3442    0.0223 O.2      1 ZINC000013442447   -0.5100
13     N13    -3.6568   -2.4507   -0.7156 N.am     1 ZINC000013442447   -0.6100
14     C14    -0.3953   -2.1863    1.1298 C.3      1 ZINC000013442447    0.1400
15     C15     0.0243   -0.7204    1.3196 C.3      1 ZINC000013442447   -0.1000
16     N16    -0.1467   -2.9010    2.3872 N.4      1 ZINC000013442447   -0.5000
17     H17     0.8336   -2.8380    2.6175 H        1 ZINC000013442447    0.4300
18     H18    -0.6895   -2.4762    3.1242 H        1 ZINC000013442447    0.4200
19     C19    -0.5240   -4.3120    2.2619 C.3      1 ZINC000013442447   -0.0100
20     C20     0.3681   -4.9767    1.2095 C.3      1 ZINC000013442447   -0.1400
21     C21     0.1439   -4.2823   -0.1347 C.3      1 ZINC000013442447   -0.1400
22     C22     0.4459   -2.7854   -0.0003 C.3      1 ZINC000013442447   -0.0900
23     H23     1.5102   -2.6296    0.1759 H        1 ZINC000013442447    0.1100
24     H24     1.0042    1.8801    0.0026 H        1 ZINC000013442447    0.0800
25     H25    -0.5455    1.8639   -0.8728 H        1 ZINC000013442447    0.0700
26     H26    -0.5286    1.8543    0.9071 H        1 ZINC000013442447    0.0700
27     H27    -0.0005   -0.0034   -2.0355 H        1 ZINC000013442447    0.1200
28     H28    -1.7780   -2.0214   -2.4937 H        1 ZINC000013442447    0.1100
29     H29    -1.3469   -3.6469   -1.9216 H        1 ZINC000013442447    0.1200
30     H30    -2.4237   -1.9648    2.8579 H        1 ZINC000013442447    0.1300
31     H31    -4.8291   -2.0279    2.3999 H        1 ZINC000013442447    0.1600
32     H32    -3.9684   -2.5729   -1.6260 H        1 ZINC000013442447    0.4200
33     H33     1.0292   -0.6838    1.7402 H        1 ZINC000013442447    0.1000
34     H34    -0.6695   -0.2317    2.0036 H        1 ZINC000013442447    0.1000
35     H35    -0.3904   -4.8117    3.2214 H        1 ZINC000013442447    0.1400
36     H36    -1.5671   -4.3845    1.9539 H        1 ZINC000013442447    0.1300
37     H37     1.4136   -4.8783    1.5019 H        1 ZINC000013442447    0.0900
38     H38     0.1082   -6.0318    1.1237 H        1 ZINC000013442447    0.1100
39     H39     0.8056   -4.7186   -0.8830 H        1 ZINC000013442447    0.1000
40     H40    -0.8922   -4.4181   -0.4447 H        1 ZINC000013442447    0.0900
@<TRIPOS>BOND
1     1     2     1
2     1     24    1
3     1     25    1
4     1     26    1
5     2     15    1
6     2     3     2
7     3     4     1
8     3     27    1
9     4     5     1
10    4     22    1
11    4     6     1
12    6     7     1
13    6     28    1
14    6     29    1
15    7     13    1
16    7     8     2
17    8     9     1
18    8     14    1
19    9     10    2
20    9     30    1
21    10    11    1
22    10    31    1
23    11    12    2
24    11    13    am
25    13    32    1
26    14    22    1
27    14    15    1
28    14    16    1
29    15    33    1
30    15    34    1
31    16    17    1
32    16    18    1
33    16    19    1
34    19    20    1
35    19    35    1
36    19    36    1
37    20    21    1
38    20    37    1
39    20    38    1
40    21    22    1
41    21    39    1
42    21    40    1
43    22    23    1
@<TRIPOS>SUBSTRUCTURE
1   ZINC000013442447 1     RESIDUE    1   A     ZIN   1
