@<TRIPOS>MOLECULE
ZINC000001488366
47    49    1     0     0
SMALL
USER_CHARGES
@<TRIPOS>ATOM
1      O1      0.6674    1.4905    0.5620 O.2      1 ZINC000001488366   -0.5700
2      C2     -0.1568    1.3458   -0.3157 C.2      1 ZINC000001488366    0.4500
3      N3      0.1098    0.5430   -1.3649 N.am     1 ZINC000001488366   -0.5200
4      O4      1.3903   -0.0466   -1.4978 O.3      1 ZINC000001488366   -0.6800
5      C5     -1.4817    2.0590   -0.2302 C.3      1 ZINC000001488366   -0.0700
6      C6     -2.6042    1.0342   -0.0548 C.3      1 ZINC000001488366   -0.5900
7      S7     -2.3277    0.0894    1.4689 S.o2     1 ZINC000001488366    2.4900
8      O8     -1.1839   -0.7436    1.3385 O.2      1 ZINC000001488366   -0.9000
9      O9     -2.5036    0.9193    2.6089 O.2      1 ZINC000001488366   -0.9300
10     C10    -3.6804   -1.0375    1.5389 C.ar     1 ZINC000001488366   -0.6900
11     C11    -4.8513   -0.6715    2.1768 C.ar     1 ZINC000001488366    0.0100
12     C12    -5.9131   -1.5533    2.2335 C.ar     1 ZINC000001488366   -0.1600
13     C13    -5.8040   -2.8071    1.6493 C.ar     1 ZINC000001488366    0.1700
14     O14    -6.8472   -3.6763    1.7034 O.3      1 ZINC000001488366   -0.2500
15     C15    -6.6532   -4.9359    1.2315 C.ar     1 ZINC000001488366    0.0900
16     C16    -5.7990   -5.8033    1.8972 C.ar     1 ZINC000001488366   -0.1200
17     C17    -5.6036   -7.0833    1.4163 C.ar     1 ZINC000001488366   -0.0900
18     C18    -6.2588   -7.5007    0.2712 C.ar     1 ZINC000001488366   -0.0400
19     Cl19   -6.0110   -9.1098   -0.3315 Cl       1 ZINC000001488366   -0.0600
20     C20    -7.1114   -6.6374   -0.3939 C.ar     1 ZINC000001488366   -0.0900
21     C21    -7.3136   -5.3582    0.0867 C.ar     1 ZINC000001488366   -0.1100
22     C22    -4.6280   -3.1718    1.0095 C.ar     1 ZINC000001488366   -0.2200
23     C23    -3.5711   -2.2843    0.9511 C.ar     1 ZINC000001488366    0.0200
24     C24    -1.4707    3.0190    0.9633 C.3      1 ZINC000001488366   -0.1500
25     C25    -0.3956    4.0859    0.7402 C.3      1 ZINC000001488366    0.0500
26     O26    -0.6555    4.7732   -0.4854 O.3      1 ZINC000001488366   -0.3900
27     C27    -0.6313    3.9337   -1.6416 C.3      1 ZINC000001488366    0.0600
28     C28    -1.7159    2.8607   -1.5142 C.3      1 ZINC000001488366   -0.1300
29     H29    -0.5755    0.3690   -2.0290 H        1 ZINC000001488366    0.3500
30     H30    -3.5618    1.5512    0.0069 H        1 ZINC000001488366    0.1400
31     H31    -2.6123    0.3548   -0.9072 H        1 ZINC000001488366    0.1300
32     H32    -4.9357    0.3046    2.6313 H        1 ZINC000001488366    0.1500
33     H33    -6.8272   -1.2671    2.7324 H        1 ZINC000001488366    0.1400
34     H34    -5.2870   -5.4776    2.7907 H        1 ZINC000001488366    0.1400
35     H35    -4.9388   -7.7588    1.9342 H        1 ZINC000001488366    0.1400
36     H36    -7.6221   -6.9652   -1.2874 H        1 ZINC000001488366    0.1400
37     H37    -7.9794   -4.6848   -0.4325 H        1 ZINC000001488366    0.1400
38     H38    -4.5404   -4.1473    0.5544 H        1 ZINC000001488366    0.1400
39     H39    -2.6555   -2.5676    0.4532 H        1 ZINC000001488366    0.1500
40     H40    -2.4457    3.4979    1.0545 H        1 ZINC000001488366    0.0800
41     H41    -1.2497    2.4642    1.8751 H        1 ZINC000001488366    0.0900
42     H42    -0.4122    4.7968    1.5663 H        1 ZINC000001488366    0.0900
43     H43     0.5837    3.6100    0.6895 H        1 ZINC000001488366    0.0800
44     H44    -0.8176    4.5350   -2.5314 H        1 ZINC000001488366    0.0900
45     H45     0.3449    3.4558   -1.7235 H        1 ZINC000001488366    0.0600
46     H46    -1.6701    2.1926   -2.3743 H        1 ZINC000001488366    0.0800
47     H47    -2.6957    3.3364   -1.4731 H        1 ZINC000001488366    0.0800
@<TRIPOS>BOND
1     1     2     2
2     2     3     am
3     2     5     1
4     3     4     1
5     3     29    1
6     5     28    1
7     5     6     1
8     5     24    1
9     6     7     1
10    6     30    1
11    6     31    1
12    7     8     2
13    7     9     2
14    7     10    1
15    10    23    ar
16    10    11    ar
17    11    12    ar
18    11    32    1
19    12    13    ar
20    12    33    1
21    13    14    1
22    13    22    ar
23    14    15    1
24    15    21    ar
25    15    16    ar
26    16    17    ar
27    16    34    1
28    17    18    ar
29    17    35    1
30    18    19    1
31    18    20    ar
32    20    21    ar
33    20    36    1
34    21    37    1
35    22    23    ar
36    22    38    1
37    23    39    1
38    24    25    1
39    24    40    1
40    24    41    1
41    25    26    1
42    25    42    1
43    25    43    1
44    26    27    1
45    27    28    1
46    27    44    1
47    27    45    1
48    28    46    1
49    28    47    1
@<TRIPOS>SUBSTRUCTURE
1   ZINC000001488366 1     RESIDUE    1   A     ZIN   1
