@<TRIPOS>MOLECULE
ZINC000003812915
76    77    1     0     0
SMALL
USER_CHARGES
@<TRIPOS>ATOM
1      C1     -6.6545   -1.2097    2.6947 C.3      1 ZINC000003812915    0.0200
2      O2     -6.7090   -2.5350    3.2264 O.3      1 ZINC000003812915   -0.3000
3      C3     -5.5719   -3.0199    3.7934 C.ar     1 ZINC000003812915    0.1200
4      C4     -4.4313   -2.2353    3.8420 C.ar     1 ZINC000003812915   -0.1700
5      C5     -3.2761   -2.7298    4.4193 C.ar     1 ZINC000003812915   -0.1000
6      C6     -3.2561   -4.0065    4.9484 C.ar     1 ZINC000003812915   -0.1100
7      C7     -1.9943   -4.5405    5.5759 C.3      1 ZINC000003812915   -0.0900
8      C8     -1.9818   -4.1978    7.0670 C.3      1 ZINC000003812915   -0.0100
9      N9     -0.7518   -4.7184    7.6788 N.4      1 ZINC000003812915   -0.3900
10     H10    -0.6760   -5.7072    7.4925 H        1 ZINC000003812915    0.4200
11     C11     0.4103   -4.0225    7.1103 C.3      1 ZINC000003812915   -0.0600
12     C12    -0.7944   -4.4953    9.1301 C.3      1 ZINC000003812915   -0.0100
13     C13     0.4265   -5.1471    9.7823 C.3      1 ZINC000003812915   -0.1600
14     C14     0.3821   -4.9148   11.2939 C.3      1 ZINC000003812915   -0.1000
15     C15     1.6031   -5.5665   11.9461 C.3      1 ZINC000003812915    0.1000
16     C16     1.5928   -7.0126   11.6714 C.1      1 ZINC000003812915    0.2000
17     N17     1.5848   -8.1286   11.4594 N.1      1 ZINC000003812915   -0.4000
18     C18     1.5594   -5.3377   13.4350 C.ar     1 ZINC000003812915   -0.0200
19     C19     2.6117   -4.7008   14.0657 C.ar     1 ZINC000003812915   -0.2400
20     C20     2.5752   -4.4879   15.4354 C.ar     1 ZINC000003812915    0.1500
21     O21     3.6108   -3.8608   16.0549 O.3      1 ZINC000003812915   -0.3000
22     C22     4.7044   -3.4478   15.2329 C.3      1 ZINC000003812915    0.0200
23     C23     1.4786   -4.9158   16.1742 C.ar     1 ZINC000003812915    0.0400
24     O24     1.4387   -4.7084   17.5187 O.3      1 ZINC000003812915   -0.3100
25     C25     0.8528   -3.4854   17.9693 C.3      1 ZINC000003812915    0.0400
26     C26     0.4226   -5.5558   15.5364 C.ar     1 ZINC000003812915    0.1500
27     O27    -0.6528   -5.9761   16.2549 O.3      1 ZINC000003812915   -0.3000
28     C28    -1.7011   -6.6263   15.5334 C.3      1 ZINC000003812915    0.0200
29     C29     0.4646   -5.7602   14.1655 C.ar     1 ZINC000003812915   -0.2200
30     C30     2.8792   -4.9475   11.3722 C.3      1 ZINC000003812915   -0.0800
31     C31     2.9165   -3.4547   11.7058 C.3      1 ZINC000003812915   -0.1800
32     C32     4.1003   -5.6374   11.9836 C.3      1 ZINC000003812915   -0.1900
33     C33    -4.3914   -4.7947    4.9036 C.ar     1 ZINC000003812915   -0.1700
34     C34    -5.5534   -4.3036    4.3314 C.ar     1 ZINC000003812915    0.1100
35     O35    -6.6708   -5.0774    4.2865 O.3      1 ZINC000003812915   -0.3000
36     C36    -6.5754   -6.3878    4.8485 C.3      1 ZINC000003812915    0.0300
37     H37    -5.8949   -1.1622    1.9145 H        1 ZINC000003812915    0.0600
38     H38    -7.6249   -0.9471    2.2735 H        1 ZINC000003812915    0.1100
39     H39    -6.4023   -0.5090    3.4906 H        1 ZINC000003812915    0.0600
40     H40    -4.4442   -1.2377    3.4287 H        1 ZINC000003812915    0.1400
41     H41    -2.3875   -2.1171    4.4566 H        1 ZINC000003812915    0.1300
42     H42    -1.9565   -5.6227    5.4515 H        1 ZINC000003812915    0.0900
43     H43    -1.1284   -4.0887    5.0920 H        1 ZINC000003812915    0.1000
44     H44    -2.0196   -3.1156    7.1915 H        1 ZINC000003812915    0.1300
45     H45    -2.8477   -4.6497    7.5510 H        1 ZINC000003812915    0.1300
46     H46     1.3229   -4.4088    7.5642 H        1 ZINC000003812915    0.1200
47     H47     0.4419   -4.1880    6.0334 H        1 ZINC000003812915    0.1300
48     H48     0.3283   -2.9544    7.3115 H        1 ZINC000003812915    0.1300
49     H49    -0.7868   -3.4245    9.3335 H        1 ZINC000003812915    0.1400
50     H50    -1.7035   -4.9363    9.5389 H        1 ZINC000003812915    0.1300
51     H51     0.4189   -6.2179    9.5789 H        1 ZINC000003812915    0.0900
52     H52     1.3356   -4.7061    9.3735 H        1 ZINC000003812915    0.1000
53     H53     0.3898   -3.8439   11.4973 H        1 ZINC000003812915    0.1000
54     H54    -0.5269   -5.3558   11.7028 H        1 ZINC000003812915    0.0900
55     H55     3.4637   -4.3688   13.4909 H        1 ZINC000003812915    0.1700
56     H56     4.3472   -2.7474   14.4780 H        1 ZINC000003812915    0.0600
57     H57     5.4600   -2.9623   15.8505 H        1 ZINC000003812915    0.1100
58     H58     5.1400   -4.3188   14.7433 H        1 ZINC000003812915    0.0600
59     H59    -0.1831   -3.4336   17.6341 H        1 ZINC000003812915    0.0500
60     H60     0.8848   -3.4468   19.0581 H        1 ZINC000003812915    0.1000
61     H61     1.4099   -2.6430   17.5594 H        1 ZINC000003812915    0.0500
62     H62    -2.4956   -6.9098   16.2237 H        1 ZINC000003812915    0.1100
63     H63    -2.0996   -5.9467   14.7802 H        1 ZINC000003812915    0.0600
64     H64    -1.3077   -7.5184   15.0461 H        1 ZINC000003812915    0.0600
65     H65    -0.3558   -6.2571   13.6690 H        1 ZINC000003812915    0.1300
66     H66     2.8917   -5.0784   10.2902 H        1 ZINC000003812915    0.0800
67     H67     2.5430   -3.2991   12.7179 H        1 ZINC000003812915    0.0900
68     H68     3.9424   -3.0927   11.6374 H        1 ZINC000003812915    0.0700
69     H69     2.2908   -2.9089   10.9996 H        1 ZINC000003812915    0.0600
70     H70     4.2736   -6.5863   11.4761 H        1 ZINC000003812915    0.0600
71     H71     4.9753   -4.9979   11.8670 H        1 ZINC000003812915    0.0700
72     H72     3.9221   -5.8194   13.0435 H        1 ZINC000003812915    0.0800
73     H73    -4.3731   -5.7920    5.3177 H        1 ZINC000003812915    0.1400
74     H74    -6.3136   -6.3124    5.9039 H        1 ZINC000003812915    0.0500
75     H75    -7.5337   -6.8972    4.7474 H        1 ZINC000003812915    0.1100
76     H76    -5.8061   -6.9535    4.3228 H        1 ZINC000003812915    0.0600
@<TRIPOS>BOND
1     1     2     1
2     1     37    1
3     1     38    1
4     1     39    1
5     2     3     1
6     3     34    ar
7     3     4     ar
8     4     5     ar
9     4     40    1
10    5     6     ar
11    5     41    1
12    6     7     1
13    6     33    ar
14    7     8     1
15    7     42    1
16    7     43    1
17    8     9     1
18    8     44    1
19    8     45    1
20    9     10    1
21    9     11    1
22    9     12    1
23    11    46    1
24    11    47    1
25    11    48    1
26    12    13    1
27    12    49    1
28    12    50    1
29    13    14    1
30    13    51    1
31    13    52    1
32    14    15    1
33    14    53    1
34    14    54    1
35    15    16    1
36    15    18    1
37    15    30    1
38    16    17    3
39    18    29    ar
40    18    19    ar
41    19    20    ar
42    19    55    1
43    20    21    1
44    20    23    ar
45    21    22    1
46    22    56    1
47    22    57    1
48    22    58    1
49    23    24    1
50    23    26    ar
51    24    25    1
52    25    59    1
53    25    60    1
54    25    61    1
55    26    27    1
56    26    29    ar
57    27    28    1
58    28    62    1
59    28    63    1
60    28    64    1
61    29    65    1
62    30    31    1
63    30    32    1
64    30    66    1
65    31    67    1
66    31    68    1
67    31    69    1
68    32    70    1
69    32    71    1
70    32    72    1
71    33    34    ar
72    33    73    1
73    34    35    1
74    35    36    1
75    36    74    1
76    36    75    1
77    36    76    1
@<TRIPOS>SUBSTRUCTURE
1   ZINC000003812915 1     RESIDUE    1   A     ZIN   1
