@<TRIPOS>MOLECULE
ZINC000006296476
59    62    1     0     0
SMALL
USER_CHARGES
@<TRIPOS>ATOM
1      C1     -0.0972    1.7075   -2.4814 C.3      1 ZINC000006296476   -0.1800
2      C2     -0.0266    0.9529   -1.1523 C.3      1 ZINC000006296476    0.1100
3      N3      0.6548   -0.3283   -1.3536 N.am     1 ZINC000006296476   -0.9500
4      C4      2.0494   -0.3919   -1.3103 C.ar     1 ZINC000006296476    0.1500
5      C5      2.7745   -0.5780   -2.4804 C.ar     1 ZINC000006296476   -0.1200
6      C6      4.1534   -0.6400   -2.4340 C.ar     1 ZINC000006296476   -0.1000
7      C7      4.8122   -0.5175   -1.2244 C.ar     1 ZINC000006296476   -0.1200
8      C8      4.0935   -0.3322   -0.0576 C.ar     1 ZINC000006296476   -0.1100
9      C9      2.7147   -0.2635   -0.0976 C.ar     1 ZINC000006296476   -0.1200
10     S10    -0.2284   -1.7010   -1.6327 S.o2     1 ZINC000006296476    2.6900
11     O11     0.6411   -2.7960   -1.3796 O.2      1 ZINC000006296476   -0.9500
12     O12    -1.4691   -1.5229   -0.9631 O.2      1 ZINC000006296476   -0.9600
13     C13    -0.5946   -1.7443   -3.3557 C.ar     1 ZINC000006296476   -0.7400
14     C14    -1.6772   -1.0207   -3.8471 C.ar     1 ZINC000006296476   -0.0100
15     C15    -1.9864   -1.0330   -5.1740 C.ar     1 ZINC000006296476   -0.1500
16     C16    -1.2052   -1.7852   -6.0659 C.ar     1 ZINC000006296476    0.2300
17     N17    -1.4918   -1.8105   -7.3748 N.ar     1 ZINC000006296476   -0.5900
18     C18    -0.7795   -2.5029   -8.2258 C.ar     1 ZINC000006296476    0.2200
19     C19     0.3290   -3.2609   -7.8136 C.ar     1 ZINC000006296476   -0.3800
20     C20     1.1118   -4.0301   -8.7969 C.2      1 ZINC000006296476    0.5800
21     O21     2.0703   -4.6842   -8.4333 O.2      1 ZINC000006296476   -0.5300
22     N22     0.7654   -4.0087  -10.0992 N.am     1 ZINC000006296476   -0.7400
23     C23     1.5436   -4.7734  -11.0768 C.3      1 ZINC000006296476    0.1800
24     C24     0.9530   -4.5814  -12.4499 C.ar     1 ZINC000006296476   -0.1300
25     C25     0.1230   -5.5463  -12.9865 C.ar     1 ZINC000006296476   -0.0600
26     C26    -0.4188   -5.3710  -14.2466 C.ar     1 ZINC000006296476   -0.1600
27     C27    -0.1319   -4.2298  -14.9723 C.ar     1 ZINC000006296476   -0.0800
28     C28     0.6974   -3.2614  -14.4398 C.ar     1 ZINC000006296476   -0.2100
29     C29     1.2380   -3.4326  -13.1739 C.ar     1 ZINC000006296476    0.1400
30     O30     2.0539   -2.4815  -12.6480 O.3      1 ZINC000006296476   -0.3000
31     C31     2.3125   -1.3304  -13.4543 C.3      1 ZINC000006296476    0.0300
32     C32     0.6828   -3.2778   -6.4597 C.ar     1 ZINC000006296476    0.3500
33     O33     1.7429   -3.9955   -6.0236 O.3      1 ZINC000006296476   -0.6100
34     C34    -0.1047   -2.5203   -5.5630 C.ar     1 ZINC000006296476   -0.2200
35     C35     0.1890   -2.4817   -4.1924 C.ar     1 ZINC000006296476    0.0800
36     H36     0.9123    1.8870   -2.8513 H        1 ZINC000006296476    0.0600
37     H37    -0.6499    1.1122   -3.2082 H        1 ZINC000006296476    0.0700
38     H38    -0.6042    2.6607   -2.3316 H        1 ZINC000006296476    0.0700
39     H39     0.5261    1.5481   -0.4255 H        1 ZINC000006296476    0.0800
40     H40    -1.0361    0.7733   -0.7824 H        1 ZINC000006296476    0.1000
41     H41     2.2605   -0.6744   -3.4254 H        1 ZINC000006296476    0.1300
42     H42     4.7177   -0.7846   -3.3434 H        1 ZINC000006296476    0.1300
43     H43     5.8906   -0.5671   -1.1908 H        1 ZINC000006296476    0.1200
44     H44     4.6112   -0.2369    0.8854 H        1 ZINC000006296476    0.1200
45     H45     2.1540   -0.1185    0.8139 H        1 ZINC000006296476    0.1200
46     H46    -2.2820   -0.4405   -3.1659 H        1 ZINC000006296476    0.1300
47     H47    -2.8301   -0.4661   -5.5387 H        1 ZINC000006296476    0.1300
48     H48    -1.0506   -2.4919   -9.2712 H        1 ZINC000006296476    0.1300
49     H49     0.0008   -3.4869  -10.3892 H        1 ZINC000006296476    0.3900
50     H50     2.5759   -4.4236  -11.0732 H        1 ZINC000006296476    0.0700
51     H51     1.5174   -5.8311  -10.8147 H        1 ZINC000006296476    0.0700
52     H52    -0.1026   -6.4387  -12.4215 H        1 ZINC000006296476    0.1300
53     H53    -1.0670   -6.1269  -14.6647 H        1 ZINC000006296476    0.1200
54     H54    -0.5560   -4.0953  -15.9564 H        1 ZINC000006296476    0.1200
55     H55     0.9216   -2.3703  -15.0073 H        1 ZINC000006296476    0.1300
56     H56     2.7852   -1.6388  -14.3868 H        1 ZINC000006296476    0.0500
57     H57     1.3736   -0.8221  -13.6737 H        1 ZINC000006296476    0.0600
58     H58     2.9760   -0.6524  -12.9175 H        1 ZINC000006296476    0.1000
59     H59     1.0294   -3.0360   -3.8014 H        1 ZINC000006296476    0.1400
@<TRIPOS>BOND
1     1     2     1
2     1     36    1
3     1     37    1
4     1     38    1
5     2     3     1
6     2     39    1
7     2     40    1
8     3     4     1
9     3     10    am
10    4     9     ar
11    4     5     ar
12    5     6     ar
13    5     41    1
14    6     7     ar
15    6     42    1
16    7     8     ar
17    7     43    1
18    8     9     ar
19    8     44    1
20    9     45    1
21    10    11    2
22    10    12    2
23    10    13    1
24    13    35    ar
25    13    14    ar
26    14    15    ar
27    14    46    1
28    15    16    ar
29    15    47    1
30    16    34    ar
31    16    17    ar
32    17    18    ar
33    18    19    ar
34    18    48    1
35    19    20    1
36    19    32    ar
37    20    21    2
38    20    22    am
39    22    23    1
40    22    49    1
41    23    24    1
42    23    50    1
43    23    51    1
44    24    29    ar
45    24    25    ar
46    25    26    ar
47    25    52    1
48    26    27    ar
49    26    53    1
50    27    28    ar
51    27    54    1
52    28    29    ar
53    28    55    1
54    29    30    1
55    30    31    1
56    31    56    1
57    31    57    1
58    31    58    1
59    32    33    1
60    32    34    ar
61    34    35    ar
62    35    59    1
@<TRIPOS>SUBSTRUCTURE
1   ZINC000006296476 1     RESIDUE    1   A     ZIN   1
