@<TRIPOS>MOLECULE
ZINC000038343653
  35   35    0    0    0
SMALL
USER_CHARGES
NO_NAME
@<TRIPOS>ATOM
    1 C1       -0.0187     1.5258     0.0104 C.3    1 <0>      -0.1500
    2 C2        0.0021    -0.0041     0.0020 C.3    1 <0>      -0.0900
    3 C3        0.7421    -0.5109     1.2415 C.3    1 <0>      -0.1500
    4 C4       -1.4117    -0.5257     0.0127 C.2    1 <0>       0.0600
    5 C5       -1.8538    -1.3049    -1.0031 C.2    1 <0>      -0.0700
    6 N6       -1.0227    -1.6228    -2.0312 N.2    1 <0>      -0.3800
    7 C7       -1.4405    -2.3705    -3.0089 C.2    1 <0>       0.1500
    8 C8       -0.5039    -2.7121    -4.1389 C.3    1 <0>      -0.0600
    9 C9        0.8569    -2.0592    -3.8886 C.3    1 <0>      -0.0800
   10 C10       1.4927    -2.6688    -2.6376 C.3    1 <0>      -0.1500
   11 C11       1.7682    -2.3014    -5.0935 C.3    1 <0>      -0.1500
   12 C12      -2.8158    -2.8863    -3.0237 C.2    1 <0>       0.5300
   13 O13      -3.1909    -3.5846    -3.9460 O.2    1 <0>      -0.4500
   14 N14      -3.6637    -2.5891    -2.0187 N.am   1 <0>      -0.4200
   15 O15      -4.9891    -3.0870    -2.0334 O.3    1 <0>      -0.3000
   16 C16      -3.2390    -1.8178    -0.9958 C.2    1 <0>       0.5200
   17 O17      -3.9916    -1.5408    -0.0820 O.2    1 <0>      -0.4900
   18 H18       1.0039     1.9031     0.0027 H      1 <0>       0.0700
   19 H19      -0.5459     1.8868    -0.8726 H      1 <0>       0.0600
   20 H20      -0.5289     1.8773     0.9072 H      1 <0>       0.0600
   21 H21       0.5123    -0.3556    -0.8948 H      1 <0>       0.1100
   22 H22       0.2319    -0.1594     2.1383 H      1 <0>       0.0600
   23 H23       0.7568    -1.6008     1.2356 H      1 <0>       0.0600
   24 H24       1.7647    -0.1336     1.2338 H      1 <0>       0.0700
   25 H25      -2.0724    -0.2782     0.8304 H      1 <0>       0.1500
   26 H26      -0.3828    -3.7939    -4.1961 H      1 <0>       0.1000
   27 H27      -0.9170    -2.3427    -5.0775 H      1 <0>       0.1000
   28 H28       0.7242    -0.9871    -3.7431 H      1 <0>       0.0800
   29 H29       2.4622    -2.2036    -2.4592 H      1 <0>       0.0500
   30 H30       0.8435    -2.4963    -1.7792 H      1 <0>       0.0700
   31 H31       1.6254    -3.7409    -2.7831 H      1 <0>       0.0500
   32 H32       1.3153    -1.8671    -5.9847 H      1 <0>       0.0600
   33 H33       2.7377    -1.8362    -4.9151 H      1 <0>       0.0600
   34 H34       1.9009    -3.3735    -5.2390 H      1 <0>       0.0600
   35 H35      -5.5186    -2.8189    -1.2699 H      1 <0>       0.4000
@<TRIPOS>BOND
   1    1    2 1
   2    1   18 1
   3    1   19 1
   4    1   20 1
   5    2    3 1
   6    2    4 1
   7    2   21 1
   8    3   22 1
   9    3   23 1
  10    3   24 1
  11    4    5 2
  12    4   25 1
  13    5   16 1
  14    5    6 1
  15    6    7 2
  16    7    8 1
  17    7   12 1
  18    8    9 1
  19    8   26 1
  20    8   27 1
  21    9   10 1
  22    9   11 1
  23    9   28 1
  24   10   29 1
  25   10   30 1
  26   10   31 1
  27   11   32 1
  28   11   33 1
  29   11   34 1
  30   12   13 2
  31   12   14 am
  32   14   15 1
  33   14   16 am
  34   15   35 1
  35   16   17 2
