@<TRIPOS>MOLECULE
ZINC000001481826
39    41    1     0     0
SMALL
USER_CHARGES
@<TRIPOS>ATOM
1      C1     -0.0167    1.3801    0.0096 C.ar     1 ZINC000001481826   -0.1700
2      C2      1.1800    2.0731    0.0019 C.ar     1 ZINC000001481826    0.1200
3      N3      2.3353    1.4360   -0.0125 N.ar     1 ZINC000001481826   -0.4800
4      C4      2.4041    0.1210   -0.0202 C.ar     1 ZINC000001481826    0.1600
5      C5      1.2423   -0.6503   -0.0138 C.ar     1 ZINC000001481826   -0.1000
6      C6      1.3205   -2.1290   -0.0229 C.2      1 ZINC000001481826    0.4300
7      N7      2.4808   -2.7044   -0.0318 N.2      1 ZINC000001481826   -0.5500
8      C8      2.6446   -4.1548   -0.0620 C.3      1 ZINC000001481826    0.0600
9      H9      2.8606   -4.4719   -1.0823 H        1 ZINC000001481826    0.0900
10     C10     3.8089   -4.5514    0.8480 C.3      1 ZINC000001481826    0.0800
11     N11     5.0156   -3.8151    0.4483 N.3      1 ZINC000001481826   -0.5200
12     C12     5.1912   -3.8441   -1.0093 C.3      1 ZINC000001481826    0.0600
13     C13     6.3699   -2.9498   -1.4003 C.3      1 ZINC000001481826   -0.1200
14     C14     7.6381   -3.4522   -0.7046 C.3      1 ZINC000001481826   -0.1200
15     C15     7.4119   -3.4579    0.8097 C.3      1 ZINC000001481826   -0.1200
16     C16     6.2029   -4.3374    1.1367 C.3      1 ZINC000001481826    0.0500
17     C17     1.3695   -4.8473    0.4238 C.3      1 ZINC000001481826    0.0000
18     O18     0.2478   -4.2691   -0.2609 O.3      1 ZINC000001481826   -0.1300
19     N19     0.1560   -2.8690   -0.0162 N.pl3    1 ZINC000001481826   -0.6200
20     C20     0.0021   -0.0041    0.0020 C.ar     1 ZINC000001481826   -0.0600
21     H21    -0.9559    1.9131    0.0259 H        1 ZINC000001481826    0.1400
22     H22     1.1687    3.1530    0.0075 H        1 ZINC000001481826    0.1600
23     H23     3.3688   -0.3645   -0.0321 H        1 ZINC000001481826    0.1800
24     H24     3.5611   -4.3093    1.8814 H        1 ZINC000001481826    0.0800
25     H25     3.9908   -5.6225    0.7593 H        1 ZINC000001481826    0.0400
26     H26     5.3886   -4.8666   -1.3311 H        1 ZINC000001481826    0.0200
27     H27     4.2838   -3.4805   -1.4917 H        1 ZINC000001481826    0.0800
28     H28     6.5098   -2.9838   -2.4808 H        1 ZINC000001481826    0.0600
29     H29     6.1671   -1.9245   -1.0911 H        1 ZINC000001481826    0.0700
30     H30     7.8630   -4.4636   -1.0432 H        1 ZINC000001481826    0.0600
31     H31     8.4716   -2.7925   -0.9459 H        1 ZINC000001481826    0.0600
32     H32     8.2962   -3.8550    1.3083 H        1 ZINC000001481826    0.0600
33     H33     7.2255   -2.4406    1.1537 H        1 ZINC000001481826    0.0700
34     H34     6.0305   -4.3322    2.2129 H        1 ZINC000001481826    0.0700
35     H35     6.3957   -5.3577    0.8048 H        1 ZINC000001481826    0.0300
36     H36     1.4243   -5.9131    0.2019 H        1 ZINC000001481826    0.1200
37     H37     1.2589   -4.6992    1.4980 H        1 ZINC000001481826    0.0700
38     H38    -0.7025   -2.4468    0.1440 H        1 ZINC000001481826    0.4300
39     H39    -0.9175   -0.5704    0.0078 H        1 ZINC000001481826    0.1300
@<TRIPOS>BOND
1     1     20    ar
2     1     2     ar
3     1     21    1
4     2     3     ar
5     2     22    1
6     3     4     ar
7     4     5     ar
8     4     23    1
9     5     6     1
10    5     20    ar
11    6     19    1
12    6     7     2
13    7     8     1
14    8     9     1
15    8     10    1
16    8     17    1
17    10    11    1
18    10    24    1
19    10    25    1
20    11    16    1
21    11    12    1
22    12    13    1
23    12    26    1
24    12    27    1
25    13    14    1
26    13    28    1
27    13    29    1
28    14    15    1
29    14    30    1
30    14    31    1
31    15    16    1
32    15    32    1
33    15    33    1
34    16    34    1
35    16    35    1
36    17    18    1
37    17    36    1
38    17    37    1
39    18    19    1
40    19    38    1
41    20    39    1
@<TRIPOS>SUBSTRUCTURE
1   ZINC000001481826 1     RESIDUE    1   A     ZIN   1
