@<TRIPOS>MOLECULE
ZINC000000007724
32    34    1     0     0
SMALL
USER_CHARGES
@<TRIPOS>ATOM
1      C1      0.0272    1.5032    0.0065 C.3      1 ZINC000000007724   -0.1200
2      C2      0.0362   -0.0037   -0.0007 C.ar     1 ZINC000000007724   -0.0500
3      C3      1.2389   -0.6864   -0.0145 C.ar     1 ZINC000000007724   -0.1300
4      C4      1.2510   -2.0671   -0.0216 C.ar     1 ZINC000000007724   -0.0600
5      C5      0.0526   -2.7708   -0.0145 C.ar     1 ZINC000000007724   -0.1700
6      S6      0.0630   -4.5328   -0.0229 S.3      1 ZINC000000007724    0.0400
7      C7      0.2262   -4.9364    1.6845 C.ar     1 ZINC000000007724   -0.1100
8      C8      0.3963   -6.2891    2.0934 C.ar     1 ZINC000000007724   -0.0300
9      C9      0.4634   -7.4572    1.3270 C.2      1 ZINC000000007724   -0.0400
10     C10     0.6309   -8.5917    2.0182 C.2      1 ZINC000000007724   -0.2100
11     C11     0.7276   -9.9301    1.4180 C.2      1 ZINC000000007724    0.5900
12     N12     0.8963  -11.0111    2.2051 N.am     1 ZINC000000007724   -0.8400
13     O13     0.6553  -10.0620    0.2108 O.2      1 ZINC000000007724   -0.5200
14     S14     0.7191   -8.2607    3.7398 S.3      1 ZINC000000007724    0.1700
15     C15     0.5200   -6.5347    3.4685 C.ar     1 ZINC000000007724   -0.1800
16     C16     0.4717   -5.4608    4.3605 C.ar     1 ZINC000000007724    0.1500
17     N17     0.3122   -4.2300    3.9290 N.ar     1 ZINC000000007724   -0.4400
18     C18     0.1967   -3.9446    2.6441 C.ar     1 ZINC000000007724    0.0800
19     C19    -1.1541   -2.0815   -0.0002 C.ar     1 ZINC000000007724   -0.0600
20     C20    -1.1583   -0.7007    0.0121 C.ar     1 ZINC000000007724   -0.1300
21     H21     0.0390    1.8617    1.0358 H        1 ZINC000000007724    0.0800
22     H22     0.9080    1.8743   -0.5176 H        1 ZINC000000007724    0.0700
23     H23    -0.8717    1.8636   -0.4935 H        1 ZINC000000007724    0.0700
24     H24     2.1699   -0.1389   -0.0201 H        1 ZINC000000007724    0.1300
25     H25     2.1905   -2.5996   -0.0331 H        1 ZINC000000007724    0.1300
26     H26     0.3850   -7.4449    0.2500 H        1 ZINC000000007724    0.1600
27     H27     0.9540  -10.9059    3.1676 H        1 ZINC000000007724    0.4000
28     H28     0.9601  -11.8942    1.8090 H        1 ZINC000000007724    0.4100
29     H29     0.5664   -5.6449    5.4204 H        1 ZINC000000007724    0.1700
30     H30     0.0675   -2.9165    2.3395 H        1 ZINC000000007724    0.1600
31     H31    -2.0873   -2.6251    0.0051 H        1 ZINC000000007724    0.1300
32     H32    -2.0957   -0.1644    0.0236 H        1 ZINC000000007724    0.1300
@<TRIPOS>BOND
1     1     2     1
2     1     21    1
3     1     22    1
4     1     23    1
5     2     20    ar
6     2     3     ar
7     3     4     ar
8     3     24    1
9     4     5     ar
10    4     25    1
11    5     6     1
12    5     19    ar
13    6     7     1
14    7     18    ar
15    7     8     ar
16    8     15    ar
17    8     9     1
18    9     10    2
19    9     26    1
20    10    11    1
21    10    14    1
22    11    12    am
23    11    13    2
24    12    27    1
25    12    28    1
26    14    15    1
27    15    16    ar
28    16    17    ar
29    16    29    1
30    17    18    ar
31    18    30    1
32    19    20    ar
33    19    31    1
34    20    32    1
@<TRIPOS>SUBSTRUCTURE
1   ZINC000000007724 1     RESIDUE    1   A     ZIN   1
