@<TRIPOS>MOLECULE
ZINC000003802871
57    64    1     0     0
SMALL
USER_CHARGES
@<TRIPOS>ATOM
1      O1     -0.0164    1.3557    0.0095 O.3      1 ZINC000003802871   -0.4800
2      C2      0.0021   -0.0041    0.0020 C.ar     1 ZINC000003802871    0.0900
3      C3      0.0064   -0.7250   -1.1897 C.ar     1 ZINC000003802871   -0.1100
4      C4     -0.0097   -2.1094   -1.2392 C.ar     1 ZINC000003802871   -0.1300
5      C5     -0.0133   -2.8485   -0.0696 C.ar     1 ZINC000003802871   -0.0300
6      C6     -0.1632   -4.3338   -0.0011 C.3      1 ZINC000003802871   -0.1100
7      C7     -0.1398   -4.8817    1.4166 C.3      1 ZINC000003802871    0.0700
8      H8     -0.7286   -5.7988    1.4299 H        1 ZINC000003802871    0.0900
9      N9      1.2304   -5.2241    1.8112 N.3      1 ZINC000003802871   -0.5200
10     C10     1.7904   -6.2557    0.9280 C.3      1 ZINC000003802871    0.0800
11     C11     3.1103   -6.7645    1.5109 C.3      1 ZINC000003802871   -0.1500
12     C12     3.1768   -8.2339    1.9320 C.3      1 ZINC000003802871   -0.1700
13     C13     3.9127   -7.7642    0.6756 C.3      1 ZINC000003802871   -0.1800
14     C14     2.0973   -4.0403    1.8532 C.3      1 ZINC000003802871    0.0500
15     C15     1.5482   -3.0412    2.8773 C.3      1 ZINC000003802871   -0.1000
16     C16     0.1135   -2.6839    2.4982 C.3      1 ZINC000003802871   -0.0100
17     C17     0.0716   -2.1241    1.0986 C.ar     1 ZINC000003802871   -0.1600
18     C18     0.0234   -0.7418    1.1921 C.ar     1 ZINC000003802871    0.1000
19     O19    -0.0319   -0.3586    2.4850 O.3      1 ZINC000003802871   -0.2900
20     C20    -0.3947   -1.4999    3.3135 C.3      1 ZINC000003802871    0.1600
21     H21     0.0976   -1.4553    4.2850 H        1 ZINC000003802871    0.1300
22     C22    -1.8932   -1.5137    3.4650 C.2      1 ZINC000003802871    0.0500
23     C23    -2.7065   -2.4238    2.8889 C.2      1 ZINC000003802871   -0.1300
24     C24    -2.2209   -3.5514    2.0161 C.3      1 ZINC000003802871   -0.0700
25     C25    -0.7345   -3.9261    2.4605 C.3      1 ZINC000003802871    0.1700
26     O26    -0.7504   -4.5586    3.7418 O.3      1 ZINC000003802871   -0.5300
27     C27    -4.0630   -2.0929    3.2710 C.ar     1 ZINC000003802871   -0.1000
28     C28    -5.3007   -2.6723    2.9771 C.ar     1 ZINC000003802871   -0.0600
29     C29    -6.4108   -2.0762    3.5235 C.ar     1 ZINC000003802871   -0.1500
30     C30    -6.3216   -0.9539    4.3300 C.ar     1 ZINC000003802871   -0.1000
31     C31    -5.1094   -0.3605    4.6384 C.ar     1 ZINC000003802871   -0.1300
32     C32    -3.9657   -0.9436    4.0976 C.ar     1 ZINC000003802871    0.1100
33     N33    -2.6423   -0.6244    4.1944 N.pl3    1 ZINC000003802871   -0.5700
34     H34     0.8616    1.7610    0.0033 H        1 ZINC000003802871    0.3900
35     H35     0.0229   -0.1780   -2.1208 H        1 ZINC000003802871    0.1300
36     H36    -0.0200   -2.6135   -2.1942 H        1 ZINC000003802871    0.1300
37     H37    -1.1091   -4.6109   -0.4666 H        1 ZINC000003802871    0.0900
38     H38     0.6481   -4.7928   -0.5660 H        1 ZINC000003802871    0.0900
39     H39     1.0867   -7.0839    0.8448 H        1 ZINC000003802871    0.0800
40     H40     1.9693   -5.8304   -0.0596 H        1 ZINC000003802871    0.0400
41     H41     3.6696   -6.0438    2.1075 H        1 ZINC000003802871    0.1100
42     H42     3.7797   -8.4802    2.8060 H        1 ZINC000003802871    0.0900
43     H43     2.2801   -8.8381    1.7938 H        1 ZINC000003802871    0.0900
44     H44     3.5003   -8.0594   -0.2892 H        1 ZINC000003802871    0.0900
45     H45     4.9999   -7.7014    0.7230 H        1 ZINC000003802871    0.0900
46     H46     3.1056   -4.3383    2.1408 H        1 ZINC000003802871    0.0800
47     H47     2.1233   -3.5738    0.8684 H        1 ZINC000003802871    0.0400
48     H48     1.5623   -3.4910    3.8700 H        1 ZINC000003802871    0.0900
49     H49     2.1619   -2.1404    2.8740 H        1 ZINC000003802871    0.0700
50     H50    -2.8780   -4.4133    2.1320 H        1 ZINC000003802871    0.0800
51     H51    -2.2129   -3.2308    0.9744 H        1 ZINC000003802871    0.0800
52     H52    -1.2657   -5.3764    3.7704 H        1 ZINC000003802871    0.3800
53     H53    -5.3803   -3.5476    2.3495 H        1 ZINC000003802871    0.1300
54     H54    -7.3844   -2.4958    3.3173 H        1 ZINC000003802871    0.1200
55     H55    -7.2286   -0.5268    4.7316 H        1 ZINC000003802871    0.1200
56     H56    -5.0530    0.5144    5.2691 H        1 ZINC000003802871    0.1300
57     H57    -2.2844    0.1196    4.7034 H        1 ZINC000003802871    0.4200
@<TRIPOS>BOND
1     1     2     1
2     1     34    1
3     2     18    ar
4     2     3     ar
5     3     4     ar
6     3     35    1
7     4     5     ar
8     4     36    1
9     5     17    ar
10    5     6     1
11    6     7     1
12    6     37    1
13    6     38    1
14    7     8     1
15    7     25    1
16    7     9     1
17    9     10    1
18    9     14    1
19    10    11    1
20    10    39    1
21    10    40    1
22    11    13    1
23    11    12    1
24    11    41    1
25    12    13    1
26    12    42    1
27    12    43    1
28    13    44    1
29    13    45    1
30    14    15    1
31    14    46    1
32    14    47    1
33    15    16    1
34    15    48    1
35    15    49    1
36    16    20    1
37    16    25    1
38    16    17    1
39    17    18    ar
40    18    19    1
41    19    20    1
42    20    21    1
43    20    22    1
44    22    33    1
45    22    23    2
46    23    24    1
47    23    27    1
48    24    25    1
49    24    50    1
50    24    51    1
51    25    26    1
52    26    52    1
53    27    32    ar
54    27    28    ar
55    28    29    ar
56    28    53    1
57    29    30    ar
58    29    54    1
59    30    31    ar
60    30    55    1
61    31    32    ar
62    31    56    1
63    32    33    1
64    33    57    1
@<TRIPOS>SUBSTRUCTURE
1   ZINC000003802871 1     RESIDUE    1   A     ZIN   1
