@<TRIPOS>MOLECULE
ZINC000001554851
54    56    1     0     0
SMALL
USER_CHARGES
@<TRIPOS>ATOM
1      O1     -0.1695    0.0516   -1.1599 O.co2    1 ZINC000001554851   -0.7000
2      C2     -0.1039    1.2007   -0.7578 C.2      1 ZINC000001554851    0.4900
3      O3      0.9699    1.7776   -0.7332 O.co2    1 ZINC000001554851   -0.7000
4      C4     -1.3511    1.9101   -0.2969 C.3      1 ZINC000001554851   -0.1700
5      C5     -2.5520    0.9723   -0.4357 C.3      1 ZINC000001554851   -0.0900
6      C6     -3.8182    1.6925    0.0322 C.3      1 ZINC000001554851    0.1200
7      H7     -3.6648    2.0796    1.0396 H        1 ZINC000001554851    0.1100
8      N8     -4.1134    2.8020   -0.8777 N.am     1 ZINC000001554851   -0.7000
9      C9     -3.5209    3.9988   -0.6955 C.2      1 ZINC000001554851    0.5600
10     O10    -2.7416    4.1575    0.2238 O.2      1 ZINC000001554851   -0.5100
11     C11    -3.8188    5.1186   -1.6138 C.ar     1 ZINC000001554851   -0.1000
12     C12    -4.7175    4.9411   -2.6666 C.ar     1 ZINC000001554851   -0.0700
13     C13    -4.9921    5.9908   -3.5207 C.ar     1 ZINC000001554851   -0.0300
14     Cl14   -6.1101    5.7722   -4.8306 Cl       1 ZINC000001554851   -0.0500
15     C15    -4.3779    7.2175   -3.3342 C.ar     1 ZINC000001554851   -0.0800
16     C16    -3.4855    7.3997   -2.2915 C.ar     1 ZINC000001554851   -0.0300
17     Cl17   -2.7203    8.9415   -2.0656 Cl       1 ZINC000001554851   -0.0500
18     C18    -3.2069    6.3590   -1.4277 C.ar     1 ZINC000001554851   -0.0400
19     C19    -4.9738    0.7252    0.0364 C.2      1 ZINC000001554851    0.5200
20     O20    -5.7278    0.6771   -0.9123 O.2      1 ZINC000001554851   -0.5400
21     N21    -5.1694   -0.0865    1.0944 N.am     1 ZINC000001554851   -0.6000
22     C22    -4.3316    0.0348    2.2954 C.3      1 ZINC000001554851    0.1000
23     C23    -3.7225   -1.3353    2.6116 C.3      1 ZINC000001554851   -0.1300
24     C24    -4.8372   -2.3740    2.7139 C.3      1 ZINC000001554851   -0.0600
25     C25    -4.2459   -3.7441    3.0781 C.3      1 ZINC000001554851   -0.1200
26     C26    -4.8758   -4.1484    4.4279 C.3      1 ZINC000001554851   -0.1200
27     C27    -6.1994   -3.3455    4.4854 C.3      1 ZINC000001554851   -0.1200
28     C28    -5.8055   -1.9893    3.8478 C.3      1 ZINC000001554851   -0.1200
29     C29    -5.5994   -2.4696    1.3940 C.3      1 ZINC000001554851   -0.1200
30     C30    -6.2282   -1.1048    1.0704 C.3      1 ZINC000001554851    0.1100
31     H31    -1.2377    2.2032    0.7468 H        1 ZINC000001554851    0.0600
32     H32    -1.5110    2.7981   -0.9084 H        1 ZINC000001554851    0.0600
33     H33    -2.6654    0.6791   -1.4794 H        1 ZINC000001554851    0.0700
34     H34    -2.3921    0.0842    0.1759 H        1 ZINC000001554851    0.0800
35     H35    -4.7353    2.6754   -1.6112 H        1 ZINC000001554851    0.4100
36     H36    -5.1970    3.9845   -2.8134 H        1 ZINC000001554851    0.1500
37     H37    -4.5955    8.0355   -4.0049 H        1 ZINC000001554851    0.1500
38     H38    -2.5108    6.5024   -0.6144 H        1 ZINC000001554851    0.1600
39     H39    -3.5348    0.7560    2.1138 H        1 ZINC000001554851    0.0900
40     H40    -4.9426    0.3658    3.1352 H        1 ZINC000001554851    0.0700
41     H41    -3.0330   -1.6189    1.8165 H        1 ZINC000001554851    0.0800
42     H42    -3.1849   -1.2844    3.5585 H        1 ZINC000001554851    0.0800
43     H43    -4.5008   -4.4767    2.3124 H        1 ZINC000001554851    0.0600
44     H44    -3.1631   -3.6692    3.1786 H        1 ZINC000001554851    0.0700
45     H45    -5.0781   -5.2193    4.4489 H        1 ZINC000001554851    0.0600
46     H46    -4.2224   -3.8664    5.2535 H        1 ZINC000001554851    0.0600
47     H47    -6.9752   -3.8373    3.8986 H        1 ZINC000001554851    0.0600
48     H48    -6.5230   -3.2077    5.5171 H        1 ZINC000001554851    0.0600
49     H49    -5.3044   -1.3549    4.5789 H        1 ZINC000001554851    0.0700
50     H50    -6.6851   -1.4873    3.4446 H        1 ZINC000001554851    0.0700
51     H51    -4.9124   -2.7545    0.5972 H        1 ZINC000001554851    0.0700
52     H52    -6.3859   -3.2192    1.4818 H        1 ZINC000001554851    0.0700
53     H53    -6.9888   -0.8672    1.8143 H        1 ZINC000001554851    0.0700
54     H54    -6.6806   -1.1366    0.0793 H        1 ZINC000001554851    0.0900
@<TRIPOS>BOND
1     1     2     ar
2     2     3     ar
3     2     4     1
4     4     5     1
5     4     31    1
6     4     32    1
7     5     6     1
8     5     33    1
9     5     34    1
10    6     7     1
11    6     8     1
12    6     19    1
13    8     9     am
14    8     35    1
15    9     10    2
16    9     11    1
17    11    18    ar
18    11    12    ar
19    12    13    ar
20    12    36    1
21    13    14    1
22    13    15    ar
23    15    16    ar
24    15    37    1
25    16    17    1
26    16    18    ar
27    18    38    1
28    19    20    2
29    19    21    am
30    21    30    1
31    21    22    1
32    22    23    1
33    22    39    1
34    22    40    1
35    23    24    1
36    23    41    1
37    23    42    1
38    24    28    1
39    24    25    1
40    24    29    1
41    25    26    1
42    25    43    1
43    25    44    1
44    26    27    1
45    26    45    1
46    26    46    1
47    27    28    1
48    27    47    1
49    27    48    1
50    28    49    1
51    28    50    1
52    29    30    1
53    29    51    1
54    29    52    1
55    30    53    1
56    30    54    1
@<TRIPOS>SUBSTRUCTURE
1   ZINC000001554851 1     RESIDUE    1   A     ZIN   1
