@<TRIPOS>MOLECULE
ZINC000026180140
68    72    1     0     0
SMALL
USER_CHARGES
@<TRIPOS>ATOM
1      O1     -0.6929    0.1056   -0.4071 O.2      1 ZINC000026180140   -0.4900
2      C2     -0.3452    1.2461   -0.1851 C.2      1 ZINC000026180140    0.5400
3      C3      0.9908    1.7365   -0.6806 C.3      1 ZINC000026180140   -0.0200
4      C4      1.9290    0.5674   -0.8359 C.ar     1 ZINC000026180140   -0.0900
5      C5      1.6413   -0.4336   -1.7448 C.ar     1 ZINC000026180140   -0.0800
6      C6      2.5019   -1.5060   -1.8872 C.ar     1 ZINC000026180140   -0.1200
7      C7      3.6504   -1.5771   -1.1211 C.ar     1 ZINC000026180140   -0.1100
8      C8      3.9385   -0.5756   -0.2129 C.ar     1 ZINC000026180140   -0.1200
9      C9      3.0801    0.4989   -0.0735 C.ar     1 ZINC000026180140   -0.1100
10     C10     0.8131    2.4184   -2.0127 C.ar     1 ZINC000026180140   -0.0900
11     C11     1.4449    3.6222   -2.2627 C.ar     1 ZINC000026180140   -0.1100
12     C12     1.2819    4.2477   -3.4847 C.ar     1 ZINC000026180140   -0.1100
13     C13     0.4874    3.6691   -4.4567 C.ar     1 ZINC000026180140   -0.1100
14     C14    -0.1437    2.4648   -4.2070 C.ar     1 ZINC000026180140   -0.1100
15     C15     0.0228    1.8372   -2.9867 C.ar     1 ZINC000026180140   -0.1100
16     N16    -1.1561    2.0765    0.5000 N.am     1 ZINC000026180140   -0.6300
17     C17    -0.8184    3.4990    0.6635 C.3      1 ZINC000026180140    0.0800
18     C18    -2.0360    4.3368    0.2598 C.3      1 ZINC000026180140   -0.0300
19     N19    -3.2071    3.8995    1.0301 N.4      1 ZINC000026180140   -0.3800
20     H20    -2.9995    3.9549    2.0159 H        1 ZINC000026180140    0.4300
21     C21    -4.3476    4.7726    0.7219 C.3      1 ZINC000026180140   -0.0400
22     C22    -4.0456    6.1941    1.2005 C.3      1 ZINC000026180140    0.0900
23     H23    -3.1703    6.5761    0.6751 H        1 ZINC000026180140    0.1400
24     O24    -3.7884    6.1789    2.6061 O.3      1 ZINC000026180140   -0.5400
25     C25    -5.2476    7.0956    0.9117 C.3      1 ZINC000026180140    0.0300
26     O26    -4.9232    8.4453    1.2513 O.3      1 ZINC000026180140   -0.3000
27     C27    -5.8883    9.3795    1.0539 C.ar     1 ZINC000026180140    0.1500
28     C28    -5.6413   10.7325    1.3596 C.ar     1 ZINC000026180140   -0.1200
29     C29    -4.4015   11.1521    1.8726 C.ar     1 ZINC000026180140   -0.0400
30     C30    -4.2325   12.4803    2.1458 C.ar     1 ZINC000026180140   -0.1800
31     C31    -5.2742   13.3752    1.9143 C.ar     1 ZINC000026180140    0.1500
32     N32    -6.4292   12.9803    1.4358 N.ar     1 ZINC000026180140   -0.4800
33     C33    -6.6594   11.6948    1.1473 C.ar     1 ZINC000026180140    0.1600
34     C34    -7.8996   11.2790    0.6346 C.ar     1 ZINC000026180140   -0.1200
35     C35    -8.1123    9.9650    0.3479 C.ar     1 ZINC000026180140   -0.0700
36     C36    -7.1161    9.0143    0.5477 C.ar     1 ZINC000026180140   -0.2200
37     C37    -3.5470    2.5145    0.6803 C.3      1 ZINC000026180140   -0.0200
38     C38    -2.4070    1.5876    1.1002 C.3      1 ZINC000026180140    0.0900
39     H39     1.4072    2.4437    0.0368 H        1 ZINC000026180140    0.1100
40     H40     0.7441   -0.3781   -2.3433 H        1 ZINC000026180140    0.1200
41     H41     2.2768   -2.2885   -2.5968 H        1 ZINC000026180140    0.1300
42     H42     4.3223   -2.4153   -1.2319 H        1 ZINC000026180140    0.1300
43     H43     4.8355   -0.6314    0.3859 H        1 ZINC000026180140    0.1300
44     H44     3.3052    1.2814    0.6361 H        1 ZINC000026180140    0.1200
45     H45     2.0656    4.0742   -1.5033 H        1 ZINC000026180140    0.1300
46     H46     1.7749    5.1885   -3.6797 H        1 ZINC000026180140    0.1300
47     H47     0.3595    4.1581   -5.4112 H        1 ZINC000026180140    0.1300
48     H48    -0.7646    2.0129   -4.9664 H        1 ZINC000026180140    0.1300
49     H49    -0.4702    0.8963   -2.7916 H        1 ZINC000026180140    0.1300
50     H50    -0.5658    3.6981    1.7050 H        1 ZINC000026180140    0.1000
51     H51     0.0277    3.7504    0.0239 H        1 ZINC000026180140    0.1300
52     H52    -1.8378    5.3887    0.4655 H        1 ZINC000026180140    0.1500
53     H53    -2.2312    4.2050   -0.8045 H        1 ZINC000026180140    0.1400
54     H54    -4.5188    4.7803   -0.3545 H        1 ZINC000026180140    0.1500
55     H55    -5.2378    4.4000    1.2288 H        1 ZINC000026180140    0.1400
56     H56    -4.5262    5.8497    3.1374 H        1 ZINC000026180140    0.3900
57     H57    -5.4989    7.0378   -0.1473 H        1 ZINC000026180140    0.0800
58     H58    -6.0999    6.7663    1.5060 H        1 ZINC000026180140    0.0800
59     H59    -3.6046   10.4441    2.0463 H        1 ZINC000026180140    0.1400
60     H60    -3.2924   12.8357    2.5411 H        1 ZINC000026180140    0.1400
61     H61    -5.1269   14.4220    2.1352 H        1 ZINC000026180140    0.1700
62     H62    -8.6847   12.0018    0.4681 H        1 ZINC000026180140    0.1400
63     H63    -9.0694    9.6560   -0.0458 H        1 ZINC000026180140    0.1400
64     H64    -7.3106    7.9784    0.3119 H        1 ZINC000026180140    0.1300
65     H65    -4.4622    2.2236    1.1960 H        1 ZINC000026180140    0.1500
66     H66    -3.6964    2.4378   -0.3966 H        1 ZINC000026180140    0.1400
67     H67    -2.6109    0.5751    0.7517 H        1 ZINC000026180140    0.1400
68     H68    -2.3121    1.5922    2.1860 H        1 ZINC000026180140    0.1000
@<TRIPOS>BOND
1     1     2     2
2     2     3     1
3     2     16    am
4     3     4     1
5     3     10    1
6     3     39    1
7     4     9     ar
8     4     5     ar
9     5     6     ar
10    5     40    1
11    6     7     ar
12    6     41    1
13    7     8     ar
14    7     42    1
15    8     9     ar
16    8     43    1
17    9     44    1
18    10    15    ar
19    10    11    ar
20    11    12    ar
21    11    45    1
22    12    13    ar
23    12    46    1
24    13    14    ar
25    13    47    1
26    14    15    ar
27    14    48    1
28    15    49    1
29    16    38    1
30    16    17    1
31    17    18    1
32    17    50    1
33    17    51    1
34    18    19    1
35    18    52    1
36    18    53    1
37    19    20    1
38    19    21    1
39    19    37    1
40    21    22    1
41    21    54    1
42    21    55    1
43    22    23    1
44    22    24    1
45    22    25    1
46    24    56    1
47    25    26    1
48    25    57    1
49    25    58    1
50    26    27    1
51    27    36    ar
52    27    28    ar
53    28    33    ar
54    28    29    ar
55    29    30    ar
56    29    59    1
57    30    31    ar
58    30    60    1
59    31    32    ar
60    31    61    1
61    32    33    ar
62    33    34    ar
63    34    35    ar
64    34    62    1
65    35    36    ar
66    35    63    1
67    36    64    1
68    37    38    1
69    37    65    1
70    37    66    1
71    38    67    1
72    38    68    1
@<TRIPOS>SUBSTRUCTURE
1   ZINC000026180140 1     RESIDUE    1   A     ZIN   1
