@<TRIPOS>MOLECULE
ZINC000000000510
25    25    1     0     0
SMALL
USER_CHARGES
@<TRIPOS>ATOM
1      C1     -0.0173    1.4248    0.0099 C.3      1 ZINC000000000510    0.0300
2      O2      0.0021   -0.0041    0.0020 O.3      1 ZINC000000000510   -0.3800
3      C3      0.6518   -0.5703   -1.1379 C.3      1 ZINC000000000510    0.0300
4      C4      0.6131   -2.0967   -1.0411 C.3      1 ZINC000000000510    0.1000
5      H5      1.0473   -2.4117   -0.0922 H        1 ZINC000000000510    0.1100
6      O6     -0.7418   -2.5446   -1.1169 O.3      1 ZINC000000000510   -0.5500
7      C7      1.4155   -2.7014   -2.1949 C.3      1 ZINC000000000510    0.0600
8      N8      1.4788   -4.1564   -2.0359 N.pl3    1 ZINC000000000510   -0.4100
9      C9      2.4849   -4.8649   -1.4364 C.2      1 ZINC000000000510    0.0100
10     C10     2.1417   -6.1652   -1.5074 C.2      1 ZINC000000000510    0.0000
11     N11     0.9582   -6.2483   -2.1331 N.2      1 ZINC000000000510   -0.4000
12     C12     0.5527   -5.0486   -2.4481 C.2      1 ZINC000000000510    0.2400
13     N13    -0.7093   -4.7207   -3.1489 N.pl3    1 ZINC000000000510    0.0800
14     O14    -1.4699   -5.6116   -3.4825 O.2      1 ZINC000000000510   -0.0800
15     O15    -0.9871   -3.5600   -3.3920 O.2      1 ZINC000000000510   -0.1700
16     H16     1.0053    1.8021    0.0021 H        1 ZINC000000000510    0.0400
17     H17    -0.5445    1.7859   -0.8732 H        1 ZINC000000000510    0.0400
18     H18    -0.5275    1.7763    0.9067 H        1 ZINC000000000510    0.0900
19     H19     0.1385   -0.2506   -2.0447 H        1 ZINC000000000510    0.0600
20     H20     1.6883   -0.2344   -1.1694 H        1 ZINC000000000510    0.0600
21     H21    -1.1918   -2.2992   -1.9369 H        1 ZINC000000000510    0.3900
22     H22     0.9303   -2.4601   -3.1406 H        1 ZINC000000000510    0.1200
23     H23     2.4253   -2.2911   -2.1895 H        1 ZINC000000000510    0.1200
24     H24     3.3819   -4.4592   -0.9922 H        1 ZINC000000000510    0.2100
25     H25     2.7182   -6.9955   -1.1271 H        1 ZINC000000000510    0.2000
@<TRIPOS>BOND
1     1     2     1
2     1     16    1
3     1     17    1
4     1     18    1
5     2     3     1
6     3     4     1
7     3     19    1
8     3     20    1
9     4     5     1
10    4     6     1
11    4     7     1
12    6     21    1
13    7     8     1
14    7     22    1
15    7     23    1
16    8     12    1
17    8     9     1
18    9     10    2
19    9     24    1
20    10    11    1
21    10    25    1
22    11    12    2
23    12    13    1
24    13    14    2
25    13    15    2
@<TRIPOS>SUBSTRUCTURE
1   ZINC000000000510 1     RESIDUE    1   A     ZIN   1
