@<TRIPOS>MOLECULE
ZINC000004626690
  44   46    0    0    0
SMALL
USER_CHARGES
NO_NAME
@<TRIPOS>ATOM
    1 C1       -0.0173     1.4248     0.0099 C.3    1 <0>       0.0200
    2 O2        0.0021    -0.0041     0.0020 O.3    1 <0>      -0.2700
    3 C3        0.6248    -0.6174     1.0398 C.ar   1 <0>       0.2400
    4 C4        1.1998     0.1363     2.0471 C.ar   1 <0>      -0.3000
    5 C5        1.8366    -0.4932     3.1092 C.ar   1 <0>       0.3000
    6 N6        2.4136     0.2677     4.1209 N.pl3  1 <0>      -0.8600
    7 C7        1.8991    -1.8851     3.1649 C.ar   1 <0>      -0.1600
    8 Cl8       2.6970    -2.6629     4.4961 Cl     1 <0>      -0.0700
    9 C9        1.3300    -2.6439     2.1685 C.ar   1 <0>       0.0100
   10 C10       0.6824    -2.0186     1.0975 C.ar   1 <0>      -0.2200
   11 C11       0.0722    -2.8275     0.0293 C.2    1 <0>       0.5700
   12 O12      -0.4903    -2.2818    -0.9008 O.2    1 <0>      -0.5200
   13 N13       0.1370    -4.1727     0.0822 N.am   1 <0>      -0.7300
   14 C14      -0.4720    -4.9801    -0.9840 C.3    1 <0>       0.1600
   15 H15      -1.3817    -4.4578    -1.3187 H      1 <0>       0.0800
   16 C16       0.4900    -5.0824    -2.1576 C.3    1 <0>      -0.1600
   17 C17       1.5847    -6.1178    -1.9526 C.3    1 <0>       0.0700
   18 N18       1.0875    -7.3715    -1.4019 N.3    1 <0>      -0.5500
   19 C19       0.3035    -8.1676    -2.3428 C.3    1 <0>       0.0700
   20 C20      -1.0324    -7.5052    -2.6642 C.3    1 <0>      -0.1600
   21 C21      -1.7761    -7.0928    -1.3988 C.3    1 <0>      -0.1000
   22 C22      -0.8718    -6.3406    -0.4274 C.3    1 <0>      -0.1300
   23 H23      -1.4167    -6.1910     0.5163 H      1 <0>       0.0800
   24 C24       0.3772    -7.1750    -0.1351 C.3    1 <0>       0.0700
   25 H25       1.0053     1.8021     0.0021 H      1 <0>       0.0600
   26 H26      -0.5445     1.7859    -0.8732 H      1 <0>       0.1100
   27 H27      -0.5275     1.7763     0.9067 H      1 <0>       0.0600
   28 H28       1.1540     1.2146     2.0077 H      1 <0>       0.1400
   29 H29       2.3708     1.2361     4.0840 H      1 <0>       0.4100
   30 H30       2.8587    -0.1701     4.8633 H      1 <0>       0.4100
   31 H31       1.3799    -3.7217     2.2148 H      1 <0>       0.1400
   32 H32       0.5856    -4.6079     0.8240 H      1 <0>       0.3900
   33 H33      -0.0496    -5.2685    -3.0844 H      1 <0>       0.0800
   34 H34       0.9766    -4.0959    -2.2842 H      1 <0>       0.0700
   35 H35       2.0739    -6.3167    -2.9154 H      1 <0>       0.0700
   36 H36       2.3480    -5.7058    -1.2799 H      1 <0>       0.0700
   37 H37       0.8721    -8.2987    -3.2690 H      1 <0>       0.0700
   38 H38       0.1194    -9.1579    -1.9138 H      1 <0>       0.0700
   39 H39      -0.8959    -6.6595    -3.3289 H      1 <0>       0.0700
   40 H40      -1.6555    -8.2393    -3.2039 H      1 <0>       0.0600
   41 H41      -2.6236    -6.4540    -1.6704 H      1 <0>       0.0600
   42 H42      -2.1718    -7.9867    -0.9047 H      1 <0>       0.0700
   43 H43       0.0835    -8.1410     0.2754 H      1 <0>       0.0800
   44 H44       1.0170    -6.6549     0.5740 H      1 <0>       0.0700
@<TRIPOS>BOND
   1    1    2 1
   2    1   25 1
   3    1   26 1
   4    1   27 1
   5    2    3 1
   6    3   10 ar
   7    3    4 ar
   8    4    5 ar
   9    4   28 1
  10    5    6 1
  11    5    7 ar
  12    6   29 1
  13    6   30 1
  14    7    8 1
  15    7    9 ar
  16    9   10 ar
  17    9   31 1
  18   10   11 1
  19   11   12 2
  20   11   13 am
  21   13   14 1
  22   13   32 1
  23   14   15 1
  24   14   22 1
  25   14   16 1
  26   16   17 1
  27   16   33 1
  28   16   34 1
  29   17   18 1
  30   17   35 1
  31   17   36 1
  32   18   24 1
  33   18   19 1
  34   19   20 1
  35   19   37 1
  36   19   38 1
  37   20   21 1
  38   20   39 1
  39   20   40 1
  40   21   22 1
  41   21   41 1
  42   21   42 1
  43   22   23 1
  44   22   24 1
  45   24   43 1
  46   24   44 1
