@<TRIPOS>MOLECULE
ZINC000003939238
62    66    1     0     0
SMALL
USER_CHARGES
@<TRIPOS>ATOM
1      C1      7.2251   -2.5718   -0.3107 C.3      1 ZINC000003939238    0.0300
2      O2      5.9715   -1.9012   -0.1663 O.3      1 ZINC000003939238   -0.3000
3      C3      5.3211   -1.5552   -1.3093 C.ar     1 ZINC000003939238    0.0900
4      C4      5.8746   -1.8593   -2.5422 C.ar     1 ZINC000003939238   -0.1800
5      C5      5.2144   -1.5021   -3.7036 C.ar     1 ZINC000003939238   -0.1400
6      C6      3.9995   -0.8463   -3.6381 C.ar     1 ZINC000003939238   -0.1200
7      C7      3.4386   -0.5443   -2.4109 C.ar     1 ZINC000003939238   -0.1600
8      C8      4.0948   -0.8992   -1.2431 C.ar     1 ZINC000003939238    0.1300
9      O9      3.5450   -0.6027   -0.0356 O.3      1 ZINC000003939238   -0.2000
10     C10     2.3482    0.0439   -0.0202 C.ar     1 ZINC000003939238   -0.1000
11     C11     2.2888    1.4400   -0.0122 C.ar     1 ZINC000003939238    0.4900
12     N12     3.4545    2.1947   -0.0197 N.pl3    1 ZINC000003939238   -1.0400
13     S13     3.3703    3.8486   -0.0100 S.o2     1 ZINC000003939238    2.6400
14     O14     2.7937    4.2283   -1.2521 O.2      1 ZINC000003939238   -1.0000
15     O15     2.8187    4.2149    1.2472 O.2      1 ZINC000003939238   -0.9800
16     C16     5.0246    4.4551   -0.0233 C.ar     1 ZINC000003939238   -0.3900
17     C17     5.6537    4.6967   -1.2296 C.ar     1 ZINC000003939238   -0.0800
18     C18     6.9557    5.1740   -1.2291 C.ar     1 ZINC000003939238   -0.1000
19     C19     7.5783    5.3912   -0.0096 C.ar     1 ZINC000003939238   -0.1100
20     C20     8.9923    5.9097    0.0436 C.3      1 ZINC000003939238   -0.1100
21     C21     6.8855    5.1267    1.1569 C.ar     1 ZINC000003939238    0.0700
22     N22     5.6460    4.6785    1.1183 N.ar     1 ZINC000003939238   -0.3900
23     N23     1.1008    2.0351    0.0025 N.ar     1 ZINC000003939238   -0.6000
24     C24    -0.0159    1.3213    0.0093 C.ar     1 ZINC000003939238    0.4300
25     C25    -1.3220    2.0250    0.0193 C.ar     1 ZINC000003939238    0.0000
26     C26    -2.5229    1.3086    0.0210 C.ar     1 ZINC000003939238   -0.1500
27     C27    -3.7193    1.9984    0.0303 C.ar     1 ZINC000003939238    0.0800
28     N28    -3.7433    3.3158    0.0371 N.ar     1 ZINC000003939238   -0.4600
29     C29    -2.6301    4.0375    0.0358 C.ar     1 ZINC000003939238    0.2400
30     C30    -2.7152    5.5194    0.0442 C.2      1 ZINC000003939238    0.0900
31     N31    -1.6966    6.3726    0.0498 N.2      1 ZINC000003939238   -0.3500
32     N32    -2.1878    7.5646    0.0528 N.pl3    1 ZINC000003939238   -0.1900
33     N33    -3.4731    7.4908    0.0584 N.2      1 ZINC000003939238   -0.2000
34     N34    -3.8247    6.2504    0.0534 N.2      1 ZINC000003939238   -0.3500
35     C35    -1.3840    3.4194    0.0329 C.ar     1 ZINC000003939238   -0.0900
36     N36     0.0021   -0.0041    0.0020 N.ar     1 ZINC000003939238   -0.6200
37     C37     1.1506   -0.6699   -0.0126 C.ar     1 ZINC000003939238    0.3700
38     O38     1.1587   -2.0263   -0.0195 O.3      1 ZINC000003939238   -0.2900
39     C39    -0.1105   -2.6827   -0.0104 C.3      1 ZINC000003939238    0.0700
40     C40     0.0990   -4.1983   -0.0201 C.3      1 ZINC000003939238    0.0800
41     O41     0.7402   -4.5983    1.1928 O.3      1 ZINC000003939238   -0.5600
42     H42     7.0779   -3.5033   -0.8573 H        1 ZINC000003939238    0.0500
43     H43     7.9174   -1.9337   -0.8599 H        1 ZINC000003939238    0.0500
44     H44     7.6361   -2.7900    0.6750 H        1 ZINC000003939238    0.0900
45     H45     6.8240   -2.3714   -2.5963 H        1 ZINC000003939238    0.1200
46     H46     5.6490   -1.7365   -4.6642 H        1 ZINC000003939238    0.1200
47     H47     3.4870   -0.5694   -4.5475 H        1 ZINC000003939238    0.1200
48     H48     2.4894   -0.0314   -2.3625 H        1 ZINC000003939238    0.1300
49     H49     5.1381    4.5156   -2.1612 H        1 ZINC000003939238    0.1500
50     H50     7.4723    5.3721   -2.1566 H        1 ZINC000003939238    0.1400
51     H51     8.9791    6.9994    0.0653 H        1 ZINC000003939238    0.0700
52     H52     9.4834    5.5343    0.9413 H        1 ZINC000003939238    0.0700
53     H53     9.5370    5.5703   -0.8374 H        1 ZINC000003939238    0.0700
54     H54     7.3635    5.2930    2.1110 H        1 ZINC000003939238    0.1600
55     H55    -2.5149    0.2287    0.0155 H        1 ZINC000003939238    0.1400
56     H56    -4.6494    1.4496    0.0317 H        1 ZINC000003939238    0.1500
57     H57    -0.4791    4.0089    0.0369 H        1 ZINC000003939238    0.1600
58     H58    -0.6606   -2.3977    0.8865 H        1 ZINC000003939238    0.0700
59     H59    -0.6780   -2.3888   -0.8934 H        1 ZINC000003939238    0.0800
60     H60    -0.8661   -4.6980   -0.1027 H        1 ZINC000003939238    0.0600
61     H61     0.7244   -4.4732   -0.8694 H        1 ZINC000003939238    0.0500
62     H62     0.9049   -5.5491    1.2556 H        1 ZINC000003939238    0.3700
@<TRIPOS>BOND
1     1     2     1
2     1     42    1
3     1     43    1
4     1     44    1
5     2     3     1
6     3     8     ar
7     3     4     ar
8     4     5     ar
9     4     45    1
10    5     6     ar
11    5     46    1
12    6     7     ar
13    6     47    1
14    7     8     ar
15    7     48    1
16    8     9     1
17    9     10    1
18    10    37    ar
19    10    11    ar
20    11    12    1
21    11    23    ar
22    12    13    1
23    13    14    2
24    13    15    2
25    13    16    1
26    16    22    ar
27    16    17    ar
28    17    18    ar
29    17    49    1
30    18    19    ar
31    18    50    1
32    19    20    1
33    19    21    ar
34    20    51    1
35    20    52    1
36    20    53    1
37    21    22    ar
38    21    54    1
39    23    24    ar
40    24    25    1
41    24    36    ar
42    25    35    ar
43    25    26    ar
44    26    27    ar
45    26    55    1
46    27    28    ar
47    27    56    1
48    28    29    ar
49    29    30    1
50    29    35    ar
51    30    34    1
52    30    31    2
53    31    32    1
54    32    33    1
55    33    34    2
56    35    57    1
57    36    37    ar
58    37    38    1
59    38    39    1
60    39    40    1
61    39    58    1
62    39    59    1
63    40    41    1
64    40    60    1
65    40    61    1
66    41    62    1
@<TRIPOS>SUBSTRUCTURE
1   ZINC000003939238 1     RESIDUE    1   A     ZIN   1
