@<TRIPOS>MOLECULE
ZINC000043101772
45    47    1     0     0
SMALL
USER_CHARGES
@<TRIPOS>ATOM
1      C1     -0.1977    2.0709    0.2773 C.3      1 ZINC000043101772   -0.0800
2      C2     -0.1215    0.5853    0.0358 C.2      1 ZINC000043101772    0.0600
3      C3     -0.2206   -0.0064   -1.1649 C.2      1 ZINC000043101772   -0.0800
4      C4     -0.4244    0.6810   -2.4904 C.3      1 ZINC000043101772   -0.1200
5      C5      0.9154    1.0092   -3.0973 C.2      1 ZINC000043101772    0.5000
6      O6      1.9407    0.7125   -2.5081 O.co2    1 ZINC000043101772   -0.6900
7      O7      0.9740    1.5715   -4.1775 O.co2    1 ZINC000043101772   -0.7000
8      C8     -0.0923   -1.4472   -0.9402 C.ar     1 ZINC000043101772   -0.1300
9      C9     -0.1108   -2.5697   -1.7709 C.ar     1 ZINC000043101772   -0.0200
10     C10     0.0453   -3.8129   -1.1870 C.ar     1 ZINC000043101772   -0.2100
11     C11     0.2130   -3.9038    0.1861 C.ar     1 ZINC000043101772    0.1300
12     N12     0.2274   -2.8330    0.9512 N.ar     1 ZINC000043101772   -0.5000
13     C13     0.0825   -1.6149    0.4471 C.ar     1 ZINC000043101772    0.2900
14     N14     0.0651   -0.3605    1.0081 N.pl3    1 ZINC000043101772   -0.4700
15     C15     0.2216   -0.0771    2.4368 C.3      1 ZINC000043101772    0.1300
16     C16     1.6829    0.1087    2.7549 C.ar     1 ZINC000043101772    0.0000
17     C17     2.6275    0.0024    1.7516 C.ar     1 ZINC000043101772   -0.1100
18     C18     3.9682    0.1728    2.0434 C.ar     1 ZINC000043101772    0.0200
19     C19     4.3637    0.4499    3.3385 C.ar     1 ZINC000043101772   -0.6700
20     S20     6.0723    0.6665    3.7105 S.o2     1 ZINC000043101772    2.5000
21     C21     6.3635    2.4424    3.4832 C.3      1 ZINC000043101772   -0.6500
22     O22     6.1793    0.3153    5.0833 O.2      1 ZINC000043101772   -0.9400
23     O23     6.7468   -0.0817    2.7082 O.2      1 ZINC000043101772   -0.9300
24     C24     3.4187    0.5575    4.3419 C.ar     1 ZINC000043101772    0.0200
25     C25     2.0782    0.3909    4.0494 C.ar     1 ZINC000043101772   -0.2000
26     C26     1.0481    0.5083    5.1431 C.3      1 ZINC000043101772    0.5100
27     F27     1.6855    0.7935    6.3554 F        1 ZINC000043101772   -0.1700
28     F28     0.1537    1.5383    4.8328 F        1 ZINC000043101772   -0.1700
29     F29     0.3488   -0.6981    5.2565 F        1 ZINC000043101772   -0.1700
30     H30     0.8091    2.4881    0.2964 H        1 ZINC000043101772    0.0800
31     H31    -0.7703    2.5401   -0.5228 H        1 ZINC000043101772    0.0900
32     H32    -0.6872    2.2591    1.2328 H        1 ZINC000043101772    0.0600
33     H33    -0.9751    0.0213   -3.1609 H        1 ZINC000043101772    0.0700
34     H34    -0.9901    1.6005   -2.3397 H        1 ZINC000043101772    0.0700
35     H35    -0.2435   -2.4694   -2.8381 H        1 ZINC000043101772    0.1300
36     H36     0.0364   -4.7054   -1.7950 H        1 ZINC000043101772    0.1300
37     H37     0.3343   -4.8768    0.6389 H        1 ZINC000043101772    0.1500
38     H38    -0.3235    0.8326    2.6886 H        1 ZINC000043101772    0.1100
39     H39    -0.1737   -0.9102    3.0180 H        1 ZINC000043101772    0.1200
40     H40     2.3184   -0.2140    0.7397 H        1 ZINC000043101772    0.1600
41     H41     4.7063    0.0891    1.2596 H        1 ZINC000043101772    0.1600
42     H42     5.7244    3.0054    4.1635 H        1 ZINC000043101772    0.1300
43     H43     7.4084    2.6694    3.6949 H        1 ZINC000043101772    0.1300
44     H44     6.1327    2.7197    2.4547 H        1 ZINC000043101772    0.1400
45     H45     3.7278    0.7743    5.3537 H        1 ZINC000043101772    0.1600
@<TRIPOS>BOND
1     1     2     1
2     1     30    1
3     1     31    1
4     1     32    1
5     2     14    1
6     2     3     2
7     3     4     1
8     3     8     1
9     4     5     1
10    4     33    1
11    4     34    1
12    5     6     ar
13    5     7     ar
14    8     13    ar
15    8     9     ar
16    9     10    ar
17    9     35    1
18    10    11    ar
19    10    36    1
20    11    12    ar
21    11    37    1
22    12    13    ar
23    13    14    1
24    14    15    1
25    15    16    1
26    15    38    1
27    15    39    1
28    16    25    ar
29    16    17    ar
30    17    18    ar
31    17    40    1
32    18    19    ar
33    18    41    1
34    19    20    1
35    19    24    ar
36    20    21    1
37    20    22    2
38    20    23    2
39    21    42    1
40    21    43    1
41    21    44    1
42    24    25    ar
43    24    45    1
44    25    26    1
45    26    27    1
46    26    28    1
47    26    29    1
@<TRIPOS>SUBSTRUCTURE
1   ZINC000043101772 1     RESIDUE    1   A     ZIN   1
