@<TRIPOS>MOLECULE
ZINC000035826853
54    57    1     0     0
SMALL
USER_CHARGES
@<TRIPOS>ATOM
1      F1      0.0021   -0.0041    0.0020 F        1 ZINC000035826853   -0.1800
2      C2     -0.0169    1.3948    0.0097 C.3      1 ZINC000035826853    0.5100
3      F3      1.2956    1.8790   -0.0002 F        1 ZINC000035826853   -0.1800
4      F4     -0.6935    1.8582   -1.1237 F        1 ZINC000035826853   -0.1800
5      C5     -0.7223    1.8808    1.2496 C.ar     1 ZINC000035826853   -0.1800
6      C6     -2.0899    2.0870    1.2295 C.ar     1 ZINC000035826853   -0.0700
7      C7     -2.7450    2.5331    2.3637 C.ar     1 ZINC000035826853   -0.1200
8      C8     -2.0370    2.7747    3.5227 C.ar     1 ZINC000035826853   -0.0800
9      C9     -0.6571    2.5682    3.5498 C.ar     1 ZINC000035826853   -0.0500
10     C10     0.1077    2.8251    4.7883 C.2      1 ZINC000035826853   -0.0800
11     C11     0.6955    1.8133    5.3877 C.2      1 ZINC000035826853   -0.1400
12     C12     1.4902    1.9604    6.6534 C.3      1 ZINC000035826853    0.0800
13     N13     1.8453    3.3686    6.8698 N.3      1 ZINC000035826853   -0.5300
14     C14     2.5119    3.5502    8.1662 C.3      1 ZINC000035826853    0.0600
15     C15     1.5241    3.2464    9.2945 C.3      1 ZINC000035826853   -0.1200
16     C16     2.2079    3.4327   10.6245 C.ar     1 ZINC000035826853   -0.0800
17     C17     2.8643    2.3690   11.2168 C.ar     1 ZINC000035826853   -0.1100
18     C18     3.4922    2.5340   12.4347 C.ar     1 ZINC000035826853   -0.1100
19     C19     3.4641    3.7750   13.0677 C.ar     1 ZINC000035826853   -0.0500
20     C20     4.1378    3.9585   14.3770 C.ar     1 ZINC000035826853   -0.0500
21     C21     4.8057    2.8920   14.9753 C.ar     1 ZINC000035826853   -0.1100
22     C22     5.4306    3.0684   16.1932 C.ar     1 ZINC000035826853   -0.1200
23     C23     5.3947    4.3010   16.8198 C.ar     1 ZINC000035826853   -0.1200
24     C24     4.7331    5.3631   16.2304 C.ar     1 ZINC000035826853   -0.1200
25     C25     4.1097    5.1996   15.0099 C.ar     1 ZINC000035826853   -0.1100
26     C26     2.8014    4.8431   12.4664 C.ar     1 ZINC000035826853   -0.1100
27     C27     2.1817    4.6683   11.2457 C.ar     1 ZINC000035826853   -0.1100
28     C28     0.6471    4.2179    6.7691 C.3      1 ZINC000035826853    0.0500
29     C29     0.1868    4.2336    5.3077 C.3      1 ZINC000035826853   -0.0700
30     C30    -0.0033    2.1137    2.4042 C.ar     1 ZINC000035826853   -0.0600
31     H31    -2.6487    1.8993    0.3246 H        1 ZINC000035826853    0.1400
32     H32    -3.8129    2.6928    2.3414 H        1 ZINC000035826853    0.1400
33     H33    -2.5495    3.1232    4.4072 H        1 ZINC000035826853    0.1300
34     H34     0.6022    0.8305    4.9497 H        1 ZINC000035826853    0.1100
35     H35     0.8969    1.6042    7.4956 H        1 ZINC000035826853    0.0500
36     H36     2.4007    1.3658    6.5792 H        1 ZINC000035826853    0.0900
37     H37     3.3625    2.8722    8.2356 H        1 ZINC000035826853    0.0800
38     H38     2.8595    4.5795    8.2550 H        1 ZINC000035826853    0.0800
39     H39     0.6735    3.9245    9.2252 H        1 ZINC000035826853    0.0800
40     H40     1.1765    2.2172    9.2057 H        1 ZINC000035826853    0.0700
41     H41     2.8852    1.4074   10.7255 H        1 ZINC000035826853    0.1200
42     H42     4.0041    1.7026   12.8965 H        1 ZINC000035826853    0.1300
43     H43     4.8341    1.9291   14.4871 H        1 ZINC000035826853    0.1200
44     H44     5.9483    2.2423   16.6580 H        1 ZINC000035826853    0.1200
45     H45     5.8847    4.4345   17.7730 H        1 ZINC000035826853    0.1200
46     H46     4.7079    6.3233   16.7242 H        1 ZINC000035826853    0.1200
47     H47     3.5934    6.0295   14.5506 H        1 ZINC000035826853    0.1200
48     H48     2.7763    5.8070   12.9529 H        1 ZINC000035826853    0.1300
49     H49     1.6681    5.4956   10.7786 H        1 ZINC000035826853    0.1200
50     H50    -0.1432    3.8125    7.4009 H        1 ZINC000035826853    0.0400
51     H51     0.8894    5.2321    7.0865 H        1 ZINC000035826853    0.0800
52     H52     0.8957    4.8070    4.7104 H        1 ZINC000035826853    0.0900
53     H53    -0.7983    4.6956    5.2427 H        1 ZINC000035826853    0.0800
54     H54     1.0645    1.9520    2.4187 H        1 ZINC000035826853    0.1400
@<TRIPOS>BOND
1     1     2     1
2     2     3     1
3     2     4     1
4     2     5     1
5     5     30    ar
6     5     6     ar
7     6     7     ar
8     6     31    1
9     7     8     ar
10    7     32    1
11    8     9     ar
12    8     33    1
13    9     10    1
14    9     30    ar
15    10    29    1
16    10    11    2
17    11    12    1
18    11    34    1
19    12    13    1
20    12    35    1
21    12    36    1
22    13    14    1
23    13    28    1
24    14    15    1
25    14    37    1
26    14    38    1
27    15    16    1
28    15    39    1
29    15    40    1
30    16    27    ar
31    16    17    ar
32    17    18    ar
33    17    41    1
34    18    19    ar
35    18    42    1
36    19    20    1
37    19    26    ar
38    20    25    ar
39    20    21    ar
40    21    22    ar
41    21    43    1
42    22    23    ar
43    22    44    1
44    23    24    ar
45    23    45    1
46    24    25    ar
47    24    46    1
48    25    47    1
49    26    27    ar
50    26    48    1
51    27    49    1
52    28    29    1
53    28    50    1
54    28    51    1
55    29    52    1
56    29    53    1
57    30    54    1
@<TRIPOS>SUBSTRUCTURE
1   ZINC000035826853 1     RESIDUE    1   A     ZIN   1
