@<TRIPOS>MOLECULE
ZINC000031561767
42    43    1     0     0
SMALL
USER_CHARGES
@<TRIPOS>ATOM
1      O1     -0.1463    0.3363    1.4074 O.3      1 ZINC000031561767   -0.5400
2      N2     -0.0910    1.5823    0.7370 N.ar     1 ZINC000031561767   -0.1200
3      C3     -1.1868    2.0572    0.1743 C.ar     1 ZINC000031561767    0.1000
4      C4     -1.1798    3.2702   -0.4906 C.ar     1 ZINC000031561767   -0.1200
5      C5     -0.0037    3.9951   -0.5654 C.ar     1 ZINC000031561767   -0.0400
6      C6      1.1422    3.4661    0.0409 C.ar     1 ZINC000031561767   -0.1200
7      C7      2.4241    4.1987   -0.0084 C.2      1 ZINC000031561767    0.2400
8      Cl8     2.4304    5.9271   -0.1712 Cl       1 ZINC000031561767    0.0500
9      N9      3.5427    3.5519    0.0699 N.2      1 ZINC000031561767   -0.3100
10     O10     3.5439    2.1359    0.0616 O.3      1 ZINC000031561767   -0.2100
11     C11     4.8463    1.5552    0.1538 C.3      1 ZINC000031561767    0.0400
12     C12     4.7270    0.0299    0.1360 C.3      1 ZINC000031561767    0.0800
13     H13     4.1743   -0.2810   -0.7505 H        1 ZINC000031561767    0.1300
14     O14     4.0344   -0.4074    1.3069 O.3      1 ZINC000031561767   -0.5400
15     C15     6.1253   -0.5907    0.1089 C.3      1 ZINC000031561767   -0.0400
16     N16     6.0112   -2.0487   -0.0288 N.4      1 ZINC000031561767   -0.3800
17     H17     5.4242   -2.4103    0.7079 H        1 ZINC000031561767    0.4300
18     C18     7.3450   -2.6537    0.0689 C.3      1 ZINC000031561767   -0.0100
19     C19     7.2237   -4.1779    0.0073 C.3      1 ZINC000031561767   -0.1500
20     C20     6.5753   -4.5796   -1.3206 C.3      1 ZINC000031561767   -0.1400
21     C21     5.2168   -3.8837   -1.4453 C.3      1 ZINC000031561767   -0.1500
22     C22     5.4142   -2.3705   -1.3305 C.3      1 ZINC000031561767   -0.0100
23     C23     1.0518    2.2381    0.6970 C.ar     1 ZINC000031561767    0.1200
24     H24    -2.1035    1.4893    0.2337 H        1 ZINC000031561767    0.1900
25     H25    -2.0830    3.6473   -0.9470 H        1 ZINC000031561767    0.1800
26     H26     0.0297    4.9447   -1.0787 H        1 ZINC000031561767    0.1700
27     H27     5.4507    1.8823   -0.6923 H        1 ZINC000031561767    0.0900
28     H28     5.3203    1.8717    1.0829 H        1 ZINC000031561767    0.0800
29     H29     4.4703   -0.1649    2.1353 H        1 ZINC000031561767    0.3900
30     H30     6.6849   -0.1886   -0.7356 H        1 ZINC000031561767    0.1400
31     H31     6.6463   -0.3530    1.0363 H        1 ZINC000031561767    0.1400
32     H32     7.9631   -2.3052   -0.7584 H        1 ZINC000031561767    0.1300
33     H33     7.8064   -2.3643    1.0131 H        1 ZINC000031561767    0.1300
34     H34     8.2152   -4.6251    0.0782 H        1 ZINC000031561767    0.1100
35     H35     6.6059   -4.5276    0.8345 H        1 ZINC000031561767    0.0900
36     H36     7.2179   -4.2752   -2.1468 H        1 ZINC000031561767    0.0800
37     H37     6.4349   -5.6602   -1.3455 H        1 ZINC000031561767    0.1000
38     H38     4.7739   -4.1207   -2.4126 H        1 ZINC000031561767    0.1100
39     H39     4.5574   -4.2273   -0.6483 H        1 ZINC000031561767    0.0900
40     H40     4.4494   -1.8710   -1.4189 H        1 ZINC000031561767    0.1300
41     H41     6.0735   -2.0290   -2.1285 H        1 ZINC000031561767    0.1300
42     H42     1.9274    1.8176    1.1693 H        1 ZINC000031561767    0.1900
@<TRIPOS>BOND
1     1     2     1
2     2     23    ar
3     2     3     ar
4     3     4     ar
5     3     24    1
6     4     5     ar
7     4     25    1
8     5     6     ar
9     5     26    1
10    6     7     1
11    6     23    ar
12    7     8     1
13    7     9     2
14    9     10    1
15    10    11    1
16    11    12    1
17    11    27    1
18    11    28    1
19    12    13    1
20    12    14    1
21    12    15    1
22    14    29    1
23    15    16    1
24    15    30    1
25    15    31    1
26    16    17    1
27    16    22    1
28    16    18    1
29    18    19    1
30    18    32    1
31    18    33    1
32    19    20    1
33    19    34    1
34    19    35    1
35    20    21    1
36    20    36    1
37    20    37    1
38    21    22    1
39    21    38    1
40    21    39    1
41    22    40    1
42    22    41    1
43    23    42    1
@<TRIPOS>SUBSTRUCTURE
1   ZINC000031561767 1     RESIDUE    1   A     ZIN   1
