@<TRIPOS>MOLECULE
ZINC000005114733
  49   53    0    0    0
SMALL
USER_CHARGES
NO_NAME
@<TRIPOS>ATOM
    1 C1       -0.0187     1.5258     0.0104 C.3    1 <0>      -0.1500
    2 C2        0.0021    -0.0041     0.0020 C.3    1 <0>      -0.1400
    3 C3        0.7421    -0.5109     1.2415 C.3    1 <0>       0.1100
    4 N4        0.7619    -1.9757     1.2335 N.am   1 <0>      -0.5100
    5 C5       -0.2620    -2.6727     1.8328 C.2    1 <0>       0.2700
    6 C6       -0.2342    -4.0621     1.8200 C.2    1 <0>      -0.0900
    7 N7       -1.3420    -4.4951     2.4682 N.2    1 <0>      -0.4000
    8 C8       -2.0309    -3.4656     2.8681 C.2    1 <0>       0.2400
    9 C9       -3.3308    -3.5315     3.6277 C.3    1 <0>       0.0000
   10 H10      -3.3989    -4.4672     4.1825 H      1 <0>       0.1200
   11 C11      -3.4561    -2.3259     4.5870 C.3    1 <0>      -0.1200
   12 C12      -4.7275    -1.5655     4.1006 C.3    1 <0>      -0.0900
   13 H13      -4.8080    -0.5239     4.4117 H      1 <0>       0.1200
   14 C14      -4.6460    -1.8232     2.5546 C.3    1 <0>      -0.1200
   15 C15      -4.5385    -3.3892     2.6516 C.3    1 <0>      -0.0800
   16 H16      -4.4551    -3.9257     1.7065 H      1 <0>       0.1200
   17 C17      -5.7997    -3.7120     3.5097 C.3    1 <0>      -0.0200
   18 H18      -6.6514    -4.1813     3.0173 H      1 <0>       0.1500
   19 O19      -5.6072    -3.8656     4.9174 O.3    1 <0>      -0.3300
   20 C20      -5.9149    -2.4915     4.5055 C.3    1 <0>      -0.0300
   21 H21      -6.8626    -2.0327     4.7874 H      1 <0>       0.1500
   22 N22      -1.3951    -2.3177     2.4939 N.pl3  1 <0>      -0.5500
   23 C23       0.8924    -4.7279     1.1640 C.2    1 <0>       0.5900
   24 O24       0.9613    -5.9427     1.1262 O.2    1 <0>      -0.4800
   25 N25       1.8535    -3.9638     0.6011 N.am   1 <0>      -0.5500
   26 C26       2.9910    -4.6062    -0.0619 C.3    1 <0>       0.1100
   27 C27       2.6596    -4.8324    -1.5383 C.3    1 <0>      -0.1400
   28 C28       3.8476    -5.5033    -2.2308 C.3    1 <0>      -0.1500
   29 C29       1.7778    -2.6230     0.6357 C.2    1 <0>       0.7100
   30 O30       2.6638    -1.9717     0.1166 O.2    1 <0>      -0.5300
   31 H31       1.0039     1.9031     0.0027 H      1 <0>       0.0600
   32 H32      -0.5459     1.8868    -0.8726 H      1 <0>       0.0600
   33 H33      -0.5289     1.8773     0.9072 H      1 <0>       0.0600
   34 H34      -1.0205    -0.3814     0.0098 H      1 <0>       0.0600
   35 H35       0.5123    -0.3556    -0.8948 H      1 <0>       0.0800
   36 H36       1.7647    -0.1336     1.2338 H      1 <0>       0.1100
   37 H37       0.2319    -0.1594     2.1383 H      1 <0>       0.0800
   38 H38      -3.5878    -2.6689     5.6132 H      1 <0>       0.0900
   39 H39      -2.5774    -1.6855     4.5093 H      1 <0>       0.0600
   40 H40      -5.5529    -1.5072     2.0391 H      1 <0>       0.0900
   41 H41      -3.7542    -1.3788     2.1125 H      1 <0>       0.0700
   42 H42      -1.6970    -1.4125     2.6684 H      1 <0>       0.4300
   43 H43       3.8686    -3.9648     0.0193 H      1 <0>       0.1000
   44 H44       3.1960    -5.5645     0.4154 H      1 <0>       0.1000
   45 H45       1.7820    -5.4738    -1.6196 H      1 <0>       0.0700
   46 H46       2.4546    -3.8741    -2.0156 H      1 <0>       0.0700
   47 H47       4.7251    -4.8618    -2.1495 H      1 <0>       0.0600
   48 H48       4.0525    -6.4615    -1.7535 H      1 <0>       0.0600
   49 H49       3.6114    -5.6644    -3.2826 H      1 <0>       0.0600
@<TRIPOS>BOND
   1    1    2 1
   2    1   31 1
   3    1   32 1
   4    1   33 1
   5    2    3 1
   6    2   34 1
   7    2   35 1
   8    3    4 1
   9    3   36 1
  10    3   37 1
  11    4   29 am
  12    4    5 1
  13    5   22 1
  14    5    6 2
  15    6    7 1
  16    6   23 1
  17    7    8 2
  18    8    9 1
  19    8   22 1
  20    9   10 1
  21    9   15 1
  22    9   11 1
  23   11   12 1
  24   11   38 1
  25   11   39 1
  26   12   13 1
  27   12   20 1
  28   12   14 1
  29   14   15 1
  30   14   40 1
  31   14   41 1
  32   15   16 1
  33   15   17 1
  34   17   18 1
  35   17   20 1
  36   17   19 1
  37   19   20 1
  38   20   21 1
  39   22   42 1
  40   23   24 2
  41   23   25 am
  42   25   26 1
  43   25   29 am
  44   26   27 1
  45   26   43 1
  46   26   44 1
  47   27   28 1
  48   27   45 1
  49   27   46 1
  50   28   47 1
  51   28   48 1
  52   28   49 1
  53   29   30 2
