@<TRIPOS>MOLECULE
ZINC000004097714
80    84    1     0     0
SMALL
USER_CHARGES
@<TRIPOS>ATOM
1      C1      1.3762   -2.0789   -0.5326 C.2      1 ZINC000004097714   -0.2200
2      C2      1.3571   -3.2556    0.0429 C.2      1 ZINC000004097714   -0.0900
3      C3      0.0622   -4.0182    0.1557 C.3      1 ZINC000004097714   -0.1200
4      C4      2.6315   -3.8472    0.5929 C.3      1 ZINC000004097714   -0.0500
5      H5      3.4686   -3.1788    0.4195 H        1 ZINC000004097714    0.0700
6      C6      2.8837   -5.2284   -0.0708 C.3      1 ZINC000004097714   -0.1000
7      C7      2.8625   -6.2634    1.0892 C.3      1 ZINC000004097714   -0.1000
8      C8      3.3584   -5.4061    2.2702 C.3      1 ZINC000004097714   -0.1300
9      C9      4.8221   -5.1038    2.0658 C.2      1 ZINC000004097714    0.5100
10     O10     5.4074   -5.5521    1.0947 O.co2    1 ZINC000004097714   -0.7000
11     O11     5.4199   -4.4111    2.8716 O.co2    1 ZINC000004097714   -0.6800
12     C12     3.1198   -5.9842    3.6451 C.3      1 ZINC000004097714   -0.0800
13     C13     3.4846   -4.9288    4.7007 C.3      1 ZINC000004097714   -0.1100
14     C14     2.7331   -3.6181    4.4893 C.3      1 ZINC000004097714   -0.0200
15     C15     1.2478   -3.9064    4.7396 C.3      1 ZINC000004097714   -0.1500
16     C16     2.9173   -3.0842    3.0621 C.3      1 ZINC000004097714   -0.0600
17     H17     3.9733   -2.8544    2.8781 H        1 ZINC000004097714    0.1000
18     C18     2.1312   -1.7871    2.8681 C.3      1 ZINC000004097714   -0.1100
19     C19     2.6004   -0.7348    3.8816 C.3      1 ZINC000004097714   -0.1100
20     C20     2.4051   -1.2845    5.2913 C.3      1 ZINC000004097714   -0.0600
21     H21     1.3247   -1.5415    5.3738 H        1 ZINC000004097714    0.0600
22     C22     2.6107   -0.2055    6.3570 C.3      1 ZINC000004097714   -0.0300
23     C23     3.9677    0.4694    6.2099 C.3      1 ZINC000004097714   -0.1500
24     C24     1.5247    0.8679    6.1551 C.3      1 ZINC000004097714   -0.1100
25     C25     1.6224    1.9092    7.2666 C.3      1 ZINC000004097714   -0.1500
26     C26     1.3585    1.2624    8.6196 C.3      1 ZINC000004097714    0.1200
27     H27     0.3302    0.8842    8.6423 H        1 ZINC000004097714    0.0500
28     O28     1.5031    2.2430    9.6532 O.3      1 ZINC000004097714   -0.5700
29     C29     2.3151    0.1009    8.8957 C.3      1 ZINC000004097714   -0.0400
30     C30     3.6782    0.6373    9.3297 C.3      1 ZINC000004097714   -0.1300
31     C31     1.7259   -0.6701   10.1023 C.3      1 ZINC000004097714   -0.1500
32     C32     2.4010   -0.8467    7.7227 C.3      1 ZINC000004097714   -0.0600
33     H33     1.4008   -1.3530    7.6620 H        1 ZINC000004097714    0.0500
34     C34     3.4079   -1.9756    7.9290 C.3      1 ZINC000004097714   -0.1100
35     C35     3.0731   -3.0855    6.9185 C.3      1 ZINC000004097714   -0.1100
36     C36     3.2152   -2.5544    5.4926 C.3      1 ZINC000004097714   -0.0200
37     C37     4.7109   -2.3178    5.2266 C.3      1 ZINC000004097714   -0.1400
38     C38     2.4746   -4.1473    2.0850 C.3      1 ZINC000004097714   -0.0500
39     H39     1.4268   -4.4123    2.2565 H        1 ZINC000004097714    0.0600
40     H40     2.3042   -1.5324   -0.6134 H        1 ZINC000004097714    0.0900
41     H41     0.4649   -1.6574   -0.9302 H        1 ZINC000004097714    0.0900
42     H42    -0.0659   -4.6487   -0.7241 H        1 ZINC000004097714    0.0600
43     H43     0.0845   -4.6418    1.0495 H        1 ZINC000004097714    0.0700
44     H44    -0.7685   -3.3157    0.2234 H        1 ZINC000004097714    0.0600
45     H45     2.0816   -5.4484   -0.7768 H        1 ZINC000004097714    0.0400
46     H46     3.8435   -5.2372   -0.5787 H        1 ZINC000004097714    0.0800
47     H47     1.8550   -6.6237    1.2754 H        1 ZINC000004097714    0.0400
48     H48     3.5530   -7.0801    0.8952 H        1 ZINC000004097714    0.0600
49     H49     2.0800   -6.2918    3.7527 H        1 ZINC000004097714    0.0400
50     H50     3.7569   -6.8662    3.7851 H        1 ZINC000004097714    0.0400
51     H51     3.2050   -5.3260    5.6854 H        1 ZINC000004097714    0.0300
52     H52     4.5567   -4.7740    4.6969 H        1 ZINC000004097714    0.1000
53     H53     1.1145   -4.2662    5.7599 H        1 ZINC000004097714    0.0400
54     H54     0.6714   -2.9921    4.5986 H        1 ZINC000004097714    0.0500
55     H55     0.9019   -4.6658    4.0384 H        1 ZINC000004097714    0.0500
56     H56     2.3298   -1.3984    1.8635 H        1 ZINC000004097714    0.0500
57     H57     1.0659   -1.9553    2.9762 H        1 ZINC000004097714    0.0500
58     H58     3.6366   -0.4840    3.6863 H        1 ZINC000004097714    0.0700
59     H59     1.9871    0.1621    3.7532 H        1 ZINC000004097714    0.0500
60     H60     4.1145    0.7679    5.1719 H        1 ZINC000004097714    0.0600
61     H61     4.0066    1.3505    6.8503 H        1 ZINC000004097714    0.0500
62     H62     4.7535   -0.2272    6.5022 H        1 ZINC000004097714    0.0700
63     H63     1.6754    1.3492    5.1898 H        1 ZINC000004097714    0.0700
64     H64     0.5462    0.3909    6.1815 H        1 ZINC000004097714    0.0600
65     H65     2.5886    2.4045    7.2600 H        1 ZINC000004097714    0.0800
66     H66     0.8556    2.6786    7.0899 H        1 ZINC000004097714    0.0500
67     H67     0.8973    2.9924    9.5719 H        1 ZINC000004097714    0.3700
68     H68     3.5836    1.1291   10.2978 H        1 ZINC000004097714    0.0600
69     H69     4.3851   -0.1885    9.4092 H        1 ZINC000004097714    0.0500
70     H70     4.0383    1.3541    8.5917 H        1 ZINC000004097714    0.0600
71     H71     0.7303   -1.0349    9.8494 H        1 ZINC000004097714    0.0500
72     H72     2.3715   -1.5143   10.3445 H        1 ZINC000004097714    0.0600
73     H73     1.6610   -0.0039   10.9626 H        1 ZINC000004097714    0.0600
74     H74     4.4248   -1.6344    7.7894 H        1 ZINC000004097714    0.0700
75     H75     3.3107   -2.3943    8.9328 H        1 ZINC000004097714    0.0500
76     H76     3.7641   -3.9157    7.0700 H        1 ZINC000004097714    0.0600
77     H77     2.0567   -3.4202    7.1115 H        1 ZINC000004097714    0.0600
78     H78     5.2300   -3.2756    5.1933 H        1 ZINC000004097714    0.0700
79     H79     4.8335   -1.8046    4.2728 H        1 ZINC000004097714    0.0600
80     H80     5.1295   -1.7053    6.0252 H        1 ZINC000004097714    0.0400
@<TRIPOS>BOND
1     1     2     2
2     1     40    1
3     1     41    1
4     2     3     1
5     2     4     1
6     3     42    1
7     3     43    1
8     3     44    1
9     4     5     1
10    4     38    1
11    4     6     1
12    6     7     1
13    6     45    1
14    6     46    1
15    7     8     1
16    7     47    1
17    7     48    1
18    8     38    1
19    8     9     1
20    8     12    1
21    9     10    ar
22    9     11    ar
23    12    13    1
24    12    49    1
25    12    50    1
26    13    14    1
27    13    51    1
28    13    52    1
29    14    36    1
30    14    15    1
31    14    16    1
32    15    53    1
33    15    54    1
34    15    55    1
35    16    17    1
36    16    18    1
37    16    38    1
38    18    19    1
39    18    56    1
40    18    57    1
41    19    20    1
42    19    58    1
43    19    59    1
44    20    21    1
45    20    36    1
46    20    22    1
47    22    32    1
48    22    23    1
49    22    24    1
50    23    60    1
51    23    61    1
52    23    62    1
53    24    25    1
54    24    63    1
55    24    64    1
56    25    26    1
57    25    65    1
58    25    66    1
59    26    27    1
60    26    28    1
61    26    29    1
62    28    67    1
63    29    30    1
64    29    31    1
65    29    32    1
66    30    68    1
67    30    69    1
68    30    70    1
69    31    71    1
70    31    72    1
71    31    73    1
72    32    33    1
73    32    34    1
74    34    35    1
75    34    74    1
76    34    75    1
77    35    36    1
78    35    76    1
79    35    77    1
80    36    37    1
81    37    78    1
82    37    79    1
83    37    80    1
84    38    39    1
@<TRIPOS>SUBSTRUCTURE
1   ZINC000004097714 1     RESIDUE    1   A     ZIN   1
