@<TRIPOS>MOLECULE
ZINC000019364221
40    39    1     0     0
SMALL
USER_CHARGES
@<TRIPOS>ATOM
1      C1      0.1640    1.6255    0.2643 C.3      1 ZINC000019364221   -0.1800
2      C2      0.0596    0.1084    0.0959 C.3      1 ZINC000019364221   -0.1500
3      C3      0.7189   -0.3051   -1.2213 C.3      1 ZINC000019364221    0.0300
4      H4      0.2723    0.2551   -2.0428 H        1 ZINC000019364221    0.1600
5      C5      0.5059   -1.8028   -1.4502 C.3      1 ZINC000019364221    0.0500
6      O6      0.9876   -2.5308   -0.3188 O.3      1 ZINC000019364221   -0.5800
7      N7      2.1585   -0.0191   -1.1593 N.4      1 ZINC000019364221   -0.5000
8      H8      2.2986    0.9527   -0.9269 H        1 ZINC000019364221    0.4300
9      H9      2.5864   -0.5989   -0.4530 H        1 ZINC000019364221    0.4400
10     C10     2.7710   -0.3039   -2.4638 C.3      1 ZINC000019364221   -0.0400
11     C11     4.2703   -0.0060   -2.3991 C.3      1 ZINC000019364221   -0.0400
12     N12     4.8828   -0.2907   -3.7036 N.4      1 ZINC000019364221   -0.5000
13     H13     4.8190   -1.2791   -3.8966 H        1 ZINC000019364221    0.4400
14     H14     4.3974    0.2244   -4.4227 H        1 ZINC000019364221    0.4300
15     C15     6.2949    0.1134   -3.6803 C.3      1 ZINC000019364221    0.0300
16     H16     6.3692    1.1566   -3.3732 H        1 ZINC000019364221    0.1600
17     C17     6.8956   -0.0509   -5.0778 C.3      1 ZINC000019364221   -0.1500
18     C18     6.2169    0.9235   -6.0425 C.3      1 ZINC000019364221   -0.1800
19     C19     7.0606   -0.7656   -2.6894 C.3      1 ZINC000019364221    0.0500
20     O20     7.0619   -2.1171   -3.1537 O.3      1 ZINC000019364221   -0.5800
21     H21     1.2138    1.9184    0.2759 H        1 ZINC000019364221    0.0500
22     H22    -0.3418    2.1189   -0.5657 H        1 ZINC000019364221    0.0700
23     H23    -0.3058    1.9201    1.2028 H        1 ZINC000019364221    0.0900
24     H24     0.5653   -0.3850    0.9260 H        1 ZINC000019364221    0.1000
25     H25    -0.9903   -0.1845    0.0844 H        1 ZINC000019364221    0.1200
26     H26    -0.5572   -2.0022   -1.5848 H        1 ZINC000019364221    0.1000
27     H27     1.0499   -2.1151   -2.3416 H        1 ZINC000019364221    0.0700
28     H28     0.8844   -3.4893   -0.3948 H        1 ZINC000019364221    0.4200
29     H29     2.6196   -1.3537   -2.7148 H        1 ZINC000019364221    0.1500
30     H30     2.3087    0.3225   -3.2267 H        1 ZINC000019364221    0.1600
31     H31     4.4217    1.0439   -2.1481 H        1 ZINC000019364221    0.1600
32     H32     4.7326   -0.6323   -1.6362 H        1 ZINC000019364221    0.1500
33     H33     7.9645    0.1595   -5.0409 H        1 ZINC000019364221    0.1200
34     H34     6.7383   -1.0728   -5.4230 H        1 ZINC000019364221    0.1000
35     H35     6.7062    0.8718   -7.0151 H        1 ZINC000019364221    0.0900
36     H36     5.1658    0.6557   -6.1498 H        1 ZINC000019364221    0.0500
37     H37     6.2953    1.9373   -5.6498 H        1 ZINC000019364221    0.0700
38     H38     8.0873   -0.4093   -2.6057 H        1 ZINC000019364221    0.1000
39     H39     6.5785   -0.7174   -1.7130 H        1 ZINC000019364221    0.0700
40     H40     7.5309   -2.7320   -2.5732 H        1 ZINC000019364221    0.4200
@<TRIPOS>BOND
1     1     2     1
2     1     21    1
3     1     22    1
4     1     23    1
5     2     3     1
6     2     24    1
7     2     25    1
8     3     4     1
9     3     5     1
10    3     7     1
11    5     6     1
12    5     26    1
13    5     27    1
14    6     28    1
15    7     8     1
16    7     9     1
17    7     10    1
18    10    11    1
19    10    29    1
20    10    30    1
21    11    12    1
22    11    31    1
23    11    32    1
24    12    13    1
25    12    14    1
26    12    15    1
27    15    16    1
28    15    17    1
29    15    19    1
30    17    18    1
31    17    33    1
32    17    34    1
33    18    35    1
34    18    36    1
35    18    37    1
36    19    20    1
37    19    38    1
38    19    39    1
39    20    40    1
@<TRIPOS>SUBSTRUCTURE
1   ZINC000019364221 1     RESIDUE    1   A     ZIN   1
