@<TRIPOS>MOLECULE
ZINC000022065946
57    59    1     0     0
SMALL
USER_CHARGES
@<TRIPOS>ATOM
1      C1     -1.6445    1.3444   -1.5166 C.3      1 ZINC000022065946    0.0300
2      O2     -1.7119   -0.0803   -1.4297 O.3      1 ZINC000022065946   -0.3500
3      C3     -1.2310   -0.6489   -0.3042 C.2      1 ZINC000022065946    0.5300
4      O4     -0.7671    0.0478    0.5791 O.2      1 ZINC000022065946   -0.4900
5      C5     -1.2662   -2.0543   -0.1513 C.2      1 ZINC000022065946   -0.2300
6      C6     -2.4388   -2.6584    0.1077 C.2      1 ZINC000022065946    0.1900
7      C7     -3.6931   -1.8310    0.2221 C.3      1 ZINC000022065946   -0.1300
8      N8     -2.5075   -4.0154    0.2683 N.pl3    1 ZINC000022065946   -0.6300
9      C9     -1.3750   -4.7380    0.5278 C.2      1 ZINC000022065946    0.2500
10     C10    -1.4935   -6.1309    1.0907 C.3      1 ZINC000022065946   -0.1200
11     C11    -0.1580   -4.2208    0.2863 C.2      1 ZINC000022065946   -0.2600
12     C12     0.9913   -4.9932    0.5734 C.2      1 ZINC000022065946    0.5200
13     O13     0.8722   -6.1133    1.0339 O.2      1 ZINC000022065946   -0.5200
14     O14     2.2201   -4.4882    0.3366 O.3      1 ZINC000022065946   -0.3400
15     C15     3.3363   -5.3236    0.6502 C.3      1 ZINC000022065946    0.1000
16     C16     4.6153   -4.5973    0.3218 C.2      1 ZINC000022065946   -0.1500
17     C17     5.6254   -4.6125    1.1801 C.2      1 ZINC000022065946   -0.0900
18     C18     6.8798   -3.9001    0.8580 C.ar     1 ZINC000022065946   -0.0600
19     C19     7.0019   -3.2059   -0.3462 C.ar     1 ZINC000022065946   -0.1100
20     C20     8.1755   -2.5430   -0.6410 C.ar     1 ZINC000022065946   -0.1200
21     C21     9.2300   -2.5660    0.2542 C.ar     1 ZINC000022065946   -0.1200
22     C22     9.1155   -3.2529    1.4497 C.ar     1 ZINC000022065946   -0.1200
23     C23     7.9449   -3.9143    1.7593 C.ar     1 ZINC000022065946   -0.1100
24     C24     0.0067   -2.8406   -0.2880 C.3      1 ZINC000022065946    0.0900
25     H25     0.8021   -2.3218    0.2470 H        1 ZINC000022065946    0.1000
26     C26     0.3780   -2.9503   -1.7445 C.ar     1 ZINC000022065946   -0.0700
27     C27    -0.4765   -3.5796   -2.6300 C.ar     1 ZINC000022065946   -0.0500
28     C28    -0.1358   -3.6802   -3.9661 C.ar     1 ZINC000022065946   -0.1200
29     C29     1.0590   -3.1511   -4.4164 C.ar     1 ZINC000022065946   -0.0600
30     C30     1.9133   -2.5207   -3.5308 C.ar     1 ZINC000022065946   -0.0400
31     N31     3.1931   -1.9545   -4.0129 N.pl3    1 ZINC000022065946    0.0300
32     O32     3.4936   -2.0439   -5.1899 O.2      1 ZINC000022065946   -0.1600
33     O33     3.9457   -1.3992   -3.2327 O.2      1 ZINC000022065946   -0.1600
34     C34     1.5707   -2.4164   -2.1958 C.ar     1 ZINC000022065946   -0.0400
35     H35    -2.0630    1.6706   -2.4687 H        1 ZINC000022065946    0.1000
36     H36    -2.2145    1.7857   -0.6990 H        1 ZINC000022065946    0.0600
37     H37    -0.6046    1.6638   -1.4484 H        1 ZINC000022065946    0.0600
38     H38    -4.1356   -1.7034   -0.7658 H        1 ZINC000022065946    0.1000
39     H39    -4.4036   -2.3367    0.8759 H        1 ZINC000022065946    0.0900
40     H40    -3.4473   -0.8543    0.6390 H        1 ZINC000022065946    0.0900
41     H41    -3.3630   -4.4672    0.1982 H        1 ZINC000022065946    0.4300
42     H42    -2.5462   -6.3821    1.2203 H        1 ZINC000022065946    0.0700
43     H43    -1.0325   -6.8408    0.4039 H        1 ZINC000022065946    0.1000
44     H44    -0.9875   -6.1773    2.0550 H        1 ZINC000022065946    0.1100
45     H45     3.3199   -5.5683    1.7122 H        1 ZINC000022065946    0.0800
46     H46     3.2791   -6.2413    0.0649 H        1 ZINC000022065946    0.0800
47     H47     4.7089   -4.0643   -0.6129 H        1 ZINC000022065946    0.1200
48     H48     5.5318   -5.1455    2.1148 H        1 ZINC000022065946    0.1200
49     H49     6.1796   -3.1878   -1.0462 H        1 ZINC000022065946    0.1300
50     H50     8.2713   -2.0053   -1.5727 H        1 ZINC000022065946    0.1300
51     H51    10.1467   -2.0458    0.0187 H        1 ZINC000022065946    0.1200
52     H52     9.9426   -3.2677    2.1440 H        1 ZINC000022065946    0.1200
53     H53     7.8566   -4.4499    2.6930 H        1 ZINC000022065946    0.1200
54     H54    -1.4101   -3.9931   -2.2781 H        1 ZINC000022065946    0.1300
55     H55    -0.8031   -4.1726   -4.6580 H        1 ZINC000022065946    0.1500
56     H56     1.3254   -3.2303   -5.4601 H        1 ZINC000022065946    0.1500
57     H57     2.2381   -1.9240   -1.5040 H        1 ZINC000022065946    0.1500
@<TRIPOS>BOND
1     1     2     1
2     1     35    1
3     1     36    1
4     1     37    1
5     2     3     1
6     3     4     2
7     3     5     1
8     5     24    1
9     5     6     2
10    6     7     1
11    6     8     1
12    7     38    1
13    7     39    1
14    7     40    1
15    8     9     1
16    8     41    1
17    9     10    1
18    9     11    2
19    10    42    1
20    10    43    1
21    10    44    1
22    11    12    1
23    11    24    1
24    12    13    2
25    12    14    1
26    14    15    1
27    15    16    1
28    15    45    1
29    15    46    1
30    16    17    2
31    16    47    1
32    17    18    1
33    17    48    1
34    18    23    ar
35    18    19    ar
36    19    20    ar
37    19    49    1
38    20    21    ar
39    20    50    1
40    21    22    ar
41    21    51    1
42    22    23    ar
43    22    52    1
44    23    53    1
45    24    25    1
46    24    26    1
47    26    34    ar
48    26    27    ar
49    27    28    ar
50    27    54    1
51    28    29    ar
52    28    55    1
53    29    30    ar
54    29    56    1
55    30    31    1
56    30    34    ar
57    31    32    2
58    31    33    2
59    34    57    1
@<TRIPOS>SUBSTRUCTURE
1   ZINC000022065946 1     RESIDUE    1   A     ZIN   1
