@<TRIPOS>MOLECULE
ZINC000003964224
74    77    1     0     0
SMALL
USER_CHARGES
@<TRIPOS>ATOM
1      C1      0.0027    1.4989    0.3364 C.3      1 ZINC000003964224   -0.1500
2      C2      0.0089   -0.0127    0.0995 C.3      1 ZINC000003964224    0.0700
3      O3     -1.3278   -0.5122    0.1757 O.3      1 ZINC000003964224   -0.2200
4      N4     -1.4333   -1.9091   -0.0304 N.2      1 ZINC000003964224   -0.3200
5      C5     -2.5912   -2.4837    0.0135 C.2      1 ZINC000003964224    0.1700
6      C6     -3.8154   -1.6686    0.1410 C.ar     1 ZINC000003964224   -0.0900
7      C7     -3.8813   -0.4055   -0.4505 C.ar     1 ZINC000003964224   -0.0700
8      C8     -5.0280    0.3510   -0.3282 C.ar     1 ZINC000003964224   -0.0900
9      C9     -6.1122   -0.1394    0.3797 C.ar     1 ZINC000003964224   -0.0700
10     Br10   -7.6803    0.9047    0.5430 Br       1 ZINC000003964224   -0.0300
11     C11    -6.0532   -1.3913    0.9682 C.ar     1 ZINC000003964224   -0.0900
12     C12    -4.9142   -2.1598    0.8486 C.ar     1 ZINC000003964224   -0.0900
13     C13    -2.6907   -3.9853   -0.0656 C.3      1 ZINC000003964224   -0.0400
14     C14    -3.4092   -4.3836   -1.3580 C.3      1 ZINC000003964224   -0.1400
15     C15    -3.4365   -5.9094   -1.4707 C.3      1 ZINC000003964224   -0.0100
16     N16    -2.0629   -6.4265   -1.4934 N.4      1 ZINC000003964224   -0.3800
17     H17    -1.5575   -6.0021   -2.2566 H        1 ZINC000003964224    0.4200
18     C18    -2.0929   -7.8836   -1.6781 C.3      1 ZINC000003964224    0.0600
19     C19    -2.8617   -8.5281   -0.5230 C.3      1 ZINC000003964224   -0.1800
20     C20    -2.7875   -8.2157   -3.0007 C.3      1 ZINC000003964224   -0.1500
21     C21    -2.8476   -9.7367   -3.1734 C.3      1 ZINC000003964224    0.1100
22     N22    -1.4881  -10.2805   -3.0526 N.am     1 ZINC000003964224   -0.6100
23     C23    -0.9759  -11.0696   -4.0177 C.2      1 ZINC000003964224    0.5800
24     O24    -1.6400  -11.3376   -4.9998 O.2      1 ZINC000003964224   -0.4900
25     C25     0.3939  -11.6092   -3.8819 C.ar     1 ZINC000003964224   -0.1500
26     C26     0.6139  -12.8436   -3.2597 C.ar     1 ZINC000003964224   -0.0100
27     C27    -0.5367  -13.6504   -2.7153 C.3      1 ZINC000003964224   -0.1300
28     C28     1.9148  -13.3047   -3.1575 C.ar     1 ZINC000003964224   -0.1300
29     C29     2.9467  -12.5390   -3.6684 C.ar     1 ZINC000003964224    0.1000
30     N30     2.7100  -11.3773   -4.2502 N.ar     1 ZINC000003964224   -0.1200
31     O31     3.7985  -10.6278   -4.7586 O.3      1 ZINC000003964224   -0.5300
32     C32     1.4885  -10.8991   -4.3769 C.ar     1 ZINC000003964224    0.1400
33     C33     1.2732   -9.5678   -5.0494 C.3      1 ZINC000003964224   -0.1200
34     C34    -0.6973   -9.9473   -1.8600 C.3      1 ZINC000003964224    0.1100
35     C35    -0.6612   -8.4240   -1.7020 C.3      1 ZINC000003964224   -0.1600
36     C36    -1.3907   -6.1104   -0.2275 C.3      1 ZINC000003964224   -0.0200
37     C37    -1.2847   -4.5924   -0.0670 C.3      1 ZINC000003964224   -0.1300
38     H38     1.0223    1.8799    0.2783 H        1 ZINC000003964224    0.0800
39     H39    -0.6101    1.9833   -0.4238 H        1 ZINC000003964224    0.0700
40     H40    -0.4085    1.7103    1.3235 H        1 ZINC000003964224    0.0700
41     H41     0.4200   -0.2241   -0.8875 H        1 ZINC000003964224    0.0600
42     H42     0.6216   -0.4971    0.8598 H        1 ZINC000003964224    0.0600
43     H43    -3.0360   -0.0216   -1.0023 H        1 ZINC000003964224    0.1400
44     H44    -5.0803    1.3282   -0.7852 H        1 ZINC000003964224    0.1400
45     H45    -6.9024   -1.7685    1.5188 H        1 ZINC000003964224    0.1400
46     H46    -4.8694   -3.1362    1.3081 H        1 ZINC000003964224    0.1300
47     H47    -3.2484   -4.3594    0.7930 H        1 ZINC000003964224    0.1200
48     H48    -4.4300   -4.0017   -1.3395 H        1 ZINC000003964224    0.1200
49     H49    -2.8788   -3.9649   -2.2133 H        1 ZINC000003964224    0.0900
50     H50    -3.9673   -6.3270   -0.6152 H        1 ZINC000003964224    0.1400
51     H51    -3.9475   -6.1964   -2.3897 H        1 ZINC000003964224    0.1400
52     H52    -3.8813   -8.1429   -0.5055 H        1 ZINC000003964224    0.0900
53     H53    -2.8840   -9.6092   -0.6598 H        1 ZINC000003964224    0.1100
54     H54    -2.3676   -8.2912    0.4193 H        1 ZINC000003964224    0.0900
55     H55    -3.7992   -7.8102   -2.9922 H        1 ZINC000003964224    0.1100
56     H56    -2.2265   -7.7778   -3.8263 H        1 ZINC000003964224    0.0900
57     H57    -3.4835  -10.1674   -2.3999 H        1 ZINC000003964224    0.0900
58     H58    -3.2513   -9.9771   -4.1569 H        1 ZINC000003964224    0.1200
59     H59    -0.9106  -14.3190   -3.4907 H        1 ZINC000003964224    0.1000
60     H60    -0.1973  -14.2375   -1.8620 H        1 ZINC000003964224    0.0900
61     H61    -1.3346  -12.9782   -2.3995 H        1 ZINC000003964224    0.0700
62     H62     2.1220  -14.2527   -2.6834 H        1 ZINC000003964224    0.1800
63     H63     3.9628  -12.8965   -3.5899 H        1 ZINC000003964224    0.1900
64     H64     1.1302   -9.7200   -6.1192 H        1 ZINC000003964224    0.1000
65     H65     0.3895   -9.0873   -4.6294 H        1 ZINC000003964224    0.0700
66     H66     2.1442   -8.9331   -4.8859 H        1 ZINC000003964224    0.1100
67     H67    -1.1578  -10.3952   -0.9794 H        1 ZINC000003964224    0.0900
68     H68     0.3178  -10.3267   -1.9769 H        1 ZINC000003964224    0.1000
69     H69    -0.1203   -7.9840   -2.5398 H        1 ZINC000003964224    0.1000
70     H70    -0.1596   -8.1667   -0.7691 H        1 ZINC000003964224    0.1100
71     H71    -1.9651   -6.5238    0.6015 H        1 ZINC000003964224    0.1300
72     H72    -0.3914   -6.5458   -0.2287 H        1 ZINC000003964224    0.1400
73     H73    -0.7102   -4.1780   -0.8954 H        1 ZINC000003964224    0.1000
74     H74    -0.7869   -4.3597    0.8743 H        1 ZINC000003964224    0.1200
@<TRIPOS>BOND
1     1     2     1
2     1     38    1
3     1     39    1
4     1     40    1
5     2     3     1
6     2     41    1
7     2     42    1
8     3     4     1
9     4     5     2
10    5     6     1
11    5     13    1
12    6     12    ar
13    6     7     ar
14    7     8     ar
15    7     43    1
16    8     9     ar
17    8     44    1
18    9     10    1
19    9     11    ar
20    11    12    ar
21    11    45    1
22    12    46    1
23    13    37    1
24    13    14    1
25    13    47    1
26    14    15    1
27    14    48    1
28    14    49    1
29    15    16    1
30    15    50    1
31    15    51    1
32    16    17    1
33    16    18    1
34    16    36    1
35    18    35    1
36    18    19    1
37    18    20    1
38    19    52    1
39    19    53    1
40    19    54    1
41    20    21    1
42    20    55    1
43    20    56    1
44    21    22    1
45    21    57    1
46    21    58    1
47    22    23    am
48    22    34    1
49    23    24    2
50    23    25    1
51    25    32    ar
52    25    26    ar
53    26    27    1
54    26    28    ar
55    27    59    1
56    27    60    1
57    27    61    1
58    28    29    ar
59    28    62    1
60    29    30    ar
61    29    63    1
62    30    31    1
63    30    32    ar
64    32    33    1
65    33    64    1
66    33    65    1
67    33    66    1
68    34    35    1
69    34    67    1
70    34    68    1
71    35    69    1
72    35    70    1
73    36    37    1
74    36    71    1
75    36    72    1
76    37    73    1
77    37    74    1
@<TRIPOS>SUBSTRUCTURE
1   ZINC000003964224 1     RESIDUE    1   A     ZIN   1
