@<TRIPOS>MOLECULE
ZINC000038342901
50    52    1     0     0
SMALL
USER_CHARGES
@<TRIPOS>ATOM
1      C1      1.4330   -5.8626   -2.7680 C.3      1 ZINC000038342901    0.0200
2      O2      0.9560   -4.9186   -1.8072 O.3      1 ZINC000038342901   -0.3000
3      C3      0.8037   -5.3605   -0.5306 C.ar     1 ZINC000038342901    0.1300
4      C4      1.1127   -6.6738   -0.2093 C.ar     1 ZINC000038342901   -0.1800
5      C5      0.9574   -7.1217    1.0886 C.ar     1 ZINC000038342901   -0.1100
6      C6      0.4937   -6.2602    2.0679 C.ar     1 ZINC000038342901    0.0500
7      F7      0.3423   -6.6995    3.3365 F        1 ZINC000038342901   -0.1500
8      C8      0.1852   -4.9486    1.7486 C.ar     1 ZINC000038342901   -0.0800
9      C9      0.3445   -4.4967    0.4530 C.ar     1 ZINC000038342901   -0.0600
10     C10     0.0086   -3.0693    0.1058 C.3      1 ZINC000038342901   -0.1000
11     C11    -1.4215   -2.9984   -0.4332 C.3      1 ZINC000038342901    0.1600
12     O12    -1.7841   -1.6323   -0.6438 O.3      1 ZINC000038342901   -0.5400
13     C13    -1.5053   -3.7585   -1.7584 C.3      1 ZINC000038342901   -0.0600
14     C14    -2.9626   -3.8119   -2.2272 C.3      1 ZINC000038342901   -0.1500
15     C15    -3.0268   -4.5046   -3.5909 C.3      1 ZINC000038342901    0.0600
16     O16    -2.2006   -3.8007   -4.5205 O.3      1 ZINC000038342901   -0.3800
17     C17    -0.8189   -3.7591   -4.1581 C.3      1 ZINC000038342901    0.0600
18     C18    -0.6661   -3.0365   -2.8171 C.3      1 ZINC000038342901   -0.1400
19     C19    -2.3797   -3.6302    0.5786 C.3      1 ZINC000038342901    0.0700
20     H20    -3.3988   -3.5800    0.1951 H        1 ZINC000038342901    0.0800
21     C21    -2.2949   -2.8716    1.9057 C.3      1 ZINC000038342901    0.0100
22     N22    -3.1593   -3.5294    2.8963 N.3      1 ZINC000038342901   -0.6800
23     C23    -2.7573   -4.9302    3.0899 C.3      1 ZINC000038342901    0.0200
24     C24    -2.8375   -5.6682    1.7509 C.3      1 ZINC000038342901    0.0600
25     O25    -2.0163   -4.9969    0.7915 O.3      1 ZINC000038342901   -0.3500
26     H26     2.4151   -6.2252   -2.4645 H        1 ZINC000038342901    0.0600
27     H27     0.7391   -6.7010   -2.8291 H        1 ZINC000038342901    0.0600
28     H28     1.5087   -5.3818   -3.7433 H        1 ZINC000038342901    0.1000
29     H29     1.4742   -7.3462   -0.9732 H        1 ZINC000038342901    0.1300
30     H30     1.1976   -8.1444    1.3390 H        1 ZINC000038342901    0.1300
31     H31    -0.1765   -4.2775    2.5136 H        1 ZINC000038342901    0.1300
32     H32     0.0917   -2.4491    0.9983 H        1 ZINC000038342901    0.0700
33     H33     0.7016   -2.7074   -0.6538 H        1 ZINC000038342901    0.0900
34     H34    -1.7533   -1.0894    0.1558 H        1 ZINC000038342901    0.3700
35     H35    -1.1273   -4.7717   -1.6221 H        1 ZINC000038342901    0.1000
36     H36    -3.5570   -4.3725   -1.5056 H        1 ZINC000038342901    0.0700
37     H37    -3.3546   -2.7986   -2.3145 H        1 ZINC000038342901    0.0800
38     H38    -2.6725   -5.5309   -3.4944 H        1 ZINC000038342901    0.0500
39     H39    -4.0562   -4.5074   -3.9491 H        1 ZINC000038342901    0.0900
40     H40    -0.4358   -4.7756   -4.0690 H        1 ZINC000038342901    0.0500
41     H41    -0.2579   -3.2249   -4.9249 H        1 ZINC000038342901    0.0900
42     H42    -1.0117   -2.0075   -2.9164 H        1 ZINC000038342901    0.0700
43     H43     0.3819   -3.0425   -2.5175 H        1 ZINC000038342901    0.0800
44     H44    -1.2648   -2.8753    2.2619 H        1 ZINC000038342901    0.0400
45     H45    -2.6263   -1.8436    1.7591 H        1 ZINC000038342901    0.0800
46     H46    -3.1534   -3.0273    3.7715 H        1 ZINC000038342901    0.3500
47     H47    -1.7346   -4.9669    3.4650 H        1 ZINC000038342901    0.0400
48     H48    -3.4262   -5.4050    3.8077 H        1 ZINC000038342901    0.0900
49     H49    -2.4859   -6.6921    1.8780 H        1 ZINC000038342901    0.1000
50     H50    -3.8701   -5.6779    1.4019 H        1 ZINC000038342901    0.0600
@<TRIPOS>BOND
1     1     2     1
2     1     26    1
3     1     27    1
4     1     28    1
5     2     3     1
6     3     9     ar
7     3     4     ar
8     4     5     ar
9     4     29    1
10    5     6     ar
11    5     30    1
12    6     7     1
13    6     8     ar
14    8     9     ar
15    8     31    1
16    9     10    1
17    10    11    1
18    10    32    1
19    10    33    1
20    11    12    1
21    11    13    1
22    11    19    1
23    12    34    1
24    13    18    1
25    13    14    1
26    13    35    1
27    14    15    1
28    14    36    1
29    14    37    1
30    15    16    1
31    15    38    1
32    15    39    1
33    16    17    1
34    17    18    1
35    17    40    1
36    17    41    1
37    18    42    1
38    18    43    1
39    19    20    1
40    19    25    1
41    19    21    1
42    21    22    1
43    21    44    1
44    21    45    1
45    22    23    1
46    22    46    1
47    23    24    1
48    23    47    1
49    23    48    1
50    24    25    1
51    24    49    1
52    24    50    1
@<TRIPOS>SUBSTRUCTURE
1   ZINC000038342901 1     RESIDUE    1   A     ZIN   1
