@<TRIPOS>MOLECULE
ZINC000000597112
48    51    1     0     0
SMALL
USER_CHARGES
@<TRIPOS>ATOM
1      C1     -0.0390    1.5613   -0.0114 C.3      1 ZINC000000597112   -0.1900
2      C2     -0.0116    0.0316   -0.0225 C.3      1 ZINC000000597112   -0.0100
3      N3     -1.3875   -0.4829   -0.0080 N.4      1 ZINC000000597112   -0.3900
4      H4     -1.8831   -0.0950    0.7807 H        1 ZINC000000597112    0.4200
5      C5     -1.3612   -1.9473    0.1028 C.3      1 ZINC000000597112    0.0000
6      C6     -2.7945   -2.4823    0.1370 C.3      1 ZINC000000597112    0.0300
7      N7     -3.4943   -2.0791   -1.0910 N.3      1 ZINC000000597112   -0.4900
8      C8     -4.7878   -2.5943   -1.1204 C.ar     1 ZINC000000597112    0.0800
9      C9     -5.6868   -2.2513   -0.1237 C.ar     1 ZINC000000597112   -0.1900
10     C10    -6.9783   -2.7644   -0.1512 C.ar     1 ZINC000000597112    0.2100
11     C11    -7.3517   -3.6280   -1.1969 C.ar     1 ZINC000000597112   -0.1600
12     C12    -6.4340   -3.9654   -2.1951 C.ar     1 ZINC000000597112   -0.0500
13     C13    -5.1702   -3.4486   -2.1583 C.ar     1 ZINC000000597112    0.0800
14     F14    -4.2823   -3.7738   -3.1232 F        1 ZINC000000597112   -0.1300
15     C15    -8.7230   -4.1642   -1.2134 C.2      1 ZINC000000597112    0.4100
16     O16    -9.0999   -4.9165   -2.0950 O.2      1 ZINC000000597112   -0.4300
17     C17    -9.6200   -3.7534   -0.1193 C.2      1 ZINC000000597112   -0.2800
18     C18   -11.0008   -4.2440   -0.0635 C.2      1 ZINC000000597112    0.5300
19     O19   -11.7374   -3.8962    0.8502 O.co2    1 ZINC000000597112   -0.7000
20     O20   -11.4168   -5.0014   -0.9306 O.co2    1 ZINC000000597112   -0.6600
21     C21    -9.1384   -2.8986    0.8536 C.2      1 ZINC000000597112    0.1400
22     N22    -7.8841   -2.4322    0.8346 N.pl3    1 ZINC000000597112   -0.4700
23     C23    -7.4552   -1.5297    1.9059 C.3      1 ZINC000000597112    0.0400
24     C24    -8.5424   -0.9176    2.7915 C.3      1 ZINC000000597112   -0.1800
25     C25    -7.6287   -2.0117    3.3475 C.3      1 ZINC000000597112   -0.1800
26     C26    -3.5069   -0.6158   -1.2282 C.3      1 ZINC000000597112    0.0300
27     C27    -2.0676   -0.0966   -1.2513 C.3      1 ZINC000000597112    0.0000
28     H28     0.9819    1.9430   -0.0222 H        1 ZINC000000597112    0.1100
29     H29    -0.5709    1.9216   -0.8919 H        1 ZINC000000597112    0.0800
30     H30    -0.5474    1.9090    0.8879 H        1 ZINC000000597112    0.0800
31     H31     0.4968   -0.3162   -0.9218 H        1 ZINC000000597112    0.1300
32     H32     0.5203   -0.3287    0.8580 H        1 ZINC000000597112    0.1300
33     H33    -0.8371   -2.3672   -0.7557 H        1 ZINC000000597112    0.1400
34     H34    -0.8448   -2.2331    1.0191 H        1 ZINC000000597112    0.1400
35     H35    -2.7752   -3.5700    0.2041 H        1 ZINC000000597112    0.1300
36     H36    -3.3148   -2.0732    1.0030 H        1 ZINC000000597112    0.0700
37     H37    -5.3848   -1.5873    0.6728 H        1 ZINC000000597112    0.1300
38     H38    -6.7247   -4.6288   -2.9962 H        1 ZINC000000597112    0.1600
39     H39    -9.7957   -2.5969    1.6556 H        1 ZINC000000597112    0.1700
40     H40    -6.5830   -0.9155    1.6821 H        1 ZINC000000597112    0.1300
41     H41    -8.3856    0.0996    3.1505 H        1 ZINC000000597112    0.1100
42     H42    -9.5767   -1.1865    2.5771 H        1 ZINC000000597112    0.1200
43     H43    -8.0620   -3.0004    3.4989 H        1 ZINC000000597112    0.1100
44     H44    -6.8709   -1.7143    4.0723 H        1 ZINC000000597112    0.1100
45     H45    -4.0072   -0.3419   -2.1570 H        1 ZINC000000597112    0.1300
46     H46    -4.0389   -0.1761   -0.3846 H        1 ZINC000000597112    0.0700
47     H47    -2.0747    0.9899   -1.3386 H        1 ZINC000000597112    0.1400
48     H48    -1.5400   -0.5261   -2.1029 H        1 ZINC000000597112    0.1400
@<TRIPOS>BOND
1     1     2     1
2     1     28    1
3     1     29    1
4     1     30    1
5     2     3     1
6     2     31    1
7     2     32    1
8     3     4     1
9     3     27    1
10    3     5     1
11    5     6     1
12    5     33    1
13    5     34    1
14    6     7     1
15    6     35    1
16    6     36    1
17    7     8     1
18    7     26    1
19    8     13    ar
20    8     9     ar
21    9     10    ar
22    9     37    1
23    10    22    1
24    10    11    ar
25    11    12    ar
26    11    15    1
27    12    13    ar
28    12    38    1
29    13    14    1
30    15    16    2
31    15    17    1
32    17    18    1
33    17    21    2
34    18    19    ar
35    18    20    ar
36    21    22    1
37    21    39    1
38    22    23    1
39    23    25    1
40    23    24    1
41    23    40    1
42    24    25    1
43    24    41    1
44    24    42    1
45    25    43    1
46    25    44    1
47    26    27    1
48    26    45    1
49    26    46    1
50    27    47    1
51    27    48    1
@<TRIPOS>SUBSTRUCTURE
1   ZINC000000597112 1     RESIDUE    1   A     ZIN   1
