@<TRIPOS>MOLECULE
ZINC000001664878
27    26    1     0     0
SMALL
USER_CHARGES
@<TRIPOS>ATOM
1      C1      0.0247   -2.0940   -1.1817 C.3      1 ZINC000001664878   -0.1600
2      C2     -0.0155   -0.8840   -0.2462 C.3      1 ZINC000001664878   -0.1100
3      C3     -1.4655   -0.4338   -0.0567 C.3      1 ZINC000001664878   -0.1000
4      H4     -1.4948    0.4232    0.6161 H        1 ZINC000001664878    0.0900
5      C5     -2.0492   -0.0454   -1.3907 C.2      1 ZINC000001664878    0.5200
6      N6     -1.9834    1.2344   -1.8082 N.am     1 ZINC000001664878   -0.8600
7      O7     -2.5782   -0.8845   -2.0886 O.2      1 ZINC000001664878   -0.5400
8      C8     -2.2815   -1.5809    0.5425 C.3      1 ZINC000001664878   -0.0800
9      H9     -2.2521   -2.4379   -0.1303 H        1 ZINC000001664878    0.0900
10     C10    -1.6888   -1.9752    1.8968 C.3      1 ZINC000001664878   -0.1500
11     C11    -3.7314   -1.1307    0.7320 C.3      1 ZINC000001664878   -0.1200
12     C12    -4.5740   -2.3136    1.2135 C.3      1 ZINC000001664878   -0.1500
13     H13     1.0616   -2.3620   -1.3847 H        1 ZINC000001664878    0.0500
14     H14    -0.4823   -2.9354   -0.7094 H        1 ZINC000001664878    0.0600
15     H15    -0.4765   -1.8466   -2.1175 H        1 ZINC000001664878    0.0600
16     H16     0.4092   -1.1573    0.7197 H        1 ZINC000001664878    0.0800
17     H17     0.5640   -0.0695   -0.6806 H        1 ZINC000001664878    0.0600
18     H18    -1.6259    1.9184   -1.2206 H        1 ZINC000001664878    0.4000
19     H19    -2.2935    1.4714   -2.6962 H        1 ZINC000001664878    0.4000
20     H20    -2.2702   -2.7925    2.3238 H        1 ZINC000001664878    0.0600
21     H21    -0.6559   -2.2960    1.7619 H        1 ZINC000001664878    0.0600
22     H22    -1.7182   -1.1182    2.5697 H        1 ZINC000001664878    0.0500
23     H23    -3.7700   -0.3318    1.4725 H        1 ZINC000001664878    0.0600
24     H24    -4.1256   -0.7662   -0.2166 H        1 ZINC000001664878    0.0600
25     H25    -4.5354   -3.1125    0.4730 H        1 ZINC000001664878    0.0600
26     H26    -4.1798   -2.6781    2.1622 H        1 ZINC000001664878    0.0600
27     H27    -5.6069   -1.9928    1.3485 H        1 ZINC000001664878    0.0500
@<TRIPOS>BOND
1     1     2     1
2     1     13    1
3     1     14    1
4     1     15    1
5     2     3     1
6     2     16    1
7     2     17    1
8     3     4     1
9     3     5     1
10    3     8     1
11    5     6     am
12    5     7     2
13    6     18    1
14    6     19    1
15    8     9     1
16    8     10    1
17    8     11    1
18    10    20    1
19    10    21    1
20    10    22    1
21    11    12    1
22    11    23    1
23    11    24    1
24    12    25    1
25    12    26    1
26    12    27    1
@<TRIPOS>SUBSTRUCTURE
1   ZINC000001664878 1     RESIDUE    1   A     ZIN   1
