@<TRIPOS>MOLECULE
ZINC000003925398
88    90    1     0     0
SMALL
USER_CHARGES
@<TRIPOS>ATOM
1      C1     -0.1233   -1.2950    2.2199 C.3      1 ZINC000003925398    0.0600
2      O2     -0.5196   -2.6811    2.0467 O.3      1 ZINC000003925398   -0.3700
3      C3     -1.8150   -2.9158    1.7645 C.2      1 ZINC000003925398    0.6500
4      O4     -2.5930   -1.9877    1.6656 O.2      1 ZINC000003925398   -0.5400
5      N5     -2.2487   -4.1801    1.5916 N.am     1 ZINC000003925398   -0.7000
6      C6     -3.6582   -4.4355    1.2846 C.3      1 ZINC000003925398    0.1700
7      H7     -3.8188   -5.5085    1.1806 H        1 ZINC000003925398    0.1100
8      C8     -4.0245   -3.7455   -0.0042 C.2      1 ZINC000003925398    0.5000
9      O9     -3.3429   -2.8316   -0.4177 O.2      1 ZINC000003925398   -0.5000
10     N10    -5.1096   -4.1441   -0.6971 N.am     1 ZINC000003925398   -0.7300
11     C11    -5.4657   -3.4734   -1.9499 C.3      1 ZINC000003925398    0.1200
12     C12    -6.7283   -4.1138   -2.5303 C.3      1 ZINC000003925398   -0.1300
13     C13    -7.1002   -3.4134   -3.8387 C.3      1 ZINC000003925398   -0.1300
14     C14    -8.3627   -4.0538   -4.4190 C.3      1 ZINC000003925398   -0.1200
15     C15    -8.7347   -3.3533   -5.7274 C.3      1 ZINC000003925398    0.1500
16     H16    -7.8784   -3.3648   -6.4018 H        1 ZINC000003925398    0.1100
17     C17    -9.9088   -4.0844   -6.3814 C.3      1 ZINC000003925398    0.0700
18     O18   -10.9785   -4.2041   -5.4415 O.3      1 ZINC000003925398   -0.5600
19     N19    -9.1173   -1.9671   -5.4476 N.am     1 ZINC000003925398   -0.9800
20     C20   -10.1693   -1.6809   -4.4690 C.3      1 ZINC000003925398    0.1200
21     C21    -9.5588   -1.6185   -3.0675 C.3      1 ZINC000003925398   -0.1300
22     C22    -8.5708   -0.4527   -2.9930 C.3      1 ZINC000003925398   -0.1400
23     C23   -10.6698   -1.4120   -2.0360 C.3      1 ZINC000003925398   -0.1400
24     S24    -8.3607   -0.7237   -6.2374 S.o2     1 ZINC000003925398    2.6800
25     O25    -8.5101    0.4247   -5.4139 O.2      1 ZINC000003925398   -0.9500
26     O26    -7.0969   -1.2227   -6.6535 O.2      1 ZINC000003925398   -0.9600
27     C27    -9.2782   -0.4046   -7.7075 C.ar     1 ZINC000003925398   -0.7400
28     C28    -8.9634   -1.0737   -8.8760 C.ar     1 ZINC000003925398    0.0200
29     C29    -9.6805   -0.8260  -10.0300 C.ar     1 ZINC000003925398   -0.2200
30     C30   -10.7190    0.0965  -10.0160 C.ar     1 ZINC000003925398    0.2700
31     N31   -11.4465    0.3491  -11.1812 N.pl3    1 ZINC000003925398   -0.8700
32     C32   -11.0325    0.7669   -8.8405 C.ar     1 ZINC000003925398   -0.2200
33     C33   -10.3150    0.5102   -7.6886 C.ar     1 ZINC000003925398    0.0300
34     C34    -4.5329   -3.8963    2.4182 C.3      1 ZINC000003925398   -0.0200
35     C35    -5.9828   -4.1590    2.1023 C.ar     1 ZINC000003925398   -0.0800
36     C36    -6.4367   -5.4578    1.9684 C.ar     1 ZINC000003925398   -0.1300
37     C37    -7.7667   -5.6988    1.6787 C.ar     1 ZINC000003925398   -0.1200
38     C38    -8.6429   -4.6409    1.5233 C.ar     1 ZINC000003925398   -0.1200
39     C39    -8.1892   -3.3421    1.6581 C.ar     1 ZINC000003925398   -0.1100
40     C40    -6.8601   -3.1013    1.9521 C.ar     1 ZINC000003925398   -0.1000
41     C41    -4.1666   -4.5863    3.7069 C.ar     1 ZINC000003925398   -0.0600
42     C42    -4.0717   -5.9647    3.7503 C.ar     1 ZINC000003925398   -0.1200
43     C43    -3.7357   -6.5976    4.9324 C.ar     1 ZINC000003925398   -0.1100
44     C44    -3.4941   -5.8520    6.0711 C.ar     1 ZINC000003925398   -0.1200
45     C45    -3.5880   -4.4735    6.0276 C.ar     1 ZINC000003925398   -0.1100
46     C46    -3.9199   -3.8404    4.8444 C.ar     1 ZINC000003925398   -0.1100
47     H47     0.9427   -1.2470    2.4425 H        1 ZINC000003925398    0.1000
48     H48    -0.3284   -0.7413    1.3037 H        1 ZINC000003925398    0.0600
49     H49    -0.6866   -0.8562    3.0434 H        1 ZINC000003925398    0.0600
50     H50    -1.6276   -4.9210    1.6706 H        1 ZINC000003925398    0.4100
51     H51    -5.6548   -4.8751   -0.3663 H        1 ZINC000003925398    0.4000
52     H52    -5.6503   -2.4167   -1.7566 H        1 ZINC000003925398    0.0700
53     H53    -4.6467   -3.5749   -2.6620 H        1 ZINC000003925398    0.0700
54     H54    -6.5437   -5.1705   -2.7236 H        1 ZINC000003925398    0.0700
55     H55    -7.5473   -4.0124   -1.8183 H        1 ZINC000003925398    0.0700
56     H56    -7.2848   -2.3566   -3.6454 H        1 ZINC000003925398    0.0800
57     H57    -6.2812   -3.5148   -4.5507 H        1 ZINC000003925398    0.0700
58     H58    -8.1782   -5.1105   -4.6123 H        1 ZINC000003925398    0.0700
59     H59    -9.1818   -3.9523   -3.7070 H        1 ZINC000003925398    0.0900
60     H60   -10.2496   -3.5206   -7.2498 H        1 ZINC000003925398    0.0500
61     H61    -9.5886   -5.0777   -6.6959 H        1 ZINC000003925398    0.0600
62     H62   -11.7582   -4.6586   -5.7887 H        1 ZINC000003925398    0.3800
63     H63   -10.6349   -0.7242   -4.7054 H        1 ZINC000003925398    0.0700
64     H64   -10.9213   -2.4692   -4.5029 H        1 ZINC000003925398    0.1100
65     H65    -9.0363   -2.5516   -2.8568 H        1 ZINC000003925398    0.0900
66     H66    -9.0933    0.4805   -3.2037 H        1 ZINC000003925398    0.0700
67     H67    -8.1358   -0.4082   -1.9946 H        1 ZINC000003925398    0.0500
68     H68    -7.7793   -0.5997   -3.7279 H        1 ZINC000003925398    0.0400
69     H69   -11.3737   -2.2426   -2.0890 H        1 ZINC000003925398    0.0500
70     H70   -10.2349   -1.3675   -1.0375 H        1 ZINC000003925398    0.0600
71     H71   -11.1923   -0.4789   -2.2466 H        1 ZINC000003925398    0.0500
72     H72    -8.1557   -1.7906   -8.8863 H        1 ZINC000003925398    0.1400
73     H73    -9.4339   -1.3487  -10.9424 H        1 ZINC000003925398    0.1300
74     H74   -11.2269   -0.1198  -12.0014 H        1 ZINC000003925398    0.4000
75     H75   -12.1715    0.9935  -11.1702 H        1 ZINC000003925398    0.4000
76     H76   -11.8390    1.4850   -8.8263 H        1 ZINC000003925398    0.1300
77     H77   -10.5582    1.0311   -6.7743 H        1 ZINC000003925398    0.1400
78     H78    -4.3723   -2.8233    2.5222 H        1 ZINC000003925398    0.1200
79     H79    -5.7522   -6.2843    2.0899 H        1 ZINC000003925398    0.1200
80     H80    -8.1212   -6.7135    1.5734 H        1 ZINC000003925398    0.1200
81     H81    -9.6818   -4.8292    1.2962 H        1 ZINC000003925398    0.1200
82     H82    -8.8736   -2.5156    1.5363 H        1 ZINC000003925398    0.1200
83     H83    -6.5056   -2.0866    2.0574 H        1 ZINC000003925398    0.1200
84     H84    -4.2605   -6.5472    2.8606 H        1 ZINC000003925398    0.1200
85     H85    -3.6623   -7.6745    4.9664 H        1 ZINC000003925398    0.1200
86     H86    -3.2322   -6.3465    6.9949 H        1 ZINC000003925398    0.1200
87     H87    -3.3996   -3.8910    6.9173 H        1 ZINC000003925398    0.1200
88     H88    -3.9933   -2.7634    4.8103 H        1 ZINC000003925398    0.1200
@<TRIPOS>BOND
1     1     2     1
2     1     47    1
3     1     48    1
4     1     49    1
5     2     3     1
6     3     4     2
7     3     5     am
8     5     6     1
9     5     50    1
10    6     7     1
11    6     8     1
12    6     34    1
13    8     9     2
14    8     10    am
15    10    11    1
16    10    51    1
17    11    12    1
18    11    52    1
19    11    53    1
20    12    13    1
21    12    54    1
22    12    55    1
23    13    14    1
24    13    56    1
25    13    57    1
26    14    15    1
27    14    58    1
28    14    59    1
29    15    16    1
30    15    17    1
31    15    19    1
32    17    18    1
33    17    60    1
34    17    61    1
35    18    62    1
36    19    20    1
37    19    24    am
38    20    21    1
39    20    63    1
40    20    64    1
41    21    22    1
42    21    23    1
43    21    65    1
44    22    66    1
45    22    67    1
46    22    68    1
47    23    69    1
48    23    70    1
49    23    71    1
50    24    25    2
51    24    26    2
52    24    27    1
53    27    33    ar
54    27    28    ar
55    28    29    ar
56    28    72    1
57    29    30    ar
58    29    73    1
59    30    31    1
60    30    32    ar
61    31    74    1
62    31    75    1
63    32    33    ar
64    32    76    1
65    33    77    1
66    34    35    1
67    34    41    1
68    34    78    1
69    35    40    ar
70    35    36    ar
71    36    37    ar
72    36    79    1
73    37    38    ar
74    37    80    1
75    38    39    ar
76    38    81    1
77    39    40    ar
78    39    82    1
79    40    83    1
80    41    46    ar
81    41    42    ar
82    42    43    ar
83    42    84    1
84    43    44    ar
85    43    85    1
86    44    45    ar
87    44    86    1
88    45    46    ar
89    45    87    1
90    46    88    1
@<TRIPOS>SUBSTRUCTURE
1   ZINC000003925398 1     RESIDUE    1   A     ZIN   1
