@<TRIPOS>MOLECULE
ZINC000034057058
39    42    1     0     0
SMALL
USER_CHARGES
@<TRIPOS>ATOM
1      O1      0.0021   -0.0041    0.0020 O.2      1 ZINC000034057058   -0.5100
2      C2     -0.0144    1.2119    0.0087 C.2      1 ZINC000034057058    0.6200
3      N3      1.1435    1.9016    0.0014 N.am     1 ZINC000034057058   -0.7200
4      C4      2.4220    1.1865   -0.0147 C.3      1 ZINC000034057058    0.1400
5      H5      2.3244    0.2771   -0.6077 H        1 ZINC000034057058    0.1300
6      C6      2.8251    0.8245    1.4165 C.3      1 ZINC000034057058   -0.0200
7      N7      4.1085    1.4476    1.7488 N.4      1 ZINC000034057058   -0.3700
8      H8      4.3488    1.1978    2.6964 H        1 ZINC000034057058    0.4300
9      C9      5.1645    0.9593    0.8589 C.3      1 ZINC000034057058   -0.0100
10     C10     4.8390    1.3256   -0.5909 C.3      1 ZINC000034057058   -0.1300
11     C11     3.5059    2.0846   -0.6252 C.3      1 ZINC000034057058   -0.1100
12     C12     3.6401    3.3374    0.2506 C.3      1 ZINC000034057058   -0.1400
13     C13     4.0105    2.9067    1.6648 C.3      1 ZINC000034057058   -0.0100
14     C14    -1.3007    1.9314    0.0187 C.2      1 ZINC000034057058   -0.0200
15     N15    -1.4747    3.2355    0.0209 N.2      1 ZINC000034057058   -0.2000
16     N16    -2.7182    3.5543    0.0303 N.pl3    1 ZINC000034057058   -0.4000
17     C17    -3.5166    2.4403    0.0355 C.ar     1 ZINC000034057058    0.0600
18     C18    -4.8902    2.2210    0.0458 C.ar     1 ZINC000034057058   -0.1200
19     C19    -5.3747    0.9320    0.0489 C.ar     1 ZINC000034057058   -0.0800
20     C20    -4.5073   -0.1526    0.0418 C.ar     1 ZINC000034057058   -0.1300
21     C21    -3.1538    0.0406    0.0316 C.ar     1 ZINC000034057058   -0.0500
22     C22    -2.6432    1.3349    0.0218 C.ar     1 ZINC000034057058   -0.1100
23     H23     1.1303    2.8715    0.0067 H        1 ZINC000034057058    0.4100
24     H24     2.0610    1.1792    2.1082 H        1 ZINC000034057058    0.1300
25     H25     2.9153   -0.2582    1.5040 H        1 ZINC000034057058    0.1400
26     H26     6.1144    1.4128    1.1419 H        1 ZINC000034057058    0.1300
27     H27     5.2416   -0.1242    0.9496 H        1 ZINC000034057058    0.1300
28     H28     5.6299    1.9580   -0.9943 H        1 ZINC000034057058    0.1100
29     H29     4.7552    0.4170   -1.1872 H        1 ZINC000034057058    0.1100
30     H30     3.2480    2.3489   -1.6507 H        1 ZINC000034057058    0.1300
31     H31     4.4259    3.9791   -0.1478 H        1 ZINC000034057058    0.1100
32     H32     2.6941    3.8787    0.2612 H        1 ZINC000034057058    0.1000
33     H33     3.2411    3.2447    2.3590 H        1 ZINC000034057058    0.1300
34     H34     4.9656    3.3537    1.9405 H        1 ZINC000034057058    0.1300
35     H35    -3.0499    4.4658    0.0337 H        1 ZINC000034057058    0.4500
36     H36    -5.5733    3.0575    0.0518 H        1 ZINC000034057058    0.1300
37     H37    -6.4413    0.7625    0.0574 H        1 ZINC000034057058    0.1400
38     H38    -4.9051   -1.1566    0.0447 H        1 ZINC000034057058    0.1400
39     H39    -2.4845   -0.8070    0.0264 H        1 ZINC000034057058    0.1400
@<TRIPOS>BOND
1     1     2     2
2     2     3     am
3     2     14    1
4     3     4     1
5     3     23    1
6     4     5     1
7     4     11    1
8     4     6     1
9     6     7     1
10    6     24    1
11    6     25    1
12    7     8     1
13    7     13    1
14    7     9     1
15    9     10    1
16    9     26    1
17    9     27    1
18    10    11    1
19    10    28    1
20    10    29    1
21    11    12    1
22    11    30    1
23    12    13    1
24    12    31    1
25    12    32    1
26    13    33    1
27    13    34    1
28    14    22    1
29    14    15    2
30    15    16    1
31    16    17    1
32    16    35    1
33    17    22    ar
34    17    18    ar
35    18    19    ar
36    18    36    1
37    19    20    ar
38    19    37    1
39    20    21    ar
40    20    38    1
41    21    22    ar
42    21    39    1
@<TRIPOS>SUBSTRUCTURE
1   ZINC000034057058 1     RESIDUE    1   A     ZIN   1
