@<TRIPOS>MOLECULE
ZINC000022064260
  15   15    0    0    0
SMALL
USER_CHARGES
NO_NAME
@<TRIPOS>ATOM
    1 N1       -0.0116     1.0048     0.0076 N.4    1 <0>      -0.6400
    2 H2        0.0021    -0.0041     0.0020 H      1 <0>       0.4500
    3 H3        0.9350     1.3541     0.0004 H      1 <0>       0.4400
    4 H4       -0.4996     1.3391    -0.8099 H      1 <0>       0.4400
    5 C5       -0.6992     1.4786     1.2162 C.3    1 <0>       0.1000
    6 C6       -0.7196     2.9854     1.2245 C.2    1 <0>      -0.0200
    7 C7       -1.8193     3.7723     1.1495 C.2    1 <0>      -0.2300
    8 C8       -1.3054     5.0926     1.1960 C.2    1 <0>       0.4800
    9 O9       -1.9417     6.1334     1.1572 O.2    1 <0>      -0.4900
   10 N10       0.0331     4.9591     1.2929 N.am   1 <0>      -0.5400
   11 O11       0.3436     3.7901     1.3130 O.3    1 <0>       0.0000
   12 H12      -1.7218     1.1013     1.2239 H      1 <0>       0.1700
   13 H13      -0.1720     1.1175     2.0992 H      1 <0>       0.1600
   14 H14      -2.8516     3.4644     1.0717 H      1 <0>       0.2000
   15 H15       0.6596     5.6979     1.3437 H      1 <0>       0.4700
@<TRIPOS>BOND
   1    1    2 1
   2    1    3 1
   3    1    4 1
   4    1    5 1
   5    5    6 1
   6    5   12 1
   7    5   13 1
   8    6   11 1
   9    6    7 2
  10    7    8 1
  11    7   14 1
  12    8    9 2
  13    8   10 am
  14   10   11 1
  15   10   15 1
