@<TRIPOS>MOLECULE
ZINC000003918159
  67   70    0    0    0
SMALL
USER_CHARGES
NO_NAME
@<TRIPOS>ATOM
    1 C1        0.0149     1.5834     0.0246 C.3    1 <0>      -0.1500
    2 C2        0.0021     0.0536     0.0040 C.3    1 <0>      -0.0900
    3 H3        0.5039    -0.3018    -0.8960 H      1 <0>       0.0700
    4 C4       -1.4445    -0.4444     0.0119 C.3    1 <0>      -0.0900
    5 C5       -2.1383    -0.0163    -1.2828 C.3    1 <0>      -0.1800
    6 C6       -3.5632    -0.5069    -1.2751 C.2    1 <0>       0.4900
    7 O7       -3.9848    -1.1402    -0.3223 O.co2  1 <0>      -0.7000
    8 O8       -4.2945    -0.2705    -2.2216 O.co2  1 <0>      -0.7100
    9 C9        0.7316    -0.4792     1.2389 C.3    1 <0>      -0.0700
   10 H10       0.2325    -0.1410     2.1469 H      1 <0>       0.0700
   11 C11       0.7889    -2.0268     1.2023 C.3    1 <0>      -0.1200
   12 C12       2.2925    -2.4110     1.2645 C.3    1 <0>      -0.1100
   13 C13       2.9313    -1.1893     1.9339 C.3    1 <0>      -0.0800
   14 H14       2.7198    -1.1882     3.0032 H      1 <0>       0.0700
   15 C15       4.4166    -1.0017     1.6895 C.3    1 <0>      -0.0700
   16 H16       4.6070    -0.9285     0.6187 H      1 <0>       0.0800
   17 C17       5.2049    -2.1740     2.2750 C.3    1 <0>      -0.1500
   18 C18       6.7012    -1.9405     2.0557 C.3    1 <0>       0.1100
   19 H19       6.9036    -1.8609     0.9876 H      1 <0>       0.0600
   20 O20       7.4390    -3.0367     2.5997 O.3    1 <0>      -0.5700
   21 C21       7.1238    -0.6458     2.7525 C.3    1 <0>      -0.0600
   22 H22       8.1888    -0.4779     2.5921 H      1 <0>       0.0700
   23 C23       6.8460    -0.7608     4.2528 C.3    1 <0>      -0.1000
   24 C24       7.2712     0.5328     4.9505 C.3    1 <0>       0.1100
   25 H25       8.3364     0.6991     4.7898 H      1 <0>       0.0500
   26 O26       7.0119     0.4256     6.3517 O.3    1 <0>      -0.5700
   27 C27       6.4789     1.7077     4.3738 C.3    1 <0>      -0.1500
   28 C28       6.7559     1.8224     2.8734 C.3    1 <0>      -0.1100
   29 C29       6.3300     0.5287     2.1764 C.3    1 <0>      -0.0500
   30 C30       6.6068     0.6429     0.6760 C.3    1 <0>      -0.1500
   31 C31       4.8315     0.3064     2.3810 C.3    1 <0>      -0.0700
   32 H32       4.6327     0.2032     3.4477 H      1 <0>       0.0700
   33 C33       4.0487     1.5008     1.8463 C.3    1 <0>      -0.1100
   34 C34       2.5318     1.2684     1.9473 C.3    1 <0>      -0.1000
   35 C35       2.1859    -0.0196     1.2328 C.3    1 <0>      -0.0500
   36 C36       2.7079     0.0301    -0.2045 C.3    1 <0>      -0.1600
   37 H37       1.0456     1.9383     0.0190 H      1 <0>       0.0600
   38 H38      -0.5048     1.9630    -0.8551 H      1 <0>       0.0500
   39 H39      -0.4868     1.9389     0.9246 H      1 <0>       0.0500
   40 H40      -1.4540    -1.5318     0.0868 H      1 <0>       0.0600
   41 H41      -1.9714    -0.0168     0.8649 H      1 <0>       0.0500
   42 H42      -2.1288     1.0710    -1.3578 H      1 <0>       0.0600
   43 H43      -1.6115    -0.4439    -2.1359 H      1 <0>       0.0500
   44 H44       0.2611    -2.4411     2.0613 H      1 <0>       0.0600
   45 H45       0.3464    -2.3959     0.2771 H      1 <0>       0.0700
   46 H46       2.4377    -3.3039     1.8726 H      1 <0>       0.0600
   47 H47       2.6953    -2.5562     0.2620 H      1 <0>       0.0600
   48 H48       5.0018    -2.2514     3.3431 H      1 <0>       0.0700
   49 H49       4.9046    -3.0975     1.7799 H      1 <0>       0.0600
   50 H50       7.2225    -3.8918     2.2035 H      1 <0>       0.3800
   51 H51       5.7809    -0.9271     4.4134 H      1 <0>       0.0800
   52 H52       7.4106    -1.5977     4.6637 H      1 <0>       0.0700
   53 H53       7.2576     1.2117     6.8584 H      1 <0>       0.3800
   54 H54       5.4137     1.5416     4.5349 H      1 <0>       0.0800
   55 H55       6.7821     2.6292     4.8707 H      1 <0>       0.0600
   56 H56       6.1913     2.6593     2.4626 H      1 <0>       0.0700
   57 H57       7.8211     1.9887     2.7123 H      1 <0>       0.0600
   58 H58       7.6719     0.8090     0.5146 H      1 <0>       0.0500
   59 H59       6.3033    -0.2787     0.1793 H      1 <0>       0.0600
   60 H60       6.0422     1.4799     0.2651 H      1 <0>       0.0600
   61 H61       4.3128     2.3872     2.4231 H      1 <0>       0.0600
   62 H62       4.3158     1.6636     0.8022 H      1 <0>       0.0700
   63 H63       2.2437     1.1493     2.9918 H      1 <0>       0.0600
   64 H64       1.9976     2.1110     1.5083 H      1 <0>       0.0700
   65 H65       3.7713     0.2692    -0.1968 H      1 <0>       0.0600
   66 H66       2.5569    -0.9392    -0.6797 H      1 <0>       0.0600
   67 H67       2.1674     0.7957    -0.7611 H      1 <0>       0.0600
@<TRIPOS>BOND
   1    1    2 1
   2    1   37 1
   3    1   38 1
   4    1   39 1
   5    2    3 1
   6    2    4 1
   7    2    9 1
   8    4    5 1
   9    4   40 1
  10    4   41 1
  11    5    6 1
  12    5   42 1
  13    5   43 1
  14    6    7 ar
  15    6    8 ar
  16    9   10 1
  17    9   35 1
  18    9   11 1
  19   11   12 1
  20   11   44 1
  21   11   45 1
  22   12   13 1
  23   12   46 1
  24   12   47 1
  25   13   14 1
  26   13   35 1
  27   13   15 1
  28   15   16 1
  29   15   31 1
  30   15   17 1
  31   17   18 1
  32   17   48 1
  33   17   49 1
  34   18   19 1
  35   18   20 1
  36   18   21 1
  37   20   50 1
  38   21   22 1
  39   21   29 1
  40   21   23 1
  41   23   24 1
  42   23   51 1
  43   23   52 1
  44   24   25 1
  45   24   26 1
  46   24   27 1
  47   26   53 1
  48   27   28 1
  49   27   54 1
  50   27   55 1
  51   28   29 1
  52   28   56 1
  53   28   57 1
  54   29   30 1
  55   29   31 1
  56   30   58 1
  57   30   59 1
  58   30   60 1
  59   31   32 1
  60   31   33 1
  61   33   34 1
  62   33   61 1
  63   33   62 1
  64   34   35 1
  65   34   63 1
  66   34   64 1
  67   35   36 1
  68   36   65 1
  69   36   66 1
  70   36   67 1
