@<TRIPOS>MOLECULE
ZINC000001893112
  58   62    0    0    0
SMALL
USER_CHARGES
NO_NAME
@<TRIPOS>ATOM
    1 O1        0.0021    -0.0041     0.0020 O.2    1 <0>      -0.4700
    2 C2       -0.0145     1.2152     0.0087 C.2    1 <0>       0.4300
    3 C3       -1.2370     1.9387     0.0303 C.2    1 <0>      -0.3000
    4 C4       -2.5524     1.2035     0.0460 C.3    1 <0>       0.1500
    5 O5       -3.6253     2.1472     0.0664 O.3    1 <0>      -0.5800
    6 C6       -1.2137     3.2832     0.0370 C.2    1 <0>       0.1600
    7 O7       -0.0777     3.9893     0.0238 O.3    1 <0>      -0.2200
    8 C8        1.1368     3.4030     0.0031 C.ar   1 <0>       0.1800
    9 C9        2.2972     4.1630    -0.0097 C.ar   1 <0>      -0.1800
   10 C10       3.5306     3.5330    -0.0306 C.ar   1 <0>       0.2000
   11 O11       4.6659     4.2770    -0.0431 O.3    1 <0>      -0.3000
   12 C12       5.9063     3.5677    -0.0644 C.3    1 <0>       0.0600
   13 C13       7.0650     4.5668    -0.0760 C.3    1 <0>      -0.1300
   14 C14       8.3930     3.8073    -0.0989 C.3    1 <0>       0.0600
   15 N15       9.5055     4.7665    -0.1100 N.3    1 <0>      -0.5400
   16 C16       9.2659     5.8391    -1.0840 C.3    1 <0>       0.0500
   17 C17      10.3691     6.8931    -0.9658 C.3    1 <0>      -0.1100
   18 C18      11.7269     6.2352    -1.2268 C.3    1 <0>      -0.0200
   19 C19      12.8225     7.2552    -1.0530 C.2    1 <0>       0.1500
   20 N20      13.0904     7.9175     0.0303 N.2    1 <0>      -0.2700
   21 O21      14.1876     8.7795    -0.1959 O.3    1 <0>      -0.0900
   22 C22      14.6095     8.6403    -1.4689 C.ar   1 <0>       0.1200
   23 C23      15.6270     9.2300    -2.2074 C.ar   1 <0>      -0.1700
   24 C24      15.8144     8.8690    -3.5270 C.ar   1 <0>       0.1600
   25 F25      16.8047     9.4433    -4.2445 F      1 <0>      -0.1200
   26 C26      14.9930     7.9194    -4.1231 C.ar   1 <0>      -0.1800
   27 C27      13.9869     7.3292    -3.4122 C.ar   1 <0>      -0.0100
   28 C28      13.7850     7.6768    -2.0744 C.ar   1 <0>      -0.2100
   29 C29      11.9306     5.0906    -0.2303 C.3    1 <0>      -0.1100
   30 C30      10.7821     4.0889    -0.3698 C.3    1 <0>       0.0600
   31 C31       3.6163     2.1426    -0.0383 C.ar   1 <0>      -0.2300
   32 C32       2.4825     1.3806    -0.0259 C.ar   1 <0>       0.0100
   33 C33       1.2332     2.0002     0.0010 C.ar   1 <0>      -0.2600
   34 H34      -2.6320     0.5821    -0.8460 H      1 <0>       0.0600
   35 H35      -2.6058     0.5733     0.9338 H      1 <0>       0.0600
   36 H36      -4.5039     1.7435     0.0774 H      1 <0>       0.3900
   37 H37      -2.1530     3.8160     0.0534 H      1 <0>       0.2100
   38 H38       2.2391     5.2414    -0.0038 H      1 <0>       0.1500
   39 H39       5.9793     2.9368     0.8214 H      1 <0>       0.0700
   40 H40       5.9538     2.9458    -0.9583 H      1 <0>       0.0700
   41 H41       6.9920     5.1976    -0.9619 H      1 <0>       0.0800
   42 H42       7.0175     5.1887     0.8179 H      1 <0>       0.0900
   43 H43       8.4661     3.1764     0.7870 H      1 <0>       0.0800
   44 H44       8.4405     3.1854    -0.9928 H      1 <0>       0.0400
   45 H45       9.2682     5.4223    -2.0911 H      1 <0>       0.0400
   46 H46       8.2991     6.3014    -0.8846 H      1 <0>       0.0900
   47 H47      10.1996     7.6812    -1.6995 H      1 <0>       0.0700
   48 H48      10.3585     7.3202     0.0370 H      1 <0>       0.0800
   49 H49      11.7523     5.8431    -2.2435 H      1 <0>       0.1000
   50 H50      16.2694     9.9687    -1.7513 H      1 <0>       0.1500
   51 H51      15.1512     7.6463    -5.1559 H      1 <0>       0.1500
   52 H52      13.3519     6.5926    -3.8819 H      1 <0>       0.1500
   53 H53      12.8767     4.5909    -0.4385 H      1 <0>       0.0700
   54 H54      11.9445     5.4894     0.7840 H      1 <0>       0.0800
   55 H55      10.9166     3.2799     0.3482 H      1 <0>       0.0800
   56 H56      10.7773     3.6802    -1.3803 H      1 <0>       0.0400
   57 H57       4.5845     1.6644    -0.0546 H      1 <0>       0.1400
   58 H58       2.5533     0.3029    -0.0323 H      1 <0>       0.1500
@<TRIPOS>BOND
   1    1    2 2
   2    2   33 1
   3    2    3 1
   4    3    4 1
   5    3    6 2
   6    4    5 1
   7    4   34 1
   8    4   35 1
   9    5   36 1
  10    6    7 1
  11    6   37 1
  12    7    8 1
  13    8   33 ar
  14    8    9 ar
  15    9   10 ar
  16    9   38 1
  17   10   11 1
  18   10   31 ar
  19   11   12 1
  20   12   13 1
  21   12   39 1
  22   12   40 1
  23   13   14 1
  24   13   41 1
  25   13   42 1
  26   14   15 1
  27   14   43 1
  28   14   44 1
  29   15   30 1
  30   15   16 1
  31   16   17 1
  32   16   45 1
  33   16   46 1
  34   17   18 1
  35   17   47 1
  36   17   48 1
  37   18   19 1
  38   18   29 1
  39   18   49 1
  40   19   28 1
  41   19   20 2
  42   20   21 1
  43   21   22 1
  44   22   28 ar
  45   22   23 ar
  46   23   24 ar
  47   23   50 1
  48   24   25 1
  49   24   26 ar
  50   26   27 ar
  51   26   51 1
  52   27   28 ar
  53   27   52 1
  54   29   30 1
  55   29   53 1
  56   29   54 1
  57   30   55 1
  58   30   56 1
  59   31   32 ar
  60   31   57 1
  61   32   33 ar
  62   32   58 1
