@<TRIPOS>MOLECULE
ZINC000043175494
52    55    1     0     0
SMALL
USER_CHARGES
@<TRIPOS>ATOM
1      C1      1.5507    2.0810   -4.4846 C.3      1 ZINC000043175494   -0.1800
2      C2      1.8800    1.8438   -3.0094 C.3      1 ZINC000043175494    0.1700
3      C3      3.3797    2.0450   -2.7829 C.3      1 ZINC000043175494   -0.1500
4      O4      1.1481    2.7693   -2.2032 O.3      1 ZINC000043175494   -0.5400
5      C5      1.4990    0.4361   -2.6297 C.ar     1 ZINC000043175494   -0.1100
6      C6      0.8367   -0.3686   -3.5340 C.ar     1 ZINC000043175494   -0.1100
7      C7      0.4867   -1.6613   -3.1870 C.ar     1 ZINC000043175494   -0.1200
8      C8      0.7976   -2.1546   -1.9327 C.ar     1 ZINC000043175494   -0.1100
9      C9      1.4598   -1.3587   -1.0199 C.ar     1 ZINC000043175494   -0.1100
10     C10     1.8200   -0.0576   -1.3660 C.ar     1 ZINC000043175494   -0.0300
11     C11     2.5316    0.8024   -0.3897 C.ar     1 ZINC000043175494   -0.0200
12     C12     1.9495    1.9996    0.0390 C.ar     1 ZINC000043175494   -0.0800
13     C13     2.5919    2.8006    0.9358 C.ar     1 ZINC000043175494   -0.0700
14     C14     3.8458    2.4280    1.4369 C.ar     1 ZINC000043175494    0.0600
15     N15     4.6964    3.0027    2.3106 N.2      1 ZINC000043175494   -0.4800
16     C16     5.7632    2.2483    2.4548 C.2      1 ZINC000043175494    0.3100
17     C17     6.9023    2.5538    3.3261 C.2      1 ZINC000043175494   -0.1000
18     C18     6.9062    3.6842    4.0577 C.2      1 ZINC000043175494   -0.0500
19     C19     8.0503    3.9910    4.9327 C.ar     1 ZINC000043175494   -0.0300
20     C20     9.1367    3.1139    5.0021 C.ar     1 ZINC000043175494   -0.1100
21     C21    10.2046    3.4083    5.8235 C.ar     1 ZINC000043175494   -0.0700
22     C22    10.2024    4.5683    6.5783 C.ar     1 ZINC000043175494   -0.1800
23     C23    11.3731    4.8823    7.4737 C.3      1 ZINC000043175494    0.5100
24     F24    12.3199    5.6250    6.7602 F        1 ZINC000043175494   -0.1800
25     F25    10.9322    5.6238    8.5750 F        1 ZINC000043175494   -0.1800
26     F26    11.9541    3.6894    7.9172 F        1 ZINC000043175494   -0.1800
27     C27     9.1307    5.4417    6.5146 C.ar     1 ZINC000043175494   -0.0700
28     C28     8.0580    5.1637    5.6938 C.ar     1 ZINC000043175494   -0.1000
29     N29     5.6483    1.1311    1.6661 N.pl3    1 ZINC000043175494   -0.6000
30     C30     4.4359    1.2232    1.0085 C.ar     1 ZINC000043175494    0.0500
31     C31     3.7737    0.4130    0.1012 C.ar     1 ZINC000043175494   -0.1100
32     H32     2.0708    1.3437   -5.0961 H        1 ZINC000043175494    0.0700
33     H33     0.4756    1.9859   -4.6367 H        1 ZINC000043175494    0.0600
34     H34     1.8711    3.0825   -4.7719 H        1 ZINC000043175494    0.0700
35     H35     3.6553    3.0632   -3.0575 H        1 ZINC000043175494    0.0600
36     H36     3.6143    1.8760   -1.7319 H        1 ZINC000043175494    0.0800
37     H37     3.9379    1.3391   -3.3978 H        1 ZINC000043175494    0.0700
38     H38     0.1882    2.6986   -2.2962 H        1 ZINC000043175494    0.3700
39     H39     0.5908    0.0116   -4.5146 H        1 ZINC000043175494    0.1300
40     H40    -0.0315   -2.2876   -3.8980 H        1 ZINC000043175494    0.1200
41     H41     0.5213   -3.1642   -1.6670 H        1 ZINC000043175494    0.1200
42     H42     1.7020   -1.7449   -0.0409 H        1 ZINC000043175494    0.1200
43     H43     0.9829    2.2921   -0.3438 H        1 ZINC000043175494    0.1500
44     H44     2.1338    3.7234    1.2598 H        1 ZINC000043175494    0.1300
45     H45     7.7382    1.8721    3.3811 H        1 ZINC000043175494    0.1400
46     H46     6.0704    4.3659    4.0027 H        1 ZINC000043175494    0.1400
47     H47     9.1395    2.2079    4.4143 H        1 ZINC000043175494    0.1400
48     H48    11.0446    2.7317    5.8782 H        1 ZINC000043175494    0.1400
49     H49     9.1362    6.3450    7.1065 H        1 ZINC000043175494    0.1400
50     H50     7.2224    5.8462    5.6452 H        1 ZINC000043175494    0.1400
51     H51     6.2955    0.4131    1.5851 H        1 ZINC000043175494    0.4200
52     H52     4.2205   -0.5143   -0.2256 H        1 ZINC000043175494    0.1200
@<TRIPOS>BOND
1     1     2     1
2     1     32    1
3     1     33    1
4     1     34    1
5     2     3     1
6     2     4     1
7     2     5     1
8     3     35    1
9     3     36    1
10    3     37    1
11    4     38    1
12    5     10    ar
13    5     6     ar
14    6     7     ar
15    6     39    1
16    7     8     ar
17    7     40    1
18    8     9     ar
19    8     41    1
20    9     10    ar
21    9     42    1
22    10    11    1
23    11    31    ar
24    11    12    ar
25    12    13    ar
26    12    43    1
27    13    14    ar
28    13    44    1
29    14    30    ar
30    14    15    1
31    15    16    2
32    16    17    1
33    16    29    1
34    17    18    2
35    17    45    1
36    18    19    1
37    18    46    1
38    19    28    ar
39    19    20    ar
40    20    21    ar
41    20    47    1
42    21    22    ar
43    21    48    1
44    22    23    1
45    22    27    ar
46    23    24    1
47    23    25    1
48    23    26    1
49    27    28    ar
50    27    49    1
51    28    50    1
52    29    30    1
53    29    51    1
54    30    31    ar
55    31    52    1
@<TRIPOS>SUBSTRUCTURE
1   ZINC000043175494 1     RESIDUE    1   A     ZIN   1
