@<TRIPOS>MOLECULE
ZINC000042856596
79    82    1     0     0
SMALL
USER_CHARGES
@<TRIPOS>ATOM
1      C1      0.8166    0.7899   -1.6425 C.3      1 ZINC000042856596   -0.1800
2      C2      0.7674   -0.7012   -1.8555 C.2      1 ZINC000042856596    0.5200
3      O3      1.6979   -1.2688   -2.3874 O.2      1 ZINC000042856596   -0.5100
4      N4     -0.3106   -1.4040   -1.4548 N.am     1 ZINC000042856596   -0.6400
5      C5     -1.4533   -0.7358   -0.8131 C.3      1 ZINC000042856596    0.0900
6      C6     -2.7362   -1.1758   -1.5261 C.3      1 ZINC000042856596   -0.0300
7      N7     -2.8151   -2.6420   -1.5292 N.4      1 ZINC000042856596   -0.3800
8      H8     -2.7536   -2.9830   -0.5816 H        1 ZINC000042856596    0.4200
9      C9     -4.0950   -3.0605   -2.1162 C.3      1 ZINC000042856596    0.0300
10     H10    -4.1639   -2.6900   -3.1390 H        1 ZINC000042856596    0.1400
11     C11    -4.1784   -4.5887   -2.1208 C.3      1 ZINC000042856596   -0.1600
12     C12    -5.4990   -5.0220   -2.7650 C.3      1 ZINC000042856596    0.0600
13     N13    -6.6071   -4.3594   -2.0637 N.am     1 ZINC000042856596   -0.6300
14     C14    -7.6287   -5.0791   -1.5591 C.2      1 ZINC000042856596    0.7100
15     O15    -8.6634   -4.5256   -1.2406 O.2      1 ZINC000042856596   -0.5400
16     N16    -7.5035   -6.4125   -1.4075 N.am     1 ZINC000042856596   -0.6200
17     C17    -6.1785   -7.0349   -1.4644 C.3      1 ZINC000042856596    0.0500
18     C18    -8.6923   -7.2394   -1.1859 C.3      1 ZINC000042856596    0.2000
19     H19    -9.5667   -6.5974   -1.0793 H        1 ZINC000042856596    0.1200
20     C20    -8.5082   -8.0661    0.0884 C.3      1 ZINC000042856596   -0.1600
21     C21    -8.8876   -8.1634   -2.3603 C.ar     1 ZINC000042856596   -0.1000
22     C22   -10.0303   -8.0679   -3.1322 C.ar     1 ZINC000042856596   -0.0200
23     C23   -10.2094   -8.9155   -4.2095 C.ar     1 ZINC000042856596   -0.1800
24     C24   -11.4554   -8.8117   -5.0508 C.3      1 ZINC000042856596    0.5100
25     F25   -11.2380   -7.9085   -6.0968 F        1 ZINC000042856596   -0.1700
26     F26   -11.7682  -10.0693   -5.5780 F        1 ZINC000042856596   -0.1700
27     F27   -12.5169   -8.3611   -4.2586 F        1 ZINC000042856596   -0.1700
28     C28    -9.2454   -9.8578   -4.5153 C.ar     1 ZINC000042856596   -0.0200
29     C29    -8.1025   -9.9530   -3.7436 C.ar     1 ZINC000042856596   -0.1800
30     C30    -7.0518  -10.9806   -4.0767 C.3      1 ZINC000042856596    0.5100
31     F31    -7.4550  -11.7131   -5.1984 F        1 ZINC000042856596   -0.1700
32     F32    -5.8403  -10.3369   -4.3509 F        1 ZINC000042856596   -0.1800
33     F33    -6.8847  -11.8458   -2.9901 F        1 ZINC000042856596   -0.1700
34     C34    -7.9214   -9.1026   -2.6689 C.ar     1 ZINC000042856596   -0.0300
35     C35    -6.5801   -2.8971   -1.9227 C.3      1 ZINC000042856596    0.2200
36     H36    -6.6749   -2.4335   -2.9046 H        1 ZINC000042856596    0.1000
37     C37    -7.7198   -2.4534   -1.0422 C.ar     1 ZINC000042856596   -0.0900
38     C38    -7.5388   -2.3550    0.3246 C.ar     1 ZINC000042856596   -0.0900
39     C39    -8.5832   -1.9477    1.1330 C.ar     1 ZINC000042856596   -0.1600
40     C40    -9.8110   -1.6382    0.5734 C.ar     1 ZINC000042856596    0.1200
41     F41   -10.8325   -1.2395    1.3626 F        1 ZINC000042856596   -0.1400
42     C42    -9.9912   -1.7370   -0.7961 C.ar     1 ZINC000042856596   -0.1500
43     C43    -8.9441   -2.1394   -1.6029 C.ar     1 ZINC000042856596    0.0100
44     C44    -9.1398   -2.2471   -3.0932 C.3      1 ZINC000042856596   -0.1200
45     C45    -5.2473   -2.4879   -1.2877 C.3      1 ZINC000042856596   -0.1600
46     C46    -1.7117   -3.2005   -2.3210 C.3      1 ZINC000042856596   -0.0200
47     C47    -0.3805   -2.8600   -1.6524 C.3      1 ZINC000042856596    0.0900
48     H48     1.7582    1.1811   -2.0277 H        1 ZINC000042856596    0.1000
49     H49    -0.0144    1.2596   -2.1686 H        1 ZINC000042856596    0.0900
50     H50     0.7416    1.0074   -0.5770 H        1 ZINC000042856596    0.1000
51     H51    -1.5018   -1.0216    0.2377 H        1 ZINC000042856596    0.1000
52     H52    -1.3400    0.3450   -0.8969 H        1 ZINC000042856596    0.1300
53     H53    -3.6010   -0.7665   -1.0038 H        1 ZINC000042856596    0.1500
54     H54    -2.7250   -0.8102   -2.5529 H        1 ZINC000042856596    0.1400
55     H55    -3.3442   -4.9968   -2.6914 H        1 ZINC000042856596    0.1000
56     H56    -4.1347   -4.9585   -1.0964 H        1 ZINC000042856596    0.0900
57     H57    -5.5057   -4.7317   -3.8156 H        1 ZINC000042856596    0.0800
58     H58    -5.6086   -6.1033   -2.6819 H        1 ZINC000042856596    0.1500
59     H59    -5.4176   -6.2923   -1.2239 H        1 ZINC000042856596    0.0800
60     H60    -6.1295   -7.8516   -0.7442 H        1 ZINC000042856596    0.0800
61     H61    -6.0025   -7.4238   -2.4673 H        1 ZINC000042856596    0.0700
62     H62    -7.6338   -8.7081   -0.0182 H        1 ZINC000042856596    0.0600
63     H63    -8.3669   -7.3978    0.9378 H        1 ZINC000042856596    0.0700
64     H64    -9.3927   -8.6813    0.2533 H        1 ZINC000042856596    0.0800
65     H65   -10.7833   -7.3314   -2.8935 H        1 ZINC000042856596    0.1500
66     H66    -9.3854  -10.5200   -5.3569 H        1 ZINC000042856596    0.1600
67     H67    -7.0284   -9.1769   -2.0660 H        1 ZINC000042856596    0.1400
68     H68    -6.5810   -2.5969    0.7610 H        1 ZINC000042856596    0.1200
69     H69    -8.4417   -1.8713    2.2010 H        1 ZINC000042856596    0.1300
70     H70   -10.9487   -1.4961   -1.2338 H        1 ZINC000042856596    0.1300
71     H71    -8.8948   -1.2939   -3.5617 H        1 ZINC000042856596    0.0700
72     H72    -8.4877   -3.0252   -3.4900 H        1 ZINC000042856596    0.0700
73     H73   -10.1785   -2.5002   -3.3059 H        1 ZINC000042856596    0.0700
74     H74    -5.1938   -2.8776   -0.2712 H        1 ZINC000042856596    0.1000
75     H75    -5.1737   -1.4006   -1.2654 H        1 ZINC000042856596    0.1100
76     H76    -1.8215   -4.2831   -2.3844 H        1 ZINC000042856596    0.1500
77     H77    -1.7315   -2.7736   -3.3237 H        1 ZINC000042856596    0.1400
78     H78     0.4426   -3.1847   -2.2890 H        1 ZINC000042856596    0.1400
79     H79    -0.3182   -3.3588   -0.6853 H        1 ZINC000042856596    0.0900
@<TRIPOS>BOND
1     1     2     1
2     1     48    1
3     1     49    1
4     1     50    1
5     2     3     2
6     2     4     am
7     4     47    1
8     4     5     1
9     5     6     1
10    5     51    1
11    5     52    1
12    6     7     1
13    6     53    1
14    6     54    1
15    7     8     1
16    7     9     1
17    7     46    1
18    9     10    1
19    9     45    1
20    9     11    1
21    11    12    1
22    11    55    1
23    11    56    1
24    12    13    1
25    12    57    1
26    12    58    1
27    13    14    am
28    13    35    1
29    14    15    2
30    14    16    am
31    16    17    1
32    16    18    1
33    17    59    1
34    17    60    1
35    17    61    1
36    18    19    1
37    18    20    1
38    18    21    1
39    20    62    1
40    20    63    1
41    20    64    1
42    21    34    ar
43    21    22    ar
44    22    23    ar
45    22    65    1
46    23    24    1
47    23    28    ar
48    24    25    1
49    24    26    1
50    24    27    1
51    28    29    ar
52    28    66    1
53    29    30    1
54    29    34    ar
55    30    31    1
56    30    32    1
57    30    33    1
58    34    67    1
59    35    36    1
60    35    37    1
61    35    45    1
62    37    43    ar
63    37    38    ar
64    38    39    ar
65    38    68    1
66    39    40    ar
67    39    69    1
68    40    41    1
69    40    42    ar
70    42    43    ar
71    42    70    1
72    43    44    1
73    44    71    1
74    44    72    1
75    44    73    1
76    45    74    1
77    45    75    1
78    46    47    1
79    46    76    1
80    46    77    1
81    47    78    1
82    47    79    1
@<TRIPOS>SUBSTRUCTURE
1   ZINC000042856596 1     RESIDUE    1   A     ZIN   1
