@<TRIPOS>MOLECULE
ZINC000052509466
65    69    1     0     0
SMALL
USER_CHARGES
@<TRIPOS>ATOM
1      C1      4.4987    2.5822   -0.5818 C.3      1 ZINC000052509466    0.0200
2      O2      3.9110    1.2921   -0.4020 O.3      1 ZINC000052509466   -0.3100
3      C3      4.0625    0.3991   -1.4139 C.ar     1 ZINC000052509466    0.1600
4      C4      4.7687    0.7578   -2.5546 C.ar     1 ZINC000052509466   -0.2100
5      C5      4.9244   -0.1464   -3.5835 C.ar     1 ZINC000052509466   -0.0500
6      C6      4.3721   -1.4227   -3.4778 C.ar     1 ZINC000052509466   -0.1100
7      C7      4.5379   -2.3971   -4.5815 C.ar     1 ZINC000052509466    0.2600
8      C8      5.3451   -2.0609   -5.6758 C.ar     1 ZINC000052509466   -0.1900
9      C9      5.5060   -2.9521   -6.7001 C.ar     1 ZINC000052509466    0.0100
10     C10     4.8469   -4.1859   -6.6136 C.ar     1 ZINC000052509466   -0.2100
11     C11     4.0431   -4.4695   -5.4810 C.ar     1 ZINC000052509466    0.3700
12     N12     3.9243   -3.5672   -4.5084 N.ar     1 ZINC000052509466   -0.4700
13     N13     3.4216   -5.6563   -5.4183 N.ar     1 ZINC000052509466   -0.5300
14     C14     3.5584   -6.5371   -6.3918 C.ar     1 ZINC000052509466    0.5400
15     N15     2.8996   -7.7471   -6.2859 N.3      1 ZINC000052509466   -0.4700
16     C16     3.3642   -8.4989   -5.1110 C.3      1 ZINC000052509466    0.0300
17     C17     2.6538   -9.8543   -5.0656 C.3      1 ZINC000052509466    0.0700
18     O18     1.2391   -9.6452   -5.0498 O.3      1 ZINC000052509466   -0.3800
19     C19     0.7522   -8.9165   -6.1801 C.3      1 ZINC000052509466    0.0700
20     C20     1.4433   -7.5516   -6.2368 C.3      1 ZINC000052509466    0.0500
21     H21     1.1833   -6.9748   -5.3492 H        1 ZINC000052509466    0.0700
22     C22     0.9856   -6.7987   -7.4876 C.3      1 ZINC000052509466   -0.1400
23     N23     4.3025   -6.3101   -7.4702 N.ar     1 ZINC000052509466   -0.5300
24     C24     4.9574   -5.1681   -7.6274 C.ar     1 ZINC000052509466    0.4200
25     N25     5.7262   -4.9429   -8.7486 N.3      1 ZINC000052509466   -0.4900
26     C26     6.8934   -5.8363   -8.7751 C.3      1 ZINC000052509466    0.0200
27     C27     7.7494   -5.5124  -10.0025 C.3      1 ZINC000052509466    0.0700
28     O28     6.9485   -5.6328  -11.1812 O.3      1 ZINC000052509466   -0.3800
29     C29     5.8033   -4.7763  -11.1891 C.3      1 ZINC000052509466    0.0700
30     C30     4.9276   -5.0926   -9.9738 C.3      1 ZINC000052509466    0.0500
31     H31     4.5607   -6.1165  -10.0462 H        1 ZINC000052509466    0.0800
32     C32     3.7418   -4.1266   -9.9331 C.3      1 ZINC000052509466   -0.1500
33     C33     3.6636   -1.7801   -2.3303 C.ar     1 ZINC000052509466    0.0000
34     C34     3.5157   -0.8731   -1.3033 C.ar     1 ZINC000052509466   -0.1300
35     C35     2.7506   -1.2583   -0.0634 C.3      1 ZINC000052509466    0.1300
36     O36     2.2812   -2.6019   -0.1914 O.3      1 ZINC000052509466   -0.5700
37     H37     5.5747    2.4753   -0.7194 H        1 ZINC000052509466    0.0600
38     H38     4.0656    3.0594   -1.4610 H        1 ZINC000052509466    0.0600
39     H39     4.3040    3.1959    0.2977 H        1 ZINC000052509466    0.1000
40     H40     5.1962    1.7462   -2.6359 H        1 ZINC000052509466    0.1400
41     H41     5.4731    0.1334   -4.4707 H        1 ZINC000052509466    0.1300
42     H42     5.8385   -1.1007   -5.7104 H        1 ZINC000052509466    0.1500
43     H43     6.1239   -2.7117   -7.5527 H        1 ZINC000052509466    0.1600
44     H44     4.4408   -8.6544   -5.1808 H        1 ZINC000052509466    0.0900
45     H45     3.1348   -7.9372   -4.2055 H        1 ZINC000052509466    0.0700
46     H46     2.9257  -10.4375   -5.9454 H        1 ZINC000052509466    0.0600
47     H47     2.9523  -10.3917   -4.1655 H        1 ZINC000052509466    0.1100
48     H48     0.9689   -9.4724   -7.0923 H        1 ZINC000052509466    0.0600
49     H49    -0.3245   -8.7756   -6.0860 H        1 ZINC000052509466    0.1100
50     H50    -0.1031   -6.7470   -7.5025 H        1 ZINC000052509466    0.0700
51     H51     1.3972   -5.7895   -7.4752 H        1 ZINC000052509466    0.0500
52     H52     1.3365   -7.3234   -8.3763 H        1 ZINC000052509466    0.0700
53     H53     7.4841   -5.6904   -7.8707 H        1 ZINC000052509466    0.0900
54     H54     6.5579   -6.8720   -8.8284 H        1 ZINC000052509466    0.0700
55     H55     8.1291   -4.4938   -9.9229 H        1 ZINC000052509466    0.0600
56     H56     8.5853   -6.2098  -10.0576 H        1 ZINC000052509466    0.1100
57     H57     6.1263   -3.7362  -11.1441 H        1 ZINC000052509466    0.0600
58     H58     5.2316   -4.9412  -12.1025 H        1 ZINC000052509466    0.1100
59     H59     3.2072   -4.1675  -10.8821 H        1 ZINC000052509466    0.0700
60     H60     3.0688   -4.4114   -9.1244 H        1 ZINC000052509466    0.0500
61     H61     4.1047   -3.1129   -9.7638 H        1 ZINC000052509466    0.0700
62     H62     3.2347   -2.7676   -2.2454 H        1 ZINC000052509466    0.1600
63     H63     3.4047   -1.1831    0.8053 H        1 ZINC000052509466    0.0600
64     H64     1.9010   -0.5871    0.0624 H        1 ZINC000052509466    0.0600
65     H65     1.7789   -2.9175    0.5722 H        1 ZINC000052509466    0.3900
@<TRIPOS>BOND
1     1     2     1
2     1     37    1
3     1     38    1
4     1     39    1
5     2     3     1
6     3     34    ar
7     3     4     ar
8     4     5     ar
9     4     40    1
10    5     6     ar
11    5     41    1
12    6     7     1
13    6     33    ar
14    7     12    ar
15    7     8     ar
16    8     9     ar
17    8     42    1
18    9     10    ar
19    9     43    1
20    10    24    ar
21    10    11    ar
22    11    12    ar
23    11    13    ar
24    13    14    ar
25    14    15    1
26    14    23    ar
27    15    20    1
28    15    16    1
29    16    17    1
30    16    44    1
31    16    45    1
32    17    18    1
33    17    46    1
34    17    47    1
35    18    19    1
36    19    20    1
37    19    48    1
38    19    49    1
39    20    21    1
40    20    22    1
41    22    50    1
42    22    51    1
43    22    52    1
44    23    24    ar
45    24    25    1
46    25    30    1
47    25    26    1
48    26    27    1
49    26    53    1
50    26    54    1
51    27    28    1
52    27    55    1
53    27    56    1
54    28    29    1
55    29    30    1
56    29    57    1
57    29    58    1
58    30    31    1
59    30    32    1
60    32    59    1
61    32    60    1
62    32    61    1
63    33    34    ar
64    33    62    1
65    34    35    1
66    35    36    1
67    35    63    1
68    35    64    1
69    36    65    1
@<TRIPOS>SUBSTRUCTURE
1   ZINC000052509466 1     RESIDUE    1   A     ZIN   1
