@<TRIPOS>MOLECULE
ZINC000088346058
47    51    1     0     0
SMALL
USER_CHARGES
@<TRIPOS>ATOM
1      C1     -0.0185   -0.5333   -0.7463 C.3      1 ZINC000088346058   -0.2000
2      C2     -0.3595   -0.6503    0.7406 C.3      1 ZINC000088346058    0.1700
3      H3     -0.0914   -1.6446    1.0977 H        1 ZINC000088346058    0.1100
4      N4     -1.7959   -0.4339    0.9307 N.pl3    1 ZINC000088346058   -0.6600
5      C5     -2.7027   -0.9935    0.0478 C.ar     1 ZINC000088346058    0.4700
6      C6     -4.0836   -0.7917    0.2114 C.ar     1 ZINC000088346058   -0.0700
7      N7     -4.8490   -0.1198    1.1047 N.2      1 ZINC000088346058   -0.4500
8      C8     -6.1043   -0.2594    0.7911 C.2      1 ZINC000088346058    0.2600
9      N9     -6.2221   -1.0318   -0.3261 N.pl3    1 ZINC000088346058   -0.5800
10     C10    -4.9555   -1.3849   -0.7174 C.ar     1 ZINC000088346058    0.3000
11     N11    -4.4472   -2.1091   -1.7090 N.ar     1 ZINC000088346058   -0.5400
12     C12    -3.1458   -2.2709   -1.8230 C.ar     1 ZINC000088346058    0.3500
13     N13    -2.2875   -1.7298   -0.9778 N.ar     1 ZINC000088346058   -0.5700
14     C14     0.4117    0.3867    1.5159 C.2      1 ZINC000088346058    0.1300
15     C15     1.6678    0.1067    1.8986 C.2      1 ZINC000088346058   -0.1800
16     C16     2.4296    1.1046    2.6521 C.ar     1 ZINC000088346058    0.0200
17     C17     3.7378    0.8692    3.0752 C.ar     1 ZINC000088346058   -0.1200
18     C18     4.4096    1.8429    3.7811 C.ar     1 ZINC000088346058   -0.0700
19     C19     3.7999    3.0548    4.0758 C.ar     1 ZINC000088346058   -0.1300
20     C20     2.5073    3.3107    3.6687 C.ar     1 ZINC000088346058    0.0300
21     Cl21    1.7569    4.8305    4.0440 Cl       1 ZINC000088346058   -0.0300
22     C22     1.8073    2.3391    2.9518 C.ar     1 ZINC000088346058   -0.1500
23     C23     0.4316    2.5540    2.4928 C.2      1 ZINC000088346058    0.5400
24     O24    -0.1401    3.6029    2.7305 O.2      1 ZINC000088346058   -0.4800
25     N25    -0.1911    1.5806    1.7993 N.am     1 ZINC000088346058   -0.4500
26     C26    -1.5047    1.7947    1.3644 C.ar     1 ZINC000088346058   -0.0300
27     C27    -2.3638    2.5906    2.1108 C.ar     1 ZINC000088346058   -0.0500
28     C28    -3.6587    2.8002    1.6789 C.ar     1 ZINC000088346058   -0.1700
29     C29    -4.1002    2.2185    0.5046 C.ar     1 ZINC000088346058   -0.0300
30     C30    -3.2472    1.4255   -0.2409 C.ar     1 ZINC000088346058   -0.2000
31     C31    -1.9495    1.2162    0.1828 C.ar     1 ZINC000088346058   -0.0200
32     H32     0.7923   -1.2204   -0.9883 H        1 ZINC000088346058    0.0900
33     H33    -0.8968   -0.7837   -1.3413 H        1 ZINC000088346058    0.1400
34     H34     0.2919    0.4877   -0.9687 H        1 ZINC000088346058    0.0600
35     H35    -2.1113    0.1016    1.6755 H        1 ZINC000088346058    0.4400
36     H36    -6.9308    0.1725    1.3357 H        1 ZINC000088346058    0.2300
37     H37    -7.0497   -1.2854   -0.7638 H        1 ZINC000088346058    0.4300
38     H38    -2.7655   -2.8655   -2.6405 H        1 ZINC000088346058    0.2100
39     H39     2.1124   -0.8464    1.6532 H        1 ZINC000088346058    0.1600
40     H40     4.2207   -0.0705    2.8512 H        1 ZINC000088346058    0.1400
41     H41     5.4224    1.6613    4.1093 H        1 ZINC000088346058    0.1400
42     H42     4.3436    3.8054    4.6303 H        1 ZINC000088346058    0.1400
43     H43    -2.0197    3.0449    3.0283 H        1 ZINC000088346058    0.1400
44     H44    -4.3274    3.4188    2.2592 H        1 ZINC000088346058    0.1200
45     H45    -5.1134    2.3837    0.1692 H        1 ZINC000088346058    0.1100
46     H46    -3.5950    0.9726   -1.1576 H        1 ZINC000088346058    0.1100
47     H47    -1.2837    0.5971   -0.4001 H        1 ZINC000088346058    0.1500
@<TRIPOS>BOND
1     1     2     1
2     1     32    1
3     1     33    1
4     1     34    1
5     2     3     1
6     2     4     1
7     2     14    1
8     4     5     1
9     4     35    1
10    5     13    ar
11    5     6     ar
12    6     10    ar
13    6     7     1
14    7     8     2
15    8     9     1
16    8     36    1
17    9     10    1
18    9     37    1
19    10    11    ar
20    11    12    ar
21    12    13    ar
22    12    38    1
23    14    25    1
24    14    15    2
25    15    16    1
26    15    39    1
27    16    22    ar
28    16    17    ar
29    17    18    ar
30    17    40    1
31    18    19    ar
32    18    41    1
33    19    20    ar
34    19    42    1
35    20    21    1
36    20    22    ar
37    22    23    1
38    23    24    2
39    23    25    am
40    25    26    1
41    26    31    ar
42    26    27    ar
43    27    28    ar
44    27    43    1
45    28    29    ar
46    28    44    1
47    29    30    ar
48    29    45    1
49    30    31    ar
50    30    46    1
51    31    47    1
@<TRIPOS>SUBSTRUCTURE
1   ZINC000088346058 1     RESIDUE    1   A     ZIN   1
