@<TRIPOS>MOLECULE
ZINC000019594578
  43   44    0    0    0
SMALL
USER_CHARGES
NO_NAME
@<TRIPOS>ATOM
    1 C1       -1.5347    -0.9322    -0.2357 C.2    1 <0>      -0.1100
    2 C2       -1.1271    -2.0153     0.4160 C.2    1 <0>       0.0300
    3 N3       -1.9677    -2.6718     1.2670 N.2    1 <0>      -0.4500
    4 C4       -1.5581    -3.5666     2.0873 C.2    1 <0>       0.1900
    5 C5       -2.5728    -4.2184     2.9909 C.3    1 <0>      -0.1200
    6 C6       -0.1272    -4.0040     2.2005 C.3    1 <0>      -0.1000
    7 C7        0.0584    -5.2972     1.4494 C.2    1 <0>       0.4700
    8 O8        1.1410    -5.5818     0.9948 O.2    1 <0>      -0.4900
    9 O9       -0.9792    -6.1329     1.2854 O.3    1 <0>      -0.3400
   10 C10      -0.7274    -7.3603     0.5516 C.3    1 <0>       0.0400
   11 C11       0.8068    -2.9418     1.6155 C.3    1 <0>      -0.0400
   12 H12       1.8134    -3.3493     1.5219 H      1 <0>       0.1300
   13 C13       0.8298    -1.7341     2.5166 C.ar   1 <0>      -0.0300
   14 C14      -0.3314    -1.3117     3.1358 C.ar   1 <0>      -0.1200
   15 C15      -0.3103    -0.2036     3.9625 C.ar   1 <0>      -0.0700
   16 C16       0.8721     0.4814     4.1700 C.ar   1 <0>      -0.1100
   17 C17       2.0338     0.0583     3.5512 C.ar   1 <0>      -0.0600
   18 C18       2.0136    -1.0519     2.7282 C.ar   1 <0>      -0.0200
   19 N19       3.2574    -1.5049     2.0658 N.pl3  1 <0>       0.0200
   20 O20       4.3119    -1.4907     2.6752 O.2    1 <0>      -0.1500
   21 O21       3.2263    -1.8918     0.9113 O.2    1 <0>      -0.1400
   22 C22       0.2761    -2.5478     0.2239 C.3    1 <0>      -0.0700
   23 C23       0.2560    -3.7552    -0.6776 C.2    1 <0>       0.4700
   24 O24      -0.7836    -4.3329    -0.8906 O.2    1 <0>      -0.4900
   25 O25       1.3931    -4.1888    -1.2441 O.3    1 <0>      -0.3300
   26 C26       1.2988    -5.3574    -2.1007 C.3    1 <0>       0.0400
   27 H27      -0.8624    -0.4229    -0.9103 H      1 <0>       0.1200
   28 H28      -2.5399    -0.5633    -0.0944 H      1 <0>       0.1200
   29 H29      -3.5591    -3.7992     2.7918 H      1 <0>       0.0900
   30 H30      -2.5898    -5.2921     2.8033 H      1 <0>       0.0900
   31 H31      -2.3035    -4.0355     4.0311 H      1 <0>       0.0800
   32 H32       0.1192    -4.1596     3.2508 H      1 <0>       0.1400
   33 H33      -0.3844    -7.1183    -0.4543 H      1 <0>       0.0600
   34 H34       0.0379    -7.9410     1.0666 H      1 <0>       0.0600
   35 H35      -1.6467    -7.9428     0.4917 H      1 <0>       0.1100
   36 H36      -1.2553    -1.8469     2.9737 H      1 <0>       0.1600
   37 H37      -1.2178     0.1269     4.4458 H      1 <0>       0.1500
   38 H38       0.8884     1.3473     4.8151 H      1 <0>       0.1500
   39 H39       2.9577     0.5937     3.7131 H      1 <0>       0.1500
   40 H40       0.9084    -1.7721    -0.2080 H      1 <0>       0.1300
   41 H41       0.9186    -6.2007    -1.5243 H      1 <0>       0.0600
   42 H42       0.6209    -5.1476    -2.9281 H      1 <0>       0.0600
   43 H43       2.2863    -5.6010    -2.4929 H      1 <0>       0.1000
@<TRIPOS>BOND
   1    1    2 2
   2    1   27 1
   3    1   28 1
   4    2   22 1
   5    2    3 1
   6    3    4 2
   7    4    5 1
   8    4    6 1
   9    5   29 1
  10    5   30 1
  11    5   31 1
  12    6    7 1
  13    6   11 1
  14    6   32 1
  15    7    8 2
  16    7    9 1
  17    9   10 1
  18   10   33 1
  19   10   34 1
  20   10   35 1
  21   11   12 1
  22   11   13 1
  23   11   22 1
  24   13   18 ar
  25   13   14 ar
  26   14   15 ar
  27   14   36 1
  28   15   16 ar
  29   15   37 1
  30   16   17 ar
  31   16   38 1
  32   17   18 ar
  33   17   39 1
  34   18   19 1
  35   19   20 2
  36   19   21 2
  37   22   23 1
  38   22   40 1
  39   23   24 2
  40   23   25 1
  41   25   26 1
  42   26   41 1
  43   26   42 1
  44   26   43 1
