@<TRIPOS>MOLECULE
ZINC000013828181
54    57    1     0     0
SMALL
USER_CHARGES
@<TRIPOS>ATOM
1      O1     -1.8047   -3.3353    0.9135 O.co2    1 ZINC000013828181   -0.6800
2      C2     -2.4662   -3.2844    1.9365 C.2      1 ZINC000013828181    0.4900
3      O3     -2.0356   -3.7755    2.9660 O.co2    1 ZINC000013828181   -0.7100
4      C4     -3.8134   -2.6090    1.9298 C.3      1 ZINC000013828181   -0.2200
5      C5     -4.1101   -2.0767    0.5264 C.3      1 ZINC000013828181    0.1400
6      H6     -3.2964   -1.4266    0.2048 H        1 ZINC000013828181    0.1000
7      O7     -4.2320   -3.1725   -0.3828 O.3      1 ZINC000013828181   -0.5400
8      C8     -5.4184   -1.2838    0.5477 C.3      1 ZINC000013828181   -0.1800
9      C9     -5.6515   -0.6475   -0.8241 C.3      1 ZINC000013828181    0.1400
10     H10    -5.6242   -1.4203   -1.5923 H        1 ZINC000013828181    0.1200
11     O11    -4.6291    0.3169   -1.0818 O.3      1 ZINC000013828181   -0.5500
12     C12    -6.9974    0.0304   -0.8412 C.2      1 ZINC000013828181   -0.1500
13     C13    -7.0904    1.3129   -1.1707 C.2      1 ZINC000013828181   -0.1300
14     C14    -8.4159    1.9505   -1.2869 C.ar     1 ZINC000013828181   -0.0700
15     C15    -8.8060    2.5615   -2.4883 C.ar     1 ZINC000013828181    0.2100
16     C16    -7.8542    2.5582   -3.6567 C.3      1 ZINC000013828181   -0.1200
17     C17    -8.3871    3.0510   -5.0035 C.3      1 ZINC000013828181   -0.1600
18     C18    -7.4063    3.9138   -4.2069 C.3      1 ZINC000013828181   -0.1600
19     N19    -9.9758    3.1338   -2.6204 N.ar     1 ZINC000013828181   -0.4800
20     C20   -10.8650    3.1702   -1.6208 C.ar     1 ZINC000013828181    0.1300
21     C21   -12.1143    3.7915   -1.7916 C.ar     1 ZINC000013828181   -0.0900
22     C22   -13.0040    3.8166   -0.7614 C.ar     1 ZINC000013828181   -0.1000
23     C23   -12.6977    3.2349    0.4666 C.ar     1 ZINC000013828181   -0.1200
24     C24   -11.4967    2.6238    0.6687 C.ar     1 ZINC000013828181   -0.0900
25     C25   -10.5575    2.5794   -0.3710 C.ar     1 ZINC000013828181   -0.0900
26     C26    -9.3015    1.9474   -0.1996 C.ar     1 ZINC000013828181    0.0100
27     C27    -8.9347    1.3107    1.0834 C.ar     1 ZINC000013828181   -0.0600
28     C28    -7.9184    1.8555    1.8705 C.ar     1 ZINC000013828181   -0.0600
29     C29    -7.5803    1.2577    3.0661 C.ar     1 ZINC000013828181   -0.1500
30     C30    -8.2475    0.1180    3.4871 C.ar     1 ZINC000013828181    0.1100
31     F31    -7.9126   -0.4635    4.6597 F        1 ZINC000013828181   -0.1300
32     C32    -9.2574   -0.4270    2.7096 C.ar     1 ZINC000013828181   -0.1500
33     C33    -9.6074    0.1660    1.5150 C.ar     1 ZINC000013828181   -0.0800
34     H34    -4.5815   -3.3276    2.2157 H        1 ZINC000013828181    0.0600
35     H35    -3.8083   -1.7812    2.6388 H        1 ZINC000013828181    0.0600
36     H36    -4.9384   -3.7934   -0.1579 H        1 ZINC000013828181    0.3500
37     H37    -6.2455   -1.9536    0.7829 H        1 ZINC000013828181    0.0700
38     H38    -5.3572   -0.5022    1.3050 H        1 ZINC000013828181    0.0700
39     H39    -4.5947    1.0358   -0.4360 H        1 ZINC000013828181    0.3700
40     H40    -7.8862   -0.5273   -0.5853 H        1 ZINC000013828181    0.1100
41     H41    -6.1958    1.8897   -1.3537 H        1 ZINC000013828181    0.1300
42     H42    -7.1282    1.7452   -3.6693 H        1 ZINC000013828181    0.1300
43     H43    -8.0119    2.5622   -5.9026 H        1 ZINC000013828181    0.1000
44     H44    -9.4262    3.3777   -5.0445 H        1 ZINC000013828181    0.1100
45     H45    -7.8002    4.8080   -3.7238 H        1 ZINC000013828181    0.0900
46     H46    -6.3859    3.9925   -4.5818 H        1 ZINC000013828181    0.1000
47     H47   -12.3674    4.2479   -2.7371 H        1 ZINC000013828181    0.1300
48     H48   -13.9623    4.2954   -0.8983 H        1 ZINC000013828181    0.1300
49     H49   -13.4207    3.2690    1.2682 H        1 ZINC000013828181    0.1300
50     H50   -11.2697    2.1757    1.6248 H        1 ZINC000013828181    0.1300
51     H51    -7.3976    2.7433    1.5432 H        1 ZINC000013828181    0.1300
52     H52    -6.7940    1.6780    3.6756 H        1 ZINC000013828181    0.1400
53     H53    -9.7740   -1.3152    3.0423 H        1 ZINC000013828181    0.1400
54     H54   -10.3946   -0.2593    0.9101 H        1 ZINC000013828181    0.1300
@<TRIPOS>BOND
1     1     2     ar
2     2     3     ar
3     2     4     1
4     4     5     1
5     4     34    1
6     4     35    1
7     5     6     1
8     5     7     1
9     5     8     1
10    7     36    1
11    8     9     1
12    8     37    1
13    8     38    1
14    9     10    1
15    9     11    1
16    9     12    1
17    11    39    1
18    12    13    2
19    12    40    1
20    13    14    1
21    13    41    1
22    14    26    ar
23    14    15    ar
24    15    16    1
25    15    19    ar
26    16    18    1
27    16    17    1
28    16    42    1
29    17    18    1
30    17    43    1
31    17    44    1
32    18    45    1
33    18    46    1
34    19    20    ar
35    20    25    ar
36    20    21    ar
37    21    22    ar
38    21    47    1
39    22    23    ar
40    22    48    1
41    23    24    ar
42    23    49    1
43    24    25    ar
44    24    50    1
45    25    26    ar
46    26    27    1
47    27    33    ar
48    27    28    ar
49    28    29    ar
50    28    51    1
51    29    30    ar
52    29    52    1
53    30    31    1
54    30    32    ar
55    32    33    ar
56    32    53    1
57    33    54    1
@<TRIPOS>SUBSTRUCTURE
1   ZINC000013828181 1     RESIDUE    1   A     ZIN   1
