@<TRIPOS>MOLECULE
ZINC000068250425
67    71    1     0     0
SMALL
USER_CHARGES
@<TRIPOS>ATOM
1      C1      2.0946   -2.9807   -3.1204 C.3      1 ZINC000068250425    0.0200
2      O2      2.0088   -2.1712   -1.9460 O.3      1 ZINC000068250425   -0.3200
3      C3      2.3185   -2.7648   -0.7636 C.ar     1 ZINC000068250425    0.1300
4      C4      2.7047   -4.1085   -0.7449 C.ar     1 ZINC000068250425   -0.1900
5      C5      3.0206   -4.7282    0.4235 C.ar     1 ZINC000068250425   -0.0600
6      C6      2.9606   -4.0145    1.6338 C.ar     1 ZINC000068250425   -0.0800
7      C7      3.2822   -4.6305    2.8530 C.ar     1 ZINC000068250425   -0.0900
8      C8      3.2127   -3.8984    4.0253 C.ar     1 ZINC000068250425   -0.0400
9      C9      3.5510   -4.5423    5.3135 C.2      1 ZINC000068250425    0.1300
10     C10     4.0478   -3.9188    6.4208 C.2      1 ZINC000068250425   -0.2300
11     C11     4.2258   -4.8925    7.4178 C.2      1 ZINC000068250425    0.1000
12     C12     4.7464   -4.6500    8.7866 C.ar     1 ZINC000068250425    0.0200
13     C13     5.1030   -3.3623    9.1805 C.ar     1 ZINC000068250425   -0.0900
14     C14     5.5866   -3.1415   10.4557 C.ar     1 ZINC000068250425   -0.0200
15     Cl15    6.0308   -1.5372   10.9483 Cl       1 ZINC000068250425   -0.0500
16     C16     5.7170   -4.1972   11.3412 C.ar     1 ZINC000068250425   -0.1000
17     C17     5.3645   -5.4785   10.9542 C.ar     1 ZINC000068250425   -0.0200
18     Cl18    5.5310   -6.7976   12.0705 Cl       1 ZINC000068250425   -0.0500
19     C19     4.8746   -5.7084    9.6831 C.ar     1 ZINC000068250425   -0.0800
20     N20     3.8511   -6.0569    6.9305 N.2      1 ZINC000068250425   -0.2600
21     N21     3.4175   -5.8664    5.6124 N.pl3    1 ZINC000068250425   -0.3500
22     C22     2.9176   -6.9072    4.7108 C.3      1 ZINC000068250425    0.1900
23     H23     2.4867   -6.4431    3.8236 H        1 ZINC000068250425    0.1200
24     C24     4.0724   -7.8221    4.2980 C.3      1 ZINC000068250425   -0.1700
25     C25     1.8617   -7.7184    5.4165 C.ar     1 ZINC000068250425   -0.0900
26     C26     2.1781   -8.3981    6.5794 C.ar     1 ZINC000068250425   -0.0900
27     C27     1.2162   -9.1429    7.2300 C.ar     1 ZINC000068250425   -0.0700
28     C28    -0.0785   -9.2094    6.7130 C.ar     1 ZINC000068250425   -0.1100
29     C29    -1.1144  -10.0053    7.4053 C.2      1 ZINC000068250425    0.5500
30     O30    -0.8394  -10.6035    8.4271 O.2      1 ZINC000068250425   -0.5400
31     N31    -2.3637  -10.0675    6.9035 N.am     1 ZINC000068250425   -0.7200
32     C32    -3.3902  -10.8561    7.5895 C.3      1 ZINC000068250425    0.1400
33     C33    -4.7080  -10.7593    6.8182 C.3      1 ZINC000068250425   -0.2000
34     C34    -5.7639  -11.5705    7.5239 C.2      1 ZINC000068250425    0.5000
35     O35    -5.4881  -12.1705    8.5488 O.co2    1 ZINC000068250425   -0.6900
36     O36    -6.8941  -11.6268    7.0699 O.co2    1 ZINC000068250425   -0.7000
37     C37    -0.3912   -8.5210    5.5398 C.ar     1 ZINC000068250425   -0.0900
38     C38     0.5787   -7.7756    4.9017 C.ar     1 ZINC000068250425   -0.1100
39     C39     2.8238   -2.5477    4.0019 C.ar     1 ZINC000068250425   -0.0800
40     C40     2.5090   -1.9343    2.8327 C.ar     1 ZINC000068250425   -0.1100
41     C41     2.5697   -2.6511    1.6231 C.ar     1 ZINC000068250425   -0.0100
42     C42     2.2540   -2.0352    0.4016 C.ar     1 ZINC000068250425   -0.1500
43     H43     1.4126   -3.8260   -3.0297 H        1 ZINC000068250425    0.0600
44     H44     1.8222   -2.3860   -3.9923 H        1 ZINC000068250425    0.1000
45     H45     3.1146   -3.3475   -3.2352 H        1 ZINC000068250425    0.0600
46     H46     2.7523   -4.6619   -1.6711 H        1 ZINC000068250425    0.1300
47     H47     3.3168   -5.7668    0.4221 H        1 ZINC000068250425    0.1300
48     H48     3.5811   -5.6681    2.8763 H        1 ZINC000068250425    0.1300
49     H49     4.2652   -2.8650    6.5142 H        1 ZINC000068250425    0.1500
50     H50     5.0018   -2.5379    8.4902 H        1 ZINC000068250425    0.1500
51     H51     6.0955   -4.0207   12.3372 H        1 ZINC000068250425    0.1500
52     H52     4.5998   -6.7085    9.3820 H        1 ZINC000068250425    0.1500
53     H53     3.7005   -8.5965    3.6271 H        1 ZINC000068250425    0.0800
54     H54     4.8362   -7.2353    3.7876 H        1 ZINC000068250425    0.0700
55     H55     4.5033   -8.2861    5.1851 H        1 ZINC000068250425    0.0800
56     H56     3.1803   -8.3458    6.9784 H        1 ZINC000068250425    0.1400
57     H57     1.4647   -9.6736    8.1373 H        1 ZINC000068250425    0.1400
58     H58    -2.5832   -9.5902    6.0881 H        1 ZINC000068250425    0.3900
59     H59    -3.0745  -11.8982    7.6400 H        1 ZINC000068250425    0.0700
60     H60    -3.5309  -10.4698    8.5990 H        1 ZINC000068250425    0.0700
61     H61    -5.0238   -9.7172    6.7677 H        1 ZINC000068250425    0.0600
62     H62    -4.5674  -11.1456    5.8087 H        1 ZINC000068250425    0.0600
63     H63    -1.3910   -8.5687    5.1343 H        1 ZINC000068250425    0.1300
64     H64     0.3380   -7.2422    3.9940 H        1 ZINC000068250425    0.1300
65     H65     2.7745   -1.9910    4.9261 H        1 ZINC000068250425    0.1300
66     H66     2.2119   -0.8960    2.8306 H        1 ZINC000068250425    0.1400
67     H67     1.9590   -0.9966    0.3769 H        1 ZINC000068250425    0.1400
@<TRIPOS>BOND
1     1     2     1
2     1     43    1
3     1     44    1
4     1     45    1
5     2     3     1
6     3     42    ar
7     3     4     ar
8     4     5     ar
9     4     46    1
10    5     6     ar
11    5     47    1
12    6     41    ar
13    6     7     ar
14    7     8     ar
15    7     48    1
16    8     9     1
17    8     39    ar
18    9     21    1
19    9     10    2
20    10    11    1
21    10    49    1
22    11    12    1
23    11    20    2
24    12    19    ar
25    12    13    ar
26    13    14    ar
27    13    50    1
28    14    15    1
29    14    16    ar
30    16    17    ar
31    16    51    1
32    17    18    1
33    17    19    ar
34    19    52    1
35    20    21    1
36    21    22    1
37    22    23    1
38    22    24    1
39    22    25    1
40    24    53    1
41    24    54    1
42    24    55    1
43    25    38    ar
44    25    26    ar
45    26    27    ar
46    26    56    1
47    27    28    ar
48    27    57    1
49    28    29    1
50    28    37    ar
51    29    30    2
52    29    31    am
53    31    32    1
54    31    58    1
55    32    33    1
56    32    59    1
57    32    60    1
58    33    34    1
59    33    61    1
60    33    62    1
61    34    35    ar
62    34    36    ar
63    37    38    ar
64    37    63    1
65    38    64    1
66    39    40    ar
67    39    65    1
68    40    41    ar
69    40    66    1
70    41    42    ar
71    42    67    1
@<TRIPOS>SUBSTRUCTURE
1   ZINC000068250425 1     RESIDUE    1   A     ZIN   1
