@<TRIPOS>MOLECULE
ZINC000000001723
27    28    1     0     0
SMALL
USER_CHARGES
@<TRIPOS>ATOM
1      C1     -0.0184    1.5028    0.0103 C.3      1 ZINC000000001723   -0.1100
2      C2      0.0021   -0.0041    0.0020 C.ar     1 ZINC000000001723    0.2700
3      N3      0.0058   -0.6680   -1.1425 N.ar     1 ZINC000000001723   -0.6000
4      C4      0.0242   -1.9931   -1.1643 C.ar     1 ZINC000000001723    0.6100
5      N5      0.0274   -2.6446   -2.3847 N.pl3    1 ZINC000000001723   -0.8200
6      N6      0.0400   -2.7121   -0.0518 N.ar     1 ZINC000000001723   -0.6300
7      C7      0.0375   -2.1219    1.1379 C.ar     1 ZINC000000001723    0.5000
8      N8      0.0545   -2.8765    2.2974 N.pl3    1 ZINC000000001723   -0.8300
9      C9      0.0231   -0.7162    1.1993 C.ar     1 ZINC000000001723   -0.2900
10     C10     0.0203   -0.0114    2.5039 C.ar     1 ZINC000000001723    0.0100
11     C11    -1.0816    0.7531    2.8831 C.ar     1 ZINC000000001723   -0.0900
12     C12    -1.0802    1.4070    4.0986 C.ar     1 ZINC000000001723   -0.0900
13     C13     0.0131    1.3048    4.9410 C.ar     1 ZINC000000001723   -0.0400
14     Cl14    0.0082    2.1294    6.4687 Cl       1 ZINC000000001723   -0.0500
15     C15     1.1115    0.5461    4.5693 C.ar     1 ZINC000000001723   -0.0300
16     Cl16    2.4790    0.4221    5.6315 Cl       1 ZINC000000001723   -0.0400
17     C17     1.1173   -0.1161    3.3576 C.ar     1 ZINC000000001723   -0.1000
18     H18     1.0042    1.8801    0.0026 H        1 ZINC000000001723    0.0900
19     H19    -0.5455    1.8639   -0.8728 H        1 ZINC000000001723    0.0900
20     H20    -0.5286    1.8543    0.9071 H        1 ZINC000000001723    0.0800
21     H21     0.0163   -2.1320   -3.2081 H        1 ZINC000000001723    0.4200
22     H22     0.0407   -3.6140   -2.4170 H        1 ZINC000000001723    0.4100
23     H23     0.0684   -3.8450    2.2456 H        1 ZINC000000001723    0.4100
24     H24     0.0525   -2.4370    3.1621 H        1 ZINC000000001723    0.4100
25     H25    -1.9354    0.8341    2.2266 H        1 ZINC000000001723    0.1400
26     H26    -1.9336    1.9999    4.3927 H        1 ZINC000000001723    0.1500
27     H27     1.9734   -0.7077    3.0685 H        1 ZINC000000001723    0.1400
@<TRIPOS>BOND
1     1     2     1
2     1     18    1
3     1     19    1
4     1     20    1
5     2     9     ar
6     2     3     ar
7     3     4     ar
8     4     5     1
9     4     6     ar
10    5     21    1
11    5     22    1
12    6     7     ar
13    7     8     1
14    7     9     ar
15    8     23    1
16    8     24    1
17    9     10    1
18    10    17    ar
19    10    11    ar
20    11    12    ar
21    11    25    1
22    12    13    ar
23    12    26    1
24    13    14    1
25    13    15    ar
26    15    16    1
27    15    17    ar
28    17    27    1
@<TRIPOS>SUBSTRUCTURE
1   ZINC000000001723 1     RESIDUE    1   A     ZIN   1
