@<TRIPOS>MOLECULE
ZINC000003808350
  45   47    0    0    0
SMALL
USER_CHARGES
NO_NAME
@<TRIPOS>ATOM
    1 C1       -0.0221     1.6088     2.0375 C.3    1 <0>      -0.1900
    2 C2       -0.0482     0.0841     1.9121 C.3    1 <0>       0.1200
    3 H3        0.7728    -0.2420     1.2736 H      1 <0>       0.1100
    4 O4        0.0934    -0.5028     3.2072 O.3    1 <0>      -0.5500
    5 C5       -1.3784    -0.3542     1.2961 C.3    1 <0>      -0.2000
    6 H6       -2.2423     0.0838     1.7959 H      1 <0>       0.1400
    7 C7       -1.4206    -0.2304    -0.2131 C.2    1 <0>       0.5200
    8 O8       -1.3384     0.7006    -0.9866 O.2    1 <0>      -0.4200
    9 N9       -1.5865    -1.5745    -0.3611 N.am   1 <0>      -0.4800
   10 C10      -2.8221    -2.0436    -0.8381 C.2    1 <0>       0.1600
   11 C11      -3.2060    -1.9904    -2.1937 C.2    1 <0>       0.4400
   12 O12      -4.3523    -2.5475    -2.5841 O.co2  1 <0>      -0.6600
   13 O13      -2.4227    -1.3829    -3.0849 O.co2  1 <0>      -0.6600
   14 C14      -3.6024    -2.5506     0.1398 C.2    1 <0>      -0.2200
   15 S15      -5.2225    -3.2083    -0.0779 S.3    1 <0>      -0.0200
   16 C16      -4.9211    -4.9381     0.3617 C.3    1 <0>      -0.1300
   17 H17      -4.3544    -5.0015     1.2906 H      1 <0>       0.1100
   18 C18      -4.1713    -5.6649    -0.7812 C.3    1 <0>      -0.1500
   19 C19      -4.8779    -7.0441    -0.8074 C.3    1 <0>       0.0600
   20 O20      -6.2573    -6.7213    -0.5286 O.3    1 <0>      -0.3800
   21 C21      -6.2533    -5.7021     0.4893 C.3    1 <0>       0.0800
   22 H22      -6.3272    -6.1621     1.4747 H      1 <0>       0.1000
   23 C23      -7.4277    -4.7457     0.2726 C.3    1 <0>      -0.0200
   24 N24      -8.6905    -5.4627     0.4947 N.4    1 <0>      -0.6300
   25 H25      -8.7148    -5.8164     1.4393 H      1 <0>       0.4300
   26 H26      -9.4650    -4.8320     0.3517 H      1 <0>       0.4400
   27 H27      -8.7591    -6.2321    -0.1545 H      1 <0>       0.4400
   28 C28      -2.8580    -2.4618     1.4520 C.3    1 <0>      -0.0500
   29 H29      -2.7377    -3.4533     1.8885 H      1 <0>       0.0900
   30 C30      -3.5969    -1.5387     2.4231 C.3    1 <0>      -0.1400
   31 C31      -1.4907    -1.8699     1.0857 C.3    1 <0>       0.0700
   32 H32      -0.6352    -2.4674     1.4008 H      1 <0>       0.1400
   33 H33       0.9255     1.9211     2.4763 H      1 <0>       0.0700
   34 H34      -0.1301     2.0565     1.0495 H      1 <0>       0.0800
   35 H35      -0.8432     1.9349     2.6759 H      1 <0>       0.0600
   36 H36      -0.6044    -0.2557     3.8295 H      1 <0>       0.3700
   37 H37      -4.3043    -5.1416    -1.7281 H      1 <0>       0.1100
   38 H38      -3.1131    -5.7744    -0.5441 H      1 <0>       0.0900
   39 H39      -4.7828    -7.5055    -1.7904 H      1 <0>       0.1100
   40 H40      -4.4729    -7.6977    -0.0348 H      1 <0>       0.0700
   41 H41      -7.3536    -3.9145     0.9738 H      1 <0>       0.1600
   42 H42      -7.4015    -4.3636    -0.7479 H      1 <0>       0.1600
   43 H43      -4.5366    -2.0031     2.7219 H      1 <0>       0.0600
   44 H44      -2.9788    -1.3693     3.3048 H      1 <0>       0.0700
   45 H45      -3.8015    -0.5862     1.9344 H      1 <0>       0.0600
@<TRIPOS>BOND
   1    1    2 1
   2    1   33 1
   3    1   34 1
   4    1   35 1
   5    2    3 1
   6    2    4 1
   7    2    5 1
   8    4   36 1
   9    5    6 1
  10    5   31 1
  11    5    7 1
  12    7    8 2
  13    7    9 am
  14    9   31 1
  15    9   10 1
  16   10   11 1
  17   10   14 2
  18   11   12 ar
  19   11   13 ar
  20   14   15 1
  21   14   28 1
  22   15   16 1
  23   16   17 1
  24   16   21 1
  25   16   18 1
  26   18   19 1
  27   18   37 1
  28   18   38 1
  29   19   20 1
  30   19   39 1
  31   19   40 1
  32   20   21 1
  33   21   22 1
  34   21   23 1
  35   23   24 1
  36   23   41 1
  37   23   42 1
  38   24   25 1
  39   24   26 1
  40   24   27 1
  41   28   29 1
  42   28   30 1
  43   28   31 1
  44   30   43 1
  45   30   44 1
  46   30   45 1
  47   31   32 1
