@<TRIPOS>MOLECULE
ZINC000024809155
56    60    1     0     0
SMALL
USER_CHARGES
@<TRIPOS>ATOM
1      C1      2.4973   -0.8053    0.7918 C.3      1 ZINC000024809155    0.0700
2      N2      1.1109   -0.8488    0.3206 N.pl3    1 ZINC000024809155   -0.4500
3      C3      0.7036   -0.9931   -0.9589 C.2      1 ZINC000024809155    0.1900
4      N4     -0.6011   -0.9861   -0.9859 N.2      1 ZINC000024809155   -0.4900
5      C5     -1.0687   -0.8385    0.2625 C.2      1 ZINC000024809155    0.0000
6      C6     -0.0137   -0.7568    1.0955 C.2      1 ZINC000024809155   -0.0100
7      C7     -0.0618   -0.5866    2.5921 C.3      1 ZINC000024809155    0.2900
8      N8      0.5401    0.7025    2.9580 N.3      1 ZINC000024809155   -0.8300
9      C9     -1.4953   -0.6213    3.0558 C.ar     1 ZINC000024809155   -0.0700
10     C10    -2.1917   -1.8155    3.0591 C.ar     1 ZINC000024809155   -0.0900
11     C11    -3.5064   -1.8479    3.4842 C.ar     1 ZINC000024809155   -0.1100
12     C12    -4.1256   -0.6850    3.9065 C.ar     1 ZINC000024809155   -0.0300
13     Cl13   -5.7767   -0.7250    4.4411 Cl       1 ZINC000024809155   -0.0700
14     C14    -3.4281    0.5099    3.9029 C.ar     1 ZINC000024809155   -0.1100
15     C15    -2.1117    0.5401    3.4829 C.ar     1 ZINC000024809155   -0.0800
16     C16     0.7060   -1.7042    3.2497 C.ar     1 ZINC000024809155   -0.1500
17     C17     0.6847   -2.9756    2.6942 C.ar     1 ZINC000024809155   -0.0500
18     C18     1.3805   -4.0108    3.2809 C.ar     1 ZINC000024809155   -0.1600
19     C19     2.1126   -3.7837    4.4412 C.ar     1 ZINC000024809155    0.1900
20     C20     2.1344   -2.4955    5.0044 C.ar     1 ZINC000024809155   -0.1100
21     C21     1.4290   -1.4562    4.3952 C.ar     1 ZINC000024809155   -0.0500
22     C22     2.9133   -2.2692    6.2326 C.2      1 ZINC000024809155    0.0500
23     C23     2.9657   -0.9310    6.8620 C.ar     1 ZINC000024809155   -0.0500
24     C24     1.8102   -0.3649    7.4017 C.ar     1 ZINC000024809155   -0.0900
25     C25     1.8651    0.8831    7.9878 C.ar     1 ZINC000024809155   -0.1000
26     C26     3.0625    1.5735    8.0414 C.ar     1 ZINC000024809155   -0.1000
27     C27     4.2134    1.0178    7.5078 C.ar     1 ZINC000024809155   -0.0300
28     Cl28    5.7115    1.8919    7.5797 Cl       1 ZINC000024809155   -0.0600
29     C29     4.1723   -0.2324    6.9234 C.ar     1 ZINC000024809155   -0.0900
30     C30     3.5879   -3.3288    6.7783 C.2      1 ZINC000024809155   -0.1900
31     C31     3.5269   -4.5939    6.1666 C.2      1 ZINC000024809155    0.5300
32     O32     4.1344   -5.5246    6.6678 O.2      1 ZINC000024809155   -0.5300
33     N33     2.8171   -4.8051    5.0453 N.am     1 ZINC000024809155   -0.5200
34     C34     2.7910   -6.1447    4.4528 C.3      1 ZINC000024809155    0.0600
35     H35     2.8047   -1.8018    1.1089 H        1 ZINC000024809155    0.0800
36     H36     3.1452   -0.4651   -0.0160 H        1 ZINC000024809155    0.0900
37     H37     2.5736   -0.1166    1.6332 H        1 ZINC000024809155    0.0800
38     H38     1.3504   -1.0966   -1.8175 H        1 ZINC000024809155    0.2100
39     H39    -2.1089   -0.7967    0.5498 H        1 ZINC000024809155    0.1700
40     H40     0.4202    0.8913    3.9419 H        1 ZINC000024809155    0.3500
41     H41     1.5151    0.7324    2.7003 H        1 ZINC000024809155    0.3400
42     H42    -1.7084   -2.7232    2.7292 H        1 ZINC000024809155    0.1300
43     H43    -4.0505   -2.7809    3.4865 H        1 ZINC000024809155    0.1300
44     H44    -3.9110    1.4181    4.2321 H        1 ZINC000024809155    0.1400
45     H45    -1.5670    1.4727    3.4804 H        1 ZINC000024809155    0.1500
46     H46     0.1170   -3.1559    1.7933 H        1 ZINC000024809155    0.1300
47     H47     1.3569   -4.9966    2.8404 H        1 ZINC000024809155    0.1400
48     H48     1.4435   -0.4653    4.8244 H        1 ZINC000024809155    0.1300
49     H49     0.8743   -0.9024    7.3604 H        1 ZINC000024809155    0.1300
50     H50     0.9710    1.3220    8.4054 H        1 ZINC000024809155    0.1400
51     H51     3.1000    2.5501    8.5009 H        1 ZINC000024809155    0.1400
52     H52     5.0701   -0.6652    6.5075 H        1 ZINC000024809155    0.1400
53     H53     4.1677   -3.1928    7.6792 H        1 ZINC000024809155    0.1600
54     H54     3.3972   -6.8206    5.0559 H        1 ZINC000024809155    0.1000
55     H55     1.7638   -6.5081    4.4213 H        1 ZINC000024809155    0.0800
56     H56     3.1925   -6.1021    3.4403 H        1 ZINC000024809155    0.0800
@<TRIPOS>BOND
1     1     2     1
2     1     35    1
3     1     36    1
4     1     37    1
5     2     6     1
6     2     3     1
7     3     4     2
8     3     38    1
9     4     5     1
10    5     6     2
11    5     39    1
12    6     7     1
13    7     8     1
14    7     9     1
15    7     16    1
16    8     40    1
17    8     41    1
18    9     15    ar
19    9     10    ar
20    10    11    ar
21    10    42    1
22    11    12    ar
23    11    43    1
24    12    13    1
25    12    14    ar
26    14    15    ar
27    14    44    1
28    15    45    1
29    16    21    ar
30    16    17    ar
31    17    18    ar
32    17    46    1
33    18    19    ar
34    18    47    1
35    19    33    1
36    19    20    ar
37    20    21    ar
38    20    22    1
39    21    48    1
40    22    23    1
41    22    30    2
42    23    29    ar
43    23    24    ar
44    24    25    ar
45    24    49    1
46    25    26    ar
47    25    50    1
48    26    27    ar
49    26    51    1
50    27    28    1
51    27    29    ar
52    29    52    1
53    30    31    1
54    30    53    1
55    31    32    2
56    31    33    am
57    33    34    1
58    34    54    1
59    34    55    1
60    34    56    1
@<TRIPOS>SUBSTRUCTURE
1   ZINC000024809155 1     RESIDUE    1   A     ZIN   1
