@<TRIPOS>MOLECULE
ZINC000034630885
47    49    1     0     0
SMALL
USER_CHARGES
@<TRIPOS>ATOM
1      C1     -0.0184    1.5028    0.0103 C.3      1 ZINC000034630885   -0.0700
2      C2      0.0021   -0.0041    0.0020 C.2      1 ZINC000034630885    0.0400
3      N3      0.0086   -0.7902   -1.0511 N.2      1 ZINC000034630885   -0.2900
4      N4      0.0267   -2.0130   -0.6533 N.pl3    1 ZINC000034630885   -0.1100
5      C5      0.0389   -3.1272   -1.5043 C.ar     1 ZINC000034630885    0.1800
6      C6      0.0531   -4.4092   -0.9716 C.ar     1 ZINC000034630885   -0.1100
7      C7      0.0646   -5.5048   -1.8125 C.ar     1 ZINC000034630885   -0.0500
8      C8      0.0624   -5.3258   -3.1837 C.ar     1 ZINC000034630885   -0.1800
9      C9      0.0754   -6.5234   -4.0984 C.3      1 ZINC000034630885    0.5100
10     F10    -1.2394   -6.9085   -4.3813 F        1 ZINC000034630885   -0.1700
11     F11     0.7312   -6.1934   -5.2894 F        1 ZINC000034630885   -0.1700
12     F12     0.7467   -7.5800   -3.4738 F        1 ZINC000034630885   -0.1700
13     C13     0.0478   -4.0502   -3.7172 C.ar     1 ZINC000034630885   -0.0500
14     C14     0.0310   -2.9507   -2.8814 C.ar     1 ZINC000034630885   -0.1100
15     N15     0.0327   -2.0749    0.6312 N.2      1 ZINC000034630885   -0.2600
16     C16     0.0241   -0.8520    1.1125 C.2      1 ZINC000034630885    0.0300
17     C17     0.0268   -0.4474    2.5641 C.3      1 ZINC000034630885   -0.0200
18     S18     1.7380   -0.2710    3.1396 S.3      1 ZINC000034630885   -0.1000
19     C19     1.5424    0.1974    4.8269 C.ar     1 ZINC000034630885   -0.1400
20     C20     0.2703    0.3304    5.3683 C.ar     1 ZINC000034630885   -0.0900
21     C21     0.1182    0.6971    6.6912 C.ar     1 ZINC000034630885   -0.2000
22     C22     1.2351    0.9331    7.4787 C.ar     1 ZINC000034630885    0.1400
23     O23     1.0842    1.2942    8.7812 O.3      1 ZINC000034630885   -0.2700
24     C24    -0.2530    1.4114    9.2712 C.3      1 ZINC000034630885   -0.0100
25     C25    -0.2226    1.8166   10.7224 C.2      1 ZINC000034630885    0.5000
26     O26     0.8453    1.9891   11.2849 O.co2    1 ZINC000034630885   -0.6700
27     O27    -1.2659    1.9719   11.3339 O.co2    1 ZINC000034630885   -0.6900
28     C28     2.5063    0.8006    6.9390 C.ar     1 ZINC000034630885   -0.1100
29     C29     3.7190    1.0569    7.7961 C.3      1 ZINC000034630885   -0.1100
30     C30     2.6608    0.4285    5.6184 C.ar     1 ZINC000034630885   -0.0600
31     H31     1.0042    1.8801    0.0026 H        1 ZINC000034630885    0.0900
32     H32    -0.5455    1.8639   -0.8728 H        1 ZINC000034630885    0.0800
33     H33    -0.5286    1.8543    0.9071 H        1 ZINC000034630885    0.0900
34     H34     0.0555   -4.5496    0.0992 H        1 ZINC000034630885    0.1600
35     H35     0.0756   -6.5024   -1.3987 H        1 ZINC000034630885    0.1500
36     H36     0.0458   -3.9135   -4.7885 H        1 ZINC000034630885    0.1500
37     H37     0.0192   -1.9546   -3.2987 H        1 ZINC000034630885    0.1600
38     H38    -0.4945    0.5032    2.6773 H        1 ZINC000034630885    0.1100
39     H39    -0.4784   -1.2114    3.1552 H        1 ZINC000034630885    0.1100
40     H40    -0.5997    0.1474    4.7551 H        1 ZINC000034630885    0.1200
41     H41    -0.8709    0.8006    7.1124 H        1 ZINC000034630885    0.1300
42     H42    -0.7865    2.1667    8.6942 H        1 ZINC000034630885    0.0600
43     H43    -0.7615    0.4523    9.1723 H        1 ZINC000034630885    0.0600
44     H44     4.0255    0.1289    8.2788 H        1 ZINC000034630885    0.0700
45     H45     4.5326    1.4281    7.1729 H        1 ZINC000034630885    0.0600
46     H46     3.4762    1.7990    8.5566 H        1 ZINC000034630885    0.0800
47     H47     3.6504    0.3254    5.1984 H        1 ZINC000034630885    0.1300
@<TRIPOS>BOND
1     1     2     1
2     1     31    1
3     1     32    1
4     1     33    1
5     2     16    1
6     2     3     2
7     3     4     1
8     4     5     1
9     4     15    1
10    5     14    ar
11    5     6     ar
12    6     7     ar
13    6     34    1
14    7     8     ar
15    7     35    1
16    8     9     1
17    8     13    ar
18    9     10    1
19    9     11    1
20    9     12    1
21    13    14    ar
22    13    36    1
23    14    37    1
24    15    16    2
25    16    17    1
26    17    18    1
27    17    38    1
28    17    39    1
29    18    19    1
30    19    30    ar
31    19    20    ar
32    20    21    ar
33    20    40    1
34    21    22    ar
35    21    41    1
36    22    23    1
37    22    28    ar
38    23    24    1
39    24    25    1
40    24    42    1
41    24    43    1
42    25    26    ar
43    25    27    ar
44    28    29    1
45    28    30    ar
46    29    44    1
47    29    45    1
48    29    46    1
49    30    47    1
@<TRIPOS>SUBSTRUCTURE
1   ZINC000034630885 1     RESIDUE    1   A     ZIN   1
