@<TRIPOS>MOLECULE
ZINC000000596006
52    56    1     0     0
SMALL
USER_CHARGES
@<TRIPOS>ATOM
1      C1     -0.0184    1.5028    0.0103 C.3      1 ZINC000000596006   -0.0800
2      C2      0.0021   -0.0041    0.0020 C.2      1 ZINC000000596006   -0.0200
3      C3     -1.0592   -0.7947    0.0026 C.2      1 ZINC000000596006   -0.0300
4      C4     -2.4972   -0.3439    0.0116 C.3      1 ZINC000000596006    0.1400
5      N5     -3.1453   -0.7491   -1.2429 N.3      1 ZINC000000596006   -0.5400
6      C6     -2.2981   -0.4296   -2.4004 C.3      1 ZINC000000596006    0.0600
7      C7     -2.9713   -0.9378   -3.6776 C.3      1 ZINC000000596006    0.0600
8      N8     -4.2961   -0.3160   -3.8106 N.3      1 ZINC000000596006   -0.5000
9      C9     -4.9107   -0.7002   -5.0002 C.ar     1 ZINC000000596006    0.1100
10     C10    -5.1717   -2.0412   -5.2386 C.ar     1 ZINC000000596006   -0.1600
11     C11    -5.7850   -2.4190   -6.4258 C.ar     1 ZINC000000596006    0.2000
12     C12    -6.1318   -1.4432   -7.3673 C.ar     1 ZINC000000596006   -0.1400
13     C13    -5.8628   -0.0945   -7.1164 C.ar     1 ZINC000000596006   -0.0600
14     C14    -5.2650    0.2685   -5.9422 C.ar     1 ZINC000000596006    0.1100
15     F15    -5.0037    1.5710   -5.6966 F        1 ZINC000000596006   -0.1200
16     C16    -6.7809   -1.8682   -8.6183 C.2      1 ZINC000000596006    0.4400
17     O17    -7.1016   -1.0559   -9.4695 O.2      1 ZINC000000596006   -0.4500
18     C18    -7.0199   -3.2525   -8.8002 C.2      1 ZINC000000596006   -0.3000
19     C19    -7.6620   -3.7256  -10.0267 C.2      1 ZINC000000596006    0.5500
20     O20    -7.8685   -4.9139  -10.1857 O.2      1 ZINC000000596006   -0.5400
21     O21    -8.0249   -2.8443  -10.9813 O.3      1 ZINC000000596006   -0.4900
22     C22    -6.6396   -4.1809   -7.7999 C.2      1 ZINC000000596006    0.2500
23     S23    -6.6494   -5.9045   -7.4275 S.3      1 ZINC000000596006    0.0900
24     C24    -5.8855   -5.0831   -6.0283 C.3      1 ZINC000000596006    0.1100
25     H25    -4.8407   -5.3617   -5.8907 H        1 ZINC000000596006    0.1500
26     C26    -6.6985   -5.2205   -4.7395 C.3      1 ZINC000000596006   -0.1600
27     N27    -6.0476   -3.7753   -6.6640 N.pl3    1 ZINC000000596006   -0.5000
28     C28    -5.1433   -0.6355   -2.6531 C.3      1 ZINC000000596006    0.0600
29     C29    -4.4702   -0.1273   -1.3759 C.3      1 ZINC000000596006    0.0600
30     O30    -0.6291   -2.0801   -0.0072 O.3      1 ZINC000000596006   -0.2300
31     C31     0.7135   -2.0667   -0.0138 C.2      1 ZINC000000596006    0.5700
32     O32     1.4398   -3.0416   -0.0232 O.2      1 ZINC000000596006   -0.4200
33     O33     1.1106   -0.7840   -0.0132 O.3      1 ZINC000000596006   -0.2400
34     H34     1.0042    1.8801    0.0026 H        1 ZINC000000596006    0.0900
35     H35    -0.5455    1.8639   -0.8728 H        1 ZINC000000596006    0.0900
36     H36    -0.5286    1.8543    0.9071 H        1 ZINC000000596006    0.1000
37     H37    -3.0164   -0.8022    0.8533 H        1 ZINC000000596006    0.1100
38     H38    -2.5372    0.7412    0.1073 H        1 ZINC000000596006    0.0800
39     H39    -2.1632    0.6501   -2.4653 H        1 ZINC000000596006    0.0500
40     H40    -1.3273   -0.9115   -2.2846 H        1 ZINC000000596006    0.0800
41     H41    -2.3585   -0.6763   -4.5403 H        1 ZINC000000596006    0.0900
42     H42    -3.0815   -2.0209   -3.6243 H        1 ZINC000000596006    0.0500
43     H43    -4.8996   -2.7866   -4.5060 H        1 ZINC000000596006    0.1400
44     H44    -6.1312    0.6571   -7.8440 H        1 ZINC000000596006    0.1700
45     H45    -8.4458   -3.2042  -11.7740 H        1 ZINC000000596006    0.4100
46     H46    -6.5200   -6.2020   -4.3002 H        1 ZINC000000596006    0.1000
47     H47    -6.3954   -4.4464   -4.0345 H        1 ZINC000000596006    0.0900
48     H48    -7.7591   -5.1111   -4.9655 H        1 ZINC000000596006    0.0900
49     H49    -6.1141   -0.1536   -2.7689 H        1 ZINC000000596006    0.0900
50     H50    -5.2783   -1.7151   -2.5881 H        1 ZINC000000596006    0.0500
51     H51    -5.0829   -0.3888   -0.5132 H        1 ZINC000000596006    0.0900
52     H52    -4.3599    0.9558   -1.4292 H        1 ZINC000000596006    0.0500
@<TRIPOS>BOND
1     1     2     1
2     1     34    1
3     1     35    1
4     1     36    1
5     2     33    1
6     2     3     2
7     3     4     1
8     3     30    1
9     4     5     1
10    4     37    1
11    4     38    1
12    5     29    1
13    5     6     1
14    6     7     1
15    6     39    1
16    6     40    1
17    7     8     1
18    7     41    1
19    7     42    1
20    8     9     1
21    8     28    1
22    9     14    ar
23    9     10    ar
24    10    11    ar
25    10    43    1
26    11    27    1
27    11    12    ar
28    12    13    ar
29    12    16    1
30    13    14    ar
31    13    44    1
32    14    15    1
33    16    17    2
34    16    18    1
35    18    19    1
36    18    22    2
37    19    20    2
38    19    21    1
39    21    45    1
40    22    27    1
41    22    23    1
42    23    24    1
43    24    25    1
44    24    26    1
45    24    27    1
46    26    46    1
47    26    47    1
48    26    48    1
49    28    29    1
50    28    49    1
51    28    50    1
52    29    51    1
53    29    52    1
54    30    31    1
55    31    32    2
56    31    33    1
@<TRIPOS>SUBSTRUCTURE
1   ZINC000000596006 1     RESIDUE    1   A     ZIN   1
