@<TRIPOS>MOLECULE
ZINC000257868411
50    53    1     0     0
SMALL
USER_CHARGES
@<TRIPOS>ATOM
1      C1      0.8393   -0.3519    1.2345 C.3      1 ZINC000257868411   -0.1900
2      C2      0.0021   -0.0041    0.0020 C.3      1 ZINC000257868411   -0.0200
3      N3      0.6897   -0.4778   -1.2066 N.4      1 ZINC000257868411   -0.2800
4      C4      2.0039    0.1651   -1.3391 C.3      1 ZINC000257868411   -0.0600
5      C5     -0.1425   -0.2294   -2.4139 C.3      1 ZINC000257868411    0.0500
6      H6     -0.0978    0.8101   -2.7389 H        1 ZINC000257868411    0.1600
7      C7     -1.5762   -0.6697   -2.0774 C.3      1 ZINC000257868411   -0.1400
8      C8     -1.5835   -2.1791   -1.8192 C.3      1 ZINC000257868411    0.0700
9      H9     -2.5728   -2.4838   -1.4779 H        1 ZINC000257868411    0.1200
10     O10    -1.2592   -2.8809   -3.0482 O.3      1 ZINC000257868411   -0.3300
11     C11    -1.7907   -4.1028   -3.2106 C.2      1 ZINC000257868411    0.4600
12     O12    -2.5032   -4.5704   -2.3542 O.2      1 ZINC000257868411   -0.4800
13     C13    -1.4986   -4.8913   -4.4612 C.3      1 ZINC000257868411   -0.0300
14     H14    -0.4246   -5.0583   -4.5429 H        1 ZINC000257868411    0.1200
15     C15    -1.9877   -4.1102   -5.6825 C.3      1 ZINC000257868411    0.0900
16     O16    -1.2317   -2.9044   -5.8108 O.3      1 ZINC000257868411   -0.5700
17     C17    -2.2098   -6.2184   -4.3959 C.ar     1 ZINC000257868411   -0.1000
18     C18    -3.5878   -6.2598   -4.2948 C.ar     1 ZINC000257868411   -0.0900
19     C19    -4.2402   -7.4770   -4.2348 C.ar     1 ZINC000257868411   -0.1200
20     C20    -3.5146   -8.6529   -4.2764 C.ar     1 ZINC000257868411   -0.1000
21     C21    -2.1366   -8.6115   -4.3785 C.ar     1 ZINC000257868411   -0.1200
22     C22    -1.4846   -7.3942   -4.4427 C.ar     1 ZINC000257868411   -0.1000
23     C23    -0.5459   -2.5252   -0.7473 C.3      1 ZINC000257868411   -0.1600
24     C24     0.8309   -1.9581   -1.1825 C.3      1 ZINC000257868411    0.0400
25     H25     1.6366   -2.2876   -0.5265 H        1 ZINC000257868411    0.1600
26     C26     1.0687   -2.3708   -2.6534 C.3      1 ZINC000257868411    0.0000
27     H27     0.9621   -3.4241   -2.9125 H        1 ZINC000257868411    0.1800
28     O28     1.8689   -1.5123   -3.4687 O.3      1 ZINC000257868411   -0.3100
29     C29     0.4282   -1.1986   -3.4746 C.3      1 ZINC000257868411   -0.0100
30     H30    -0.1601   -1.3576   -4.3783 H        1 ZINC000257868411    0.2000
31     H31     0.9708   -1.4324    1.2913 H        1 ZINC000257868411    0.0800
32     H32     1.8144    0.1294    1.1590 H        1 ZINC000257868411    0.0800
33     H33     0.3291   -0.0003    2.1313 H        1 ZINC000257868411    0.1100
34     H34    -0.9730   -0.4853    0.0775 H        1 ZINC000257868411    0.1400
35     H35    -0.1295    1.0765   -0.0548 H        1 ZINC000257868411    0.1300
36     H36     2.6198   -0.0857   -0.4755 H        1 ZINC000257868411    0.1200
37     H37     2.4912   -0.1883   -2.2478 H        1 ZINC000257868411    0.1400
38     H38     1.8757    1.2462   -1.3925 H        1 ZINC000257868411    0.1200
39     H39    -1.9195   -0.1451   -1.1857 H        1 ZINC000257868411    0.1200
40     H40    -2.2349   -0.4394   -2.9148 H        1 ZINC000257868411    0.1300
41     H41    -1.8576   -4.7176   -6.5782 H        1 ZINC000257868411    0.0700
42     H42    -3.0428   -3.8661   -5.5591 H        1 ZINC000257868411    0.0600
43     H43    -1.4883   -2.3577   -6.5660 H        1 ZINC000257868411    0.3900
44     H44    -4.1548   -5.3411   -4.2622 H        1 ZINC000257868411    0.1200
45     H45    -5.3168   -7.5094   -4.1551 H        1 ZINC000257868411    0.1300
46     H46    -4.0242   -9.6039   -4.2289 H        1 ZINC000257868411    0.1300
47     H47    -1.5697   -9.5301   -4.4106 H        1 ZINC000257868411    0.1300
48     H48    -0.4080   -7.3619   -4.5224 H        1 ZINC000257868411    0.1200
49     H49    -0.8429   -2.0840    0.2042 H        1 ZINC000257868411    0.1200
50     H50    -0.4755   -3.6079   -0.6435 H        1 ZINC000257868411    0.1200
@<TRIPOS>BOND
1     1     2     1
2     1     31    1
3     1     32    1
4     1     33    1
5     2     3     1
6     2     34    1
7     2     35    1
8     3     24    1
9     3     4     1
10    3     5     1
11    4     36    1
12    4     37    1
13    4     38    1
14    5     6     1
15    5     29    1
16    5     7     1
17    7     8     1
18    7     39    1
19    7     40    1
20    8     9     1
21    8     10    1
22    8     23    1
23    10    11    1
24    11    12    2
25    11    13    1
26    13    14    1
27    13    15    1
28    13    17    1
29    15    16    1
30    15    41    1
31    15    42    1
32    16    43    1
33    17    22    ar
34    17    18    ar
35    18    19    ar
36    18    44    1
37    19    20    ar
38    19    45    1
39    20    21    ar
40    20    46    1
41    21    22    ar
42    21    47    1
43    22    48    1
44    23    24    1
45    23    49    1
46    23    50    1
47    24    25    1
48    24    26    1
49    26    27    1
50    26    29    1
51    26    28    1
52    28    29    1
53    29    30    1
@<TRIPOS>SUBSTRUCTURE
1   ZINC000257868411 1     RESIDUE    1   A     ZIN   1
