@<TRIPOS>MOLECULE
ZINC000034642570
51    53    1     0     0
SMALL
USER_CHARGES
@<TRIPOS>ATOM
1      C1     -0.0187    1.5258    0.0104 C.3      1 ZINC000034642570   -0.1700
2      C2      0.0021   -0.0041    0.0020 C.3      1 ZINC000034642570    0.1400
3      C3     -1.4333   -0.5336    0.0129 C.3      1 ZINC000034642570   -0.1600
4      N4      0.6878   -0.4765   -1.2033 N.pl3    1 ZINC000034642570   -0.7200
5      C5      2.0741   -0.5905   -1.2153 C.ar     1 ZINC000034642570    0.4100
6      C6      2.7999   -0.2599   -0.0791 C.ar     1 ZINC000034642570   -0.2300
7      C7      4.1895   -0.3794   -0.1064 C.ar     1 ZINC000034642570    0.0900
8      C8      5.0064   -0.0380    1.0840 C.2      1 ZINC000034642570   -0.1600
9      C9      4.9230    1.1176    1.8272 C.2      1 ZINC000034642570    0.0600
10     N10     5.8284    1.0498    2.8234 N.pl3    1 ZINC000034642570   -0.5300
11     C11     6.5045   -0.1462    2.7353 C.2      1 ZINC000034642570   -0.0600
12     C12     7.5702   -0.6007    3.6357 C.2      1 ZINC000034642570    0.5900
13     O13     8.0966   -1.6834    3.4577 O.2      1 ZINC000034642570   -0.5200
14     N14     7.9662    0.1809    4.6598 N.am     1 ZINC000034642570   -0.7200
15     C15     9.0302   -0.2729    5.5587 C.3      1 ZINC000034642570    0.1900
16     H16     9.7639   -0.8468    4.9927 H        1 ZINC000034642570    0.1100
17     C17     8.4296   -1.1542    6.6558 C.3      1 ZINC000034642570    0.0700
18     O18     7.5549   -0.3711    7.4704 O.3      1 ZINC000034642570   -0.5700
19     C19     9.7018    0.9217    6.1855 C.ar     1 ZINC000034642570   -0.0800
20     C20     8.9451    2.0020    6.5987 C.ar     1 ZINC000034642570   -0.0900
21     C21     9.5605    3.0982    7.1742 C.ar     1 ZINC000034642570   -0.1100
22     C22    10.9328    3.1145    7.3363 C.ar     1 ZINC000034642570   -0.1100
23     C23    11.6909    2.0333    6.9229 C.ar     1 ZINC000034642570   -0.0300
24     Cl24   13.4148    2.0528    7.1267 Cl       1 ZINC000034642570   -0.0600
25     C25    11.0740    0.9344    6.3523 C.ar     1 ZINC000034642570   -0.1000
26     C26     6.0077   -0.8389    1.6679 C.2      1 ZINC000034642570   -0.0600
27     C27     4.7932   -0.8305   -1.2867 C.ar     1 ZINC000034642570   -0.1400
28     Cl28    6.5182   -1.0004   -1.3822 Cl       1 ZINC000034642570   -0.0600
29     C29     4.0002   -1.1383   -2.3720 C.ar     1 ZINC000034642570    0.1700
30     N30     2.6868   -1.0185   -2.3092 N.ar     1 ZINC000034642570   -0.5400
31     H31     1.0039    1.9031    0.0027 H        1 ZINC000034642570    0.0600
32     H32    -0.5459    1.8868   -0.8726 H        1 ZINC000034642570    0.0600
33     H33    -0.5289    1.8773    0.9072 H        1 ZINC000034642570    0.0700
34     H34     0.5293   -0.3651    0.8851 H        1 ZINC000034642570    0.0800
35     H35    -1.9605   -0.1726   -0.8702 H        1 ZINC000034642570    0.0600
36     H36    -1.4185   -1.6235    0.0069 H        1 ZINC000034642570    0.0600
37     H37    -1.9435   -0.1821    0.9097 H        1 ZINC000034642570    0.0800
38     H38     0.1751   -0.7099   -1.9930 H        1 ZINC000034642570    0.4100
39     H39     2.2966    0.0848    0.8121 H        1 ZINC000034642570    0.1400
40     H40     4.2471    1.9396    1.6430 H        1 ZINC000034642570    0.1800
41     H41     5.9796    1.7338    3.4943 H        1 ZINC000034642570    0.4200
42     H42     7.5466    1.0439    4.8017 H        1 ZINC000034642570    0.4000
43     H43     7.8684   -1.9700    6.2000 H        1 ZINC000034642570    0.0600
44     H44     9.2302   -1.5638    7.2718 H        1 ZINC000034642570    0.0600
45     H45     7.1376   -0.8664    8.1884 H        1 ZINC000034642570    0.3800
46     H46     7.8726    1.9900    6.4716 H        1 ZINC000034642570    0.1300
47     H47     8.9687    3.9420    7.4969 H        1 ZINC000034642570    0.1300
48     H48    11.4135    3.9711    7.7852 H        1 ZINC000034642570    0.1300
49     H49    11.6652    0.0903    6.0294 H        1 ZINC000034642570    0.1400
50     H50     6.3269   -1.8141    1.3311 H        1 ZINC000034642570    0.1500
51     H51     4.4598   -1.4867   -3.2851 H        1 ZINC000034642570    0.1600
@<TRIPOS>BOND
1     1     2     1
2     1     31    1
3     1     32    1
4     1     33    1
5     2     3     1
6     2     4     1
7     2     34    1
8     3     35    1
9     3     36    1
10    3     37    1
11    4     5     1
12    4     38    1
13    5     30    ar
14    5     6     ar
15    6     7     ar
16    6     39    1
17    7     8     1
18    7     27    ar
19    8     26    1
20    8     9     2
21    9     10    1
22    9     40    1
23    10    11    1
24    10    41    1
25    11    12    1
26    11    26    2
27    12    13    2
28    12    14    am
29    14    15    1
30    14    42    1
31    15    16    1
32    15    17    1
33    15    19    1
34    17    18    1
35    17    43    1
36    17    44    1
37    18    45    1
38    19    25    ar
39    19    20    ar
40    20    21    ar
41    20    46    1
42    21    22    ar
43    21    47    1
44    22    23    ar
45    22    48    1
46    23    24    1
47    23    25    ar
48    25    49    1
49    26    50    1
50    27    28    1
51    27    29    ar
52    29    30    ar
53    29    51    1
@<TRIPOS>SUBSTRUCTURE
1   ZINC000034642570 1     RESIDUE    1   A     ZIN   1
