@<TRIPOS>MOLECULE
ZINC000095092799
60    64    1     0     0
SMALL
USER_CHARGES
@<TRIPOS>ATOM
1      C1      1.5920    2.5983    0.8068 C.3      1 ZINC000095092799   -0.0800
2      C2      2.5127    2.8272    1.9778 C.2      1 ZINC000095092799    0.1900
3      N3      3.4990    3.6880    2.0411 N.2      1 ZINC000095092799   -0.2700
4      N4      4.0450    3.5828    3.2034 N.2      1 ZINC000095092799   -0.0400
5      N5      3.4326    2.6771    3.8830 N.2      1 ZINC000095092799   -0.0900
6      N6      2.4780    2.1915    3.1636 N.pl3    1 ZINC000095092799   -0.1300
7      N7      1.5796    1.1854    3.5425 N.pl3    1 ZINC000095092799   -0.4600
8      C8      1.6682    0.6313    4.7603 C.2      1 ZINC000095092799    0.2400
9      C9      0.7706   -0.3739    5.1388 C.2      1 ZINC000095092799   -0.2100
10     C10    -0.2252   -0.8093    4.2368 C.2      1 ZINC000095092799   -0.0400
11     C11    -1.0942   -1.7838    4.6060 C.2      1 ZINC000095092799   -0.2200
12     C12    -1.0038   -2.3608    5.8871 C.2      1 ZINC000095092799    0.4000
13     O13    -1.7888   -3.2399    6.2181 O.2      1 ZINC000095092799   -0.4800
14     C14    -0.0117   -1.9288    6.7878 C.2      1 ZINC000095092799   -0.2000
15     C15     0.0826   -2.5489    8.1581 C.3      1 ZINC000095092799    0.0600
16     C16     1.4171   -2.2115    8.7714 C.ar     1 ZINC000095092799   -0.0700
17     C17     1.6307   -0.9571    9.3125 C.ar     1 ZINC000095092799   -0.1000
18     C18     2.8532   -0.6454    9.8753 C.ar     1 ZINC000095092799   -0.1500
19     C19     3.8669   -1.5922    9.8977 C.ar     1 ZINC000095092799    0.1000
20     O20     5.0702   -1.2881   10.4511 O.3      1 ZINC000095092799   -0.5000
21     C21     3.6499   -2.8502    9.3545 C.ar     1 ZINC000095092799   -0.1400
22     C22     2.4241   -3.1586    8.7972 C.ar     1 ZINC000095092799   -0.0900
23     C23    -1.0218   -2.0099    9.0305 C.2      1 ZINC000095092799   -0.1700
24     C24    -1.6885   -0.8865    8.6635 C.2      1 ZINC000095092799   -0.0200
25     C25    -2.7234   -0.3819    9.4815 C.2      1 ZINC000095092799   -0.1900
26     C26    -3.4129    0.7765    9.1049 C.2      1 ZINC000095092799    0.2300
27     N27    -4.3953    1.2546    9.8823 N.pl3    1 ZINC000095092799   -0.4600
28     N28    -5.0854    2.4141    9.5053 N.pl3    1 ZINC000095092799   -0.1200
29     N29    -4.8838    3.1137    8.4402 N.2      1 ZINC000095092799   -0.0900
30     N30    -5.7061    4.1043    8.4325 N.2      1 ZINC000095092799   -0.0400
31     N31    -6.4443    4.0558    9.4873 N.2      1 ZINC000095092799   -0.2700
32     C32    -6.0873    3.0041   10.1833 C.2      1 ZINC000095092799    0.1900
33     C33    -6.6778    2.5491   11.4931 C.3      1 ZINC000095092799   -0.0800
34     C34    -3.0618   -1.0484   10.6799 C.2      1 ZINC000095092799   -0.0400
35     C35    -2.3922   -2.1715   11.0427 C.2      1 ZINC000095092799   -0.2200
36     C36    -1.3648   -2.6757   10.2226 C.2      1 ZINC000095092799    0.4000
37     O37    -0.7620   -3.6891   10.5518 O.2      1 ZINC000095092799   -0.4800
38     C38     0.8629   -0.9584    6.4213 C.2      1 ZINC000095092799   -0.0100
39     H39     0.7285    3.2582    0.8891 H        1 ZINC000095092799    0.1100
40     H40     2.1242    2.8101   -0.1206 H        1 ZINC000095092799    0.1200
41     H41     1.2576    1.5608    0.8050 H        1 ZINC000095092799    0.0900
42     H42     0.8935    0.8897    2.9238 H        1 ZINC000095092799    0.4500
43     H43     2.4321    0.9605    5.4491 H        1 ZINC000095092799    0.1800
44     H44    -0.2952   -0.3667    3.2541 H        1 ZINC000095092799    0.1100
45     H45    -1.8560   -2.1169    3.9168 H        1 ZINC000095092799    0.1400
46     H46    -0.0157   -3.6312    8.0747 H        1 ZINC000095092799    0.1100
47     H47     0.8412   -0.2204    9.2949 H        1 ZINC000095092799    0.1300
48     H48     3.0197    0.3348   10.2972 H        1 ZINC000095092799    0.1300
49     H49     5.1311   -1.4893   11.3950 H        1 ZINC000095092799    0.3900
50     H50     4.4376   -3.5890    9.3704 H        1 ZINC000095092799    0.1300
51     H51     2.2546   -4.1379    8.3745 H        1 ZINC000095092799    0.1300
52     H52    -1.4277   -0.3785    7.7468 H        1 ZINC000095092799    0.1300
53     H53    -3.1537    1.2852    8.1881 H        1 ZINC000095092799    0.1800
54     H54    -4.6281    0.7977   10.7056 H        1 ZINC000095092799    0.4500
55     H55    -7.5083    1.8700   11.3007 H        1 ZINC000095092799    0.1100
56     H56    -5.9145    2.0337   12.0761 H        1 ZINC000095092799    0.0900
57     H57    -7.0375    3.4145   12.0496 H        1 ZINC000095092799    0.1200
58     H58    -3.8526   -0.6642   11.3072 H        1 ZINC000095092799    0.1100
59     H59    -2.6504   -2.6812   11.9591 H        1 ZINC000095092799    0.1400
60     H60     1.6237   -0.6273    7.1126 H        1 ZINC000095092799    0.1400
@<TRIPOS>BOND
1     1     2     1
2     1     39    1
3     1     40    1
4     1     41    1
5     2     6     1
6     2     3     2
7     3     4     1
8     4     5     2
9     5     6     1
10    6     7     1
11    7     8     1
12    7     42    1
13    8     9     2
14    8     43    1
15    9     38    1
16    9     10    1
17    10    11    2
18    10    44    1
19    11    12    1
20    11    45    1
21    12    13    2
22    12    14    1
23    14    15    1
24    14    38    2
25    15    16    1
26    15    23    1
27    15    46    1
28    16    22    ar
29    16    17    ar
30    17    18    ar
31    17    47    1
32    18    19    ar
33    18    48    1
34    19    20    1
35    19    21    ar
36    20    49    1
37    21    22    ar
38    21    50    1
39    22    51    1
40    23    36    1
41    23    24    2
42    24    25    1
43    24    52    1
44    25    26    2
45    25    34    1
46    26    27    1
47    26    53    1
48    27    28    1
49    27    54    1
50    28    32    1
51    28    29    1
52    29    30    2
53    30    31    1
54    31    32    2
55    32    33    1
56    33    55    1
57    33    56    1
58    33    57    1
59    34    35    2
60    34    58    1
61    35    36    1
62    35    59    1
63    36    37    2
64    38    60    1
@<TRIPOS>SUBSTRUCTURE
1   ZINC000095092799 1     RESIDUE    1   A     ZIN   1
