@<TRIPOS>MOLECULE
ZINC000003870524
  38   38    0    0    0
SMALL
USER_CHARGES
NO_NAME
@<TRIPOS>ATOM
    1 C1       -0.4469     1.9375    -1.1672 C.3    1 <0>      -0.1500
    2 C2       -0.2641     0.4381    -0.9236 C.3    1 <0>       0.0800
    3 C3        0.6377     0.2255     0.2940 C.3    1 <0>      -0.1700
    4 O4       -1.5582    -0.1739    -0.6801 O.3    1 <0>      -0.3400
    5 C5       -1.7058    -1.4604    -1.0516 C.2    1 <0>       0.5100
    6 O6       -0.7789    -2.0547    -1.5648 O.2    1 <0>      -0.4800
    7 C7       -2.9944    -2.1482    -0.8349 C.ar   1 <0>      -0.1100
    8 C8       -4.0628    -1.4664    -0.2507 C.ar   1 <0>       0.0000
    9 C9       -5.2689    -2.1187    -0.0506 C.ar   1 <0>       0.1100
   10 N10      -6.3432    -1.4387     0.5350 N.am   1 <0>      -0.5900
   11 C11      -6.6128    -0.1680     0.1757 C.2    1 <0>       0.5000
   12 S12      -5.7332     0.5669    -1.0960 S.2    1 <0>      -0.5700
   13 O13      -7.5748     0.5241     0.8174 O.3    1 <0>      -0.3100
   14 C14      -7.8110     1.8875     0.3773 C.3    1 <0>       0.0800
   15 C15      -8.8698     1.8907    -0.7271 C.3    1 <0>      -0.1700
   16 C16      -8.3033     2.7265     1.5583 C.3    1 <0>      -0.1500
   17 C17      -5.4128    -3.4477    -0.4314 C.ar   1 <0>      -0.0700
   18 C18      -4.3557    -4.1247    -1.0096 C.ar   1 <0>      -0.1100
   19 C19      -3.1506    -3.4831    -1.2193 C.ar   1 <0>       0.0300
   20 Cl20     -1.8263    -4.3382    -1.9466 Cl     1 <0>      -0.0200
   21 H21       0.5245     2.3969    -1.3500 H      1 <0>       0.0800
   22 H22      -1.0894     2.0890    -2.0346 H      1 <0>       0.0700
   23 H23      -0.9060     2.3948    -0.2907 H      1 <0>       0.0700
   24 H24       0.1949    -0.0191    -1.8001 H      1 <0>       0.0900
   25 H25       0.7679    -0.8427     0.4676 H      1 <0>       0.0600
   26 H26       1.6091     0.6850     0.1112 H      1 <0>       0.0800
   27 H27       0.1786     0.6828     1.1705 H      1 <0>       0.0700
   28 H28      -3.9499    -0.4337     0.0448 H      1 <0>       0.1700
   29 H29      -6.8936    -1.8820     1.1994 H      1 <0>       0.4200
   30 H30      -6.8832     2.3109    -0.0075 H      1 <0>       0.1200
   31 H31      -8.5191     1.2929    -1.5684 H      1 <0>       0.0700
   32 H32      -9.7975     1.4672    -0.3423 H      1 <0>       0.0600
   33 H33      -9.0471     2.9142    -1.0575 H      1 <0>       0.0800
   34 H34      -7.5490     2.7242     2.3451 H      1 <0>       0.0700
   35 H35      -8.4806     3.7500     1.2279 H      1 <0>       0.0900
   36 H36      -9.2310     2.3030     1.9431 H      1 <0>       0.0700
   37 H37      -6.3541    -3.9533    -0.2745 H      1 <0>       0.1500
   38 H38      -4.4739    -5.1574    -1.3030 H      1 <0>       0.1500
@<TRIPOS>BOND
   1    1    2 1
   2    1   21 1
   3    1   22 1
   4    1   23 1
   5    2    3 1
   6    2    4 1
   7    2   24 1
   8    3   25 1
   9    3   26 1
  10    3   27 1
  11    4    5 1
  12    5    6 2
  13    5    7 1
  14    7   19 ar
  15    7    8 ar
  16    8    9 ar
  17    8   28 1
  18    9   10 1
  19    9   17 ar
  20   10   11 am
  21   10   29 1
  22   11   12 2
  23   11   13 1
  24   13   14 1
  25   14   15 1
  26   14   16 1
  27   14   30 1
  28   15   31 1
  29   15   32 1
  30   15   33 1
  31   16   34 1
  32   16   35 1
  33   16   36 1
  34   17   18 ar
  35   17   37 1
  36   18   19 ar
  37   18   38 1
  38   19   20 1
