@<TRIPOS>MOLECULE
ZINC000003187624
38    40    1     0     0
SMALL
USER_CHARGES
@<TRIPOS>ATOM
1      C1      0.9319   -0.1298   -1.2113 C.3      1 ZINC000003187624   -0.1500
2      C2      0.0209    0.0271    0.0078 C.3      1 ZINC000003187624   -0.1000
3      C3      0.6827   -0.6207    1.2257 C.3      1 ZINC000003187624   -0.1300
4      H4      1.6803   -0.2033    1.3621 H        1 ZINC000003187624    0.0700
5      C5     -0.1480   -0.3480    2.4532 C.2      1 ZINC000003187624    0.5000
6      O6     -0.0699   -1.0881    3.4189 O.co2    1 ZINC000003187624   -0.6900
7      O7     -0.8981    0.6128    2.4805 O.co2    1 ZINC000003187624   -0.7000
8      C8      0.7858   -2.1085    1.0094 C.ar     1 ZINC000003187624   -0.0300
9      C9     -0.3590   -2.8572    0.8066 C.ar     1 ZINC000003187624   -0.0800
10     C10    -0.2680   -4.2210    0.6085 C.ar     1 ZINC000003187624   -0.1400
11     C11     0.9752   -4.8403    0.6126 C.ar     1 ZINC000003187624    0.1400
12     N12     1.0709   -6.2210    0.4119 N.am     1 ZINC000003187624   -0.5500
13     C13     2.3154   -6.9983    0.3983 C.3      1 ZINC000003187624    0.1400
14     C14     1.9154   -8.4309    0.1482 C.ar     1 ZINC000003187624   -0.0800
15     C15     2.6279   -9.6013    0.0304 C.ar     1 ZINC000003187624   -0.1000
16     C16     1.9645  -10.7942   -0.2058 C.ar     1 ZINC000003187624   -0.0900
17     C17     0.5862  -10.8121   -0.3241 C.ar     1 ZINC000003187624   -0.1300
18     C18    -0.1382   -9.6436   -0.2075 C.ar     1 ZINC000003187624   -0.0400
19     C19     0.5231   -8.4376    0.0310 C.ar     1 ZINC000003187624   -0.1500
20     C20     0.0377   -7.0556    0.2053 C.2      1 ZINC000003187624    0.5500
21     O21    -1.1297   -6.7189    0.1643 O.2      1 ZINC000003187624   -0.5100
22     C22     2.1231   -4.0854    0.8162 C.ar     1 ZINC000003187624   -0.1500
23     C23     2.0255   -2.7212    1.0085 C.ar     1 ZINC000003187624   -0.1000
24     H24     1.1480   -1.1863   -1.3699 H        1 ZINC000003187624    0.0500
25     H25     0.4334    0.2753   -2.0920 H        1 ZINC000003187624    0.0400
26     H26     1.8634    0.4100   -1.0407 H        1 ZINC000003187624    0.0500
27     H27    -0.1439    1.0865    0.2044 H        1 ZINC000003187624    0.0700
28     H28    -0.9349   -0.4591   -0.1879 H        1 ZINC000003187624    0.0500
29     H29    -1.3254   -2.3750    0.8034 H        1 ZINC000003187624    0.1200
30     H30    -1.1625   -4.8052    0.4508 H        1 ZINC000003187624    0.1500
31     H31     2.9680   -6.6467   -0.4009 H        1 ZINC000003187624    0.1000
32     H32     2.8209   -6.9130    1.3602 H        1 ZINC000003187624    0.1000
33     H33     3.7040   -9.5904    0.1215 H        1 ZINC000003187624    0.1300
34     H34     2.5248  -11.7128   -0.2982 H        1 ZINC000003187624    0.1300
35     H35     0.0748  -11.7452   -0.5089 H        1 ZINC000003187624    0.1300
36     H36    -1.2140   -9.6619   -0.3008 H        1 ZINC000003187624    0.1300
37     H37     3.0913   -4.5640    0.8204 H        1 ZINC000003187624    0.1200
38     H38     2.9178   -2.1335    1.1665 H        1 ZINC000003187624    0.1200
@<TRIPOS>BOND
1     1     2     1
2     1     24    1
3     1     25    1
4     1     26    1
5     2     3     1
6     2     27    1
7     2     28    1
8     3     4     1
9     3     5     1
10    3     8     1
11    5     6     ar
12    5     7     ar
13    8     23    ar
14    8     9     ar
15    9     10    ar
16    9     29    1
17    10    11    ar
18    10    30    1
19    11    12    1
20    11    22    ar
21    12    20    am
22    12    13    1
23    13    14    1
24    13    31    1
25    13    32    1
26    14    19    ar
27    14    15    ar
28    15    16    ar
29    15    33    1
30    16    17    ar
31    16    34    1
32    17    18    ar
33    17    35    1
34    18    19    ar
35    18    36    1
36    19    20    1
37    20    21    2
38    22    23    ar
39    22    37    1
40    23    38    1
@<TRIPOS>SUBSTRUCTURE
1   ZINC000003187624 1     RESIDUE    1   A     ZIN   1
