@<TRIPOS>MOLECULE
ZINC000028603970
43    46    1     0     0
SMALL
USER_CHARGES
@<TRIPOS>ATOM
1      O1      0.0021   -0.0041    0.0117 O.co2    1 ZINC000028603970   -0.6600
2      C2     -0.0145    1.2194    0.0087 C.2      1 ZINC000028603970    0.5200
3      O3      1.0366    1.8455   -0.0076 O.co2    1 ZINC000028603970   -0.6700
4      C4     -1.2982    1.9374    0.0187 C.ar     1 ZINC000028603970   -0.0900
5      C5     -1.3580    3.3959    0.1295 C.ar     1 ZINC000028603970   -0.0700
6      C6     -0.2001    4.1727    0.2335 C.ar     1 ZINC000028603970   -0.0800
7      C7     -0.3115    5.5240    0.3370 C.ar     1 ZINC000028603970   -0.1400
8      C8     -1.5607    6.1594    0.3388 C.ar     1 ZINC000028603970   -0.0700
9      C9     -2.7009    5.4328    0.2343 C.ar     1 ZINC000028603970   -0.0700
10     C10    -4.0715    6.0570    0.2179 C.3      1 ZINC000028603970   -0.0600
11     C11    -4.0224    7.4846    0.7577 C.3      1 ZINC000028603970   -0.1200
12     C12    -2.9081    8.2376    0.0205 C.3      1 ZINC000028603970   -0.1200
13     C13    -1.5661    7.6620    0.4662 C.3      1 ZINC000028603970   -0.0800
14     C14    -2.6241    4.0252    0.1310 C.ar     1 ZINC000028603970    0.1100
15     N15    -3.7364    3.2907    0.0353 N.ar     1 ZINC000028603970   -0.4700
16     C16    -3.7120    1.9892   -0.0646 C.ar     1 ZINC000028603970    0.1400
17     C17    -5.0187    1.2457   -0.1688 C.3      1 ZINC000028603970   -0.0300
18     C18    -5.4037    1.1074   -1.6192 C.ar     1 ZINC000028603970   -0.0600
19     C19    -6.1705    2.0842   -2.2267 C.ar     1 ZINC000028603970   -0.0900
20     C20    -6.5239    1.9580   -3.5569 C.ar     1 ZINC000028603970   -0.1100
21     C21    -6.1102    0.8538   -4.2805 C.ar     1 ZINC000028603970   -0.0400
22     Cl22   -6.5532    0.6948   -5.9515 Cl       1 ZINC000028603970   -0.0800
23     C23    -5.3427   -0.1235   -3.6721 C.ar     1 ZINC000028603970   -0.1100
24     C24    -4.9852    0.0067   -2.3433 C.ar     1 ZINC000028603970   -0.1000
25     C25    -2.5171    1.2577   -0.0832 C.ar     1 ZINC000028603970    0.0700
26     O26    -2.5418   -0.0927   -0.1894 O.3      1 ZINC000028603970   -0.4600
27     H27     0.7730    3.7042    0.2319 H        1 ZINC000028603970    0.1700
28     H28     0.5841    6.1219    0.4202 H        1 ZINC000028603970    0.1200
29     H29    -4.4463    6.0730   -0.8055 H        1 ZINC000028603970    0.0700
30     H30    -4.7440    5.4625    0.8363 H        1 ZINC000028603970    0.0800
31     H31    -4.9784    7.9775    0.5812 H        1 ZINC000028603970    0.0600
32     H32    -3.8092    7.4665    1.8264 H        1 ZINC000028603970    0.0600
33     H33    -3.0252    8.1064   -1.0552 H        1 ZINC000028603970    0.0600
34     H34    -2.9542    9.2978    0.2692 H        1 ZINC000028603970    0.0600
35     H35    -1.3863    7.9347    1.5061 H        1 ZINC000028603970    0.0700
36     H36    -0.7731    8.0778   -0.1554 H        1 ZINC000028603970    0.0700
37     H37    -4.9097    0.2557    0.2741 H        1 ZINC000028603970    0.1000
38     H38    -5.7942    1.7978    0.3619 H        1 ZINC000028603970    0.0900
39     H39    -6.4937    2.9459   -1.6616 H        1 ZINC000028603970    0.1300
40     H40    -7.1233    2.7210   -4.0312 H        1 ZINC000028603970    0.1300
41     H41    -5.0197   -0.9858   -4.2364 H        1 ZINC000028603970    0.1300
42     H42    -4.3858   -0.7559   -1.8683 H        1 ZINC000028603970    0.1400
43     H43    -2.5206   -0.4160   -1.1005 H        1 ZINC000028603970    0.3800
@<TRIPOS>BOND
1     1     2     ar
2     2     3     ar
3     2     4     1
4     4     25    ar
5     4     5     ar
6     5     14    ar
7     5     6     ar
8     6     7     ar
9     6     27    1
10    7     8     ar
11    7     28    1
12    8     13    1
13    8     9     ar
14    9     10    1
15    9     14    ar
16    10    11    1
17    10    29    1
18    10    30    1
19    11    12    1
20    11    31    1
21    11    32    1
22    12    13    1
23    12    33    1
24    12    34    1
25    13    35    1
26    13    36    1
27    14    15    ar
28    15    16    ar
29    16    17    1
30    16    25    ar
31    17    18    1
32    17    37    1
33    17    38    1
34    18    24    ar
35    18    19    ar
36    19    20    ar
37    19    39    1
38    20    21    ar
39    20    40    1
40    21    22    1
41    21    23    ar
42    23    24    ar
43    23    41    1
44    24    42    1
45    25    26    1
46    26    43    1
@<TRIPOS>SUBSTRUCTURE
1   ZINC000028603970 1     RESIDUE    1   A     ZIN   1
