@<TRIPOS>MOLECULE
ZINC000059817095
78    82    1     0     0
SMALL
USER_CHARGES
@<TRIPOS>ATOM
1      C1     -1.4636    0.4513   -0.7966 C.3      1 ZINC000059817095    0.0200
2      O2     -0.9839   -0.8889   -0.6706 O.3      1 ZINC000059817095   -0.2800
3      C3      0.1088   -1.2232   -1.4019 C.2      1 ZINC000059817095    0.1500
4      C4      0.7556   -0.4043   -2.2080 C.2      1 ZINC000059817095   -0.3500
5      C5      1.9321   -1.1356   -2.8570 C.3      1 ZINC000059817095    0.1300
6      C6      3.1151   -0.1477   -2.9480 C.3      1 ZINC000059817095   -0.1200
7      C7      2.6812    0.7652   -4.1228 C.3      1 ZINC000059817095   -0.1400
8      C8      1.6455   -0.0610   -4.9116 C.3      1 ZINC000059817095    0.0000
9      N9      1.5733   -1.3952   -4.2482 N.4      1 ZINC000059817095   -0.3700
10     H10     0.6326   -1.7563   -4.3003 H        1 ZINC000059817095    0.4200
11     C11     2.4799   -2.2770   -4.9401 C.3      1 ZINC000059817095   -0.0200
12     C12     2.2863   -3.7380   -4.7031 C.3      1 ZINC000059817095   -0.0900
13     C13     2.9047   -4.2287   -3.4322 C.ar     1 ZINC000059817095   -0.0800
14     C14     3.4563   -5.5172   -3.5216 C.ar     1 ZINC000059817095   -0.1100
15     C15     4.1401   -6.0254   -2.4358 C.ar     1 ZINC000059817095    0.0600
16     C16     4.2866   -5.2561   -1.2710 C.ar     1 ZINC000059817095    0.0500
17     C17     3.7139   -4.0054   -1.1800 C.ar     1 ZINC000059817095   -0.0900
18     C18     2.9654   -3.5108   -2.2692 C.ar     1 ZINC000059817095   -0.0700
19     C19     2.1802   -2.2853   -1.9468 C.3      1 ZINC000059817095    0.0000
20     C20     2.8788   -1.6758   -0.7297 C.3      1 ZINC000059817095   -0.1700
21     C21     0.7666   -2.5937   -1.4041 C.3      1 ZINC000059817095    0.1200
22     H22     0.2317   -3.2653   -2.0758 H        1 ZINC000059817095    0.1100
23     O23     0.8382   -3.1544   -0.0666 O.3      1 ZINC000059817095   -0.3100
24     C24    -0.1340   -4.0089    0.2888 C.2      1 ZINC000059817095    0.4400
25     O25    -1.0156   -4.2795   -0.4919 O.2      1 ZINC000059817095   -0.5000
26     C26    -0.1258   -4.6308    1.6614 C.3      1 ZINC000059817095    0.1900
27     O27     0.3832   -3.6891    2.6080 O.3      1 ZINC000059817095   -0.5000
28     C28    -1.5518   -5.0255    2.0510 C.3      1 ZINC000059817095   -0.1400
29     C29    -2.4300   -3.7739    2.1073 C.3      1 ZINC000059817095   -0.1200
30     C30    -3.8797   -4.1800    2.3801 C.3      1 ZINC000059817095   -0.1400
31     C31    -4.7579   -2.9284    2.4364 C.3      1 ZINC000059817095    0.1300
32     C32    -4.6784   -2.1890    1.0993 C.3      1 ZINC000059817095   -0.1400
33     C33    -6.2076   -3.3345    2.7092 C.3      1 ZINC000059817095   -0.1800
34     O34    -4.2985   -2.0708    3.4831 O.3      1 ZINC000059817095   -0.5600
35     C35     0.7634   -5.8759    1.6520 C.3      1 ZINC000059817095   -0.1800
36     C36     0.8033   -6.4752    3.0341 C.2      1 ZINC000059817095    0.5000
37     O37     0.2817   -5.8896    3.9678 O.co2    1 ZINC000059817095   -0.6700
38     O38     1.3571   -7.5455    3.2187 O.co2    1 ZINC000059817095   -0.7000
39     O39     5.0244   -5.9566   -0.3792 O.3      1 ZINC000059817095   -0.2900
40     C40     4.9820   -7.3249   -0.8352 C.3      1 ZINC000059817095    0.2100
41     O41     4.7586   -7.2139   -2.2562 O.3      1 ZINC000059817095   -0.3000
42     H42    -0.6824    1.1471   -0.4907 H        1 ZINC000059817095    0.0700
43     H43    -1.7356    0.6438   -1.8344 H        1 ZINC000059817095    0.0600
44     H44    -2.3388    0.5852   -0.1608 H        1 ZINC000059817095    0.1100
45     H45     0.4938    0.6287   -2.3839 H        1 ZINC000059817095    0.1600
46     H46     3.2158    0.4253   -2.0263 H        1 ZINC000059817095    0.1200
47     H47     4.0421   -0.6707   -3.1831 H        1 ZINC000059817095    0.1000
48     H48     2.2259    1.6799   -3.7432 H        1 ZINC000059817095    0.1000
49     H49     3.5374    1.0016   -4.7546 H        1 ZINC000059817095    0.1000
50     H50     0.6718    0.4275   -4.8753 H        1 ZINC000059817095    0.1300
51     H51     1.9685   -0.1753   -5.9464 H        1 ZINC000059817095    0.1300
52     H52     2.3840   -2.0911   -6.0098 H        1 ZINC000059817095    0.1300
53     H53     3.4968   -2.0173   -4.6459 H        1 ZINC000059817095    0.1300
54     H54     1.2170   -3.9474   -4.6737 H        1 ZINC000059817095    0.0900
55     H55     2.7228   -4.2870   -5.5375 H        1 ZINC000059817095    0.1200
56     H56     3.3471   -6.1003   -4.4241 H        1 ZINC000059817095    0.1500
57     H57     3.8363   -3.4117   -0.2862 H        1 ZINC000059817095    0.1600
58     H58     3.9446   -1.5752   -0.9350 H        1 ZINC000059817095    0.0800
59     H59     2.4546   -0.6936   -0.5213 H        1 ZINC000059817095    0.0700
60     H60     2.7349   -2.3245    0.1344 H        1 ZINC000059817095    0.1100
61     H61    -0.1325   -2.8732    2.6675 H        1 ZINC000059817095    0.3600
62     H62    -1.9525   -5.7175    1.3103 H        1 ZINC000059817095    0.0700
63     H63    -1.5413   -5.5063    3.0292 H        1 ZINC000059817095    0.1200
64     H64    -2.0796   -3.1198    2.9057 H        1 ZINC000059817095    0.0700
65     H65    -2.3734   -3.2471    1.1547 H        1 ZINC000059817095    0.0600
66     H66    -4.2302   -4.8341    1.5818 H        1 ZINC000059817095    0.0700
67     H67    -3.9364   -4.7068    3.3327 H        1 ZINC000059817095    0.0700
68     H68    -5.0289   -2.8431    0.3010 H        1 ZINC000059817095    0.0700
69     H69    -5.3041   -1.2973    1.1394 H        1 ZINC000059817095    0.0600
70     H70    -3.6456   -1.8997    0.9050 H        1 ZINC000059817095    0.0600
71     H71    -6.2643   -3.8612    3.6618 H        1 ZINC000059817095    0.0600
72     H72    -6.8333   -2.4428    2.7493 H        1 ZINC000059817095    0.0600
73     H73    -6.5581   -3.9886    1.9108 H        1 ZINC000059817095    0.0600
74     H74    -4.3212   -2.4750    4.3612 H        1 ZINC000059817095    0.3800
75     H75     0.3589   -6.6059    0.9510 H        1 ZINC000059817095    0.0700
76     H76     1.7725   -5.5993    1.3466 H        1 ZINC000059817095    0.0700
77     H77     5.9304   -7.8236   -0.6355 H        1 ZINC000059817095    0.1400
78     H78     4.1602   -7.8605   -0.3601 H        1 ZINC000059817095    0.1000
@<TRIPOS>BOND
1     1     2     1
2     1     42    1
3     1     43    1
4     1     44    1
5     2     3     1
6     3     21    1
7     3     4     2
8     4     5     1
9     4     45    1
10    5     9     1
11    5     19    1
12    5     6     1
13    6     7     1
14    6     46    1
15    6     47    1
16    7     8     1
17    7     48    1
18    7     49    1
19    8     9     1
20    8     50    1
21    8     51    1
22    9     10    1
23    9     11    1
24    11    12    1
25    11    52    1
26    11    53    1
27    12    13    1
28    12    54    1
29    12    55    1
30    13    18    ar
31    13    14    ar
32    14    15    ar
33    14    56    1
34    15    41    1
35    15    16    ar
36    16    17    ar
37    16    39    1
38    17    18    ar
39    17    57    1
40    18    19    1
41    19    20    1
42    19    21    1
43    20    58    1
44    20    59    1
45    20    60    1
46    21    22    1
47    21    23    1
48    23    24    1
49    24    25    2
50    24    26    1
51    26    27    1
52    26    28    1
53    26    35    1
54    27    61    1
55    28    29    1
56    28    62    1
57    28    63    1
58    29    30    1
59    29    64    1
60    29    65    1
61    30    31    1
62    30    66    1
63    30    67    1
64    31    32    1
65    31    33    1
66    31    34    1
67    32    68    1
68    32    69    1
69    32    70    1
70    33    71    1
71    33    72    1
72    33    73    1
73    34    74    1
74    35    36    1
75    35    75    1
76    35    76    1
77    36    37    ar
78    36    38    ar
79    39    40    1
80    40    41    1
81    40    77    1
82    40    78    1
@<TRIPOS>SUBSTRUCTURE
1   ZINC000059817095 1     RESIDUE    1   A     ZIN   1
