@<TRIPOS>MOLECULE
ZINC000003800982
  46   49    0    0    0
SMALL
USER_CHARGES
NO_NAME
@<TRIPOS>ATOM
    1 C1        0.0766     1.4956     0.0157 C.3    1 <0>      -0.0500
    2 N2        0.0591     0.0268     0.0022 N.4    1 <0>      -0.3800
    3 H3        0.5324    -0.2857    -0.8323 H      1 <0>       0.4200
    4 C4       -1.3234    -0.4111    -0.0680 C.3    1 <0>      -0.0100
    5 C5       -1.4116    -1.9070    -0.3859 C.3    1 <0>      -0.1200
    6 C6       -1.3024    -2.6747     0.9162 C.ar   1 <0>      -0.1100
    7 C7       -2.4028    -3.3508     1.4097 C.ar   1 <0>      -0.0200
    8 C8       -2.3000    -4.0498     2.5982 C.ar   1 <0>      -0.0700
    9 N9       -3.4734    -4.7762     3.1331 N.pl3  1 <0>       0.0200
   10 O10      -4.5293    -4.7581     2.5264 O.2    1 <0>      -0.1600
   11 O11      -3.3831    -5.3920     4.1801 O.2    1 <0>      -0.1200
   12 C12      -1.0974    -4.0709     3.2892 C.ar   1 <0>       0.2000
   13 O13      -0.9965    -4.7582     4.4572 O.3    1 <0>      -0.4700
   14 C14       0.0033    -3.3897     2.7867 C.ar   1 <0>      -0.1300
   15 C15      -0.1100    -2.6944     1.5986 C.ar   1 <0>      -0.0300
   16 C16       1.0879    -1.9504     1.0438 C.3    1 <0>      -0.0100
   17 H17       1.9771    -2.2023     1.6216 H      1 <0>       0.1400
   18 C18       1.2964    -2.3274    -0.4003 C.ar   1 <0>      -0.1300
   19 C19       0.7743    -3.5088    -0.8844 C.ar   1 <0>      -0.0700
   20 C20       0.9602    -3.8646    -2.2077 C.ar   1 <0>      -0.1200
   21 C21       1.6773    -3.0322    -3.0485 C.ar   1 <0>      -0.0600
   22 C22       2.2020    -1.8534    -2.5665 C.ar   1 <0>      -0.1400
   23 C23       2.0107    -1.4789    -1.2428 C.ar   1 <0>       0.0600
   24 O24       2.5901    -0.2748    -0.9826 O.3    1 <0>      -0.3300
   25 C25       3.5715     0.0070    -1.9948 C.3    1 <0>       0.0500
   26 C26       3.0246    -0.7616    -3.2229 C.3    1 <0>      -0.1200
   27 C27       0.8058    -0.4477     1.1534 C.3    1 <0>       0.0000
   28 H28       1.1085     1.8467     0.0161 H      1 <0>       0.1300
   29 H29      -0.4353     1.8732    -0.8695 H      1 <0>       0.1200
   30 H30      -0.4305     1.8568     0.9104 H      1 <0>       0.1200
   31 H31      -1.8084    -0.2196     0.8891 H      1 <0>       0.1300
   32 H32      -1.8376     0.1512    -0.8475 H      1 <0>       0.1400
   33 H33      -2.3669    -2.1260    -0.8630 H      1 <0>       0.1200
   34 H34      -0.5948    -2.1907    -1.0497 H      1 <0>       0.1200
   35 H35      -3.3380    -3.3328     0.8697 H      1 <0>       0.1700
   36 H36      -0.7235    -5.6796     4.3491 H      1 <0>       0.4200
   37 H37       0.9416    -3.4032     3.3214 H      1 <0>       0.1600
   38 H38       0.2177    -4.1596    -0.2263 H      1 <0>       0.1400
   39 H39       0.5473    -4.7891    -2.5834 H      1 <0>       0.1500
   40 H40       1.8260    -3.3069    -4.0823 H      1 <0>       0.1400
   41 H41       3.6180     1.0764    -2.2005 H      1 <0>       0.1200
   42 H42       4.5496    -0.3737    -1.7009 H      1 <0>       0.0900
   43 H43       3.8382    -1.1905    -3.8079 H      1 <0>       0.1100
   44 H44       2.4011    -0.1154    -3.8408 H      1 <0>       0.1000
   45 H45       1.7518     0.0908     1.2091 H      1 <0>       0.1500
   46 H46       0.2324    -0.2565     2.0605 H      1 <0>       0.1300
@<TRIPOS>BOND
   1    1    2 1
   2    1   28 1
   3    1   29 1
   4    1   30 1
   5    2    3 1
   6    2   27 1
   7    2    4 1
   8    4    5 1
   9    4   31 1
  10    4   32 1
  11    5    6 1
  12    5   33 1
  13    5   34 1
  14    6   15 ar
  15    6    7 ar
  16    7    8 ar
  17    7   35 1
  18    8    9 1
  19    8   12 ar
  20    9   10 2
  21    9   11 2
  22   12   13 1
  23   12   14 ar
  24   13   36 1
  25   14   15 ar
  26   14   37 1
  27   15   16 1
  28   16   17 1
  29   16   18 1
  30   16   27 1
  31   18   23 ar
  32   18   19 ar
  33   19   20 ar
  34   19   38 1
  35   20   21 ar
  36   20   39 1
  37   21   22 ar
  38   21   40 1
  39   22   26 1
  40   22   23 ar
  41   23   24 1
  42   24   25 1
  43   25   26 1
  44   25   41 1
  45   25   42 1
  46   26   43 1
  47   26   44 1
  48   27   45 1
  49   27   46 1
