@<TRIPOS>MOLECULE
ZINC000001663856
  17   17    0    0    0
SMALL
USER_CHARGES
NO_NAME
@<TRIPOS>ATOM
    1 O1        0.0021    -0.0041     0.0020 O.co2  1 <0>      -1.0600
    2 S2       -0.0177     1.4504     0.0100 S.o2   1 <0>       2.7000
    3 O3        1.3231     2.0147     0.0002 O.co2  1 <0>      -1.0400
    4 O4       -0.8452     1.9911    -1.0572 O.co2  1 <0>      -1.0600
    5 C5       -0.7639     1.9401     1.5293 C.ar   1 <0>      -0.6700
    6 C6       -2.1319     2.1147     1.6019 C.ar   1 <0>      -0.0400
    7 C7       -2.7194     2.5002     2.7980 C.ar   1 <0>       0.0600
    8 O8       -4.0664     2.6722     2.8695 O.3    1 <0>      -0.5000
    9 C9       -1.9331     2.7098     3.9208 C.ar   1 <0>      -0.1000
   10 C10      -0.5646     2.5346     3.8483 C.ar   1 <0>      -0.1600
   11 C11       0.0222     2.1446     2.6538 C.ar   1 <0>       0.1800
   12 O12       1.3691     1.9722     2.5824 O.3    1 <0>      -0.4800
   13 H13      -2.7443     1.9515     0.7274 H      1 <0>       0.1400
   14 H14      -4.5523     1.8734     3.1163 H      1 <0>       0.3800
   15 H15      -2.3904     3.0102     4.8519 H      1 <0>       0.1300
   16 H16       0.0478     2.6981     4.7227 H      1 <0>       0.1300
   17 H17       1.6624     1.0747     2.7912 H      1 <0>       0.3900
@<TRIPOS>BOND
   1    1    2 ar
   2    2    3 ar
   3    2    4 ar
   4    2    5 1
   5    5   11 ar
   6    5    6 ar
   7    6    7 ar
   8    6   13 1
   9    7    8 1
  10    7    9 ar
  11    8   14 1
  12    9   10 ar
  13    9   15 1
  14   10   11 ar
  15   10   16 1
  16   11   12 1
  17   12   17 1
