@<TRIPOS>MOLECULE
ZINC000043128345
  48   51    0    0    0
SMALL
USER_CHARGES
NO_NAME
@<TRIPOS>ATOM
    1 C1        0.0046     2.3378    -0.3726 C.3    1 <0>       0.0200
    2 O2        0.1994     0.9230    -0.3217 O.3    1 <0>      -0.2800
    3 C3       -0.9119     0.1516    -0.2212 C.ar   1 <0>       0.1900
    4 C4       -2.1658     0.7354    -0.1780 C.ar   1 <0>      -0.2200
    5 C5       -3.3079    -0.0450    -0.0790 C.ar   1 <0>       0.0000
    6 C6       -3.2045    -1.4225    -0.0263 C.ar   1 <0>      -0.1200
    7 C7       -1.9546    -2.0195    -0.0625 C.ar   1 <0>      -0.0500
    8 C8       -0.8012    -1.2448    -0.1661 C.ar   1 <0>      -0.1800
    9 C9        0.5260    -1.8881    -0.2066 C.2    1 <0>       0.5600
   10 N10       0.6263    -3.2306    -0.1432 N.am   1 <0>      -0.8600
   11 O11       1.5291    -1.2070    -0.2971 O.2    1 <0>      -0.5200
   12 C12      -4.4046    -2.3293     0.0560 C.3    1 <0>      -0.0800
   13 C13      -5.6617    -1.5525     0.4449 C.3    1 <0>      -0.1200
   14 C14      -5.7527    -0.3150    -0.4482 C.3    1 <0>      -0.0800
   15 H15      -5.6227    -0.5998    -1.4923 H      1 <0>       0.0900
   16 C16      -7.0688     0.4120    -0.2712 C.3    1 <0>      -0.0800
   17 H17      -7.1959     0.7701     0.7504 H      1 <0>       0.0800
   18 C18      -8.3270    -0.3040    -0.7847 C.3    1 <0>      -0.0900
   19 C19      -9.2243     0.8747    -1.1616 C.2    1 <0>      -0.1700
   20 C20      -8.4840     1.9376    -1.4434 C.2    1 <0>      -0.1500
   21 C21      -7.0396     1.5792    -1.3046 C.3    1 <0>      -0.0500
   22 C22      -6.5475     1.0095    -2.6366 C.3    1 <0>      -0.1500
   23 C23      -6.0486     2.6165    -0.8413 C.3    1 <0>      -0.1000
   24 C24      -4.6546     1.9565    -0.8542 C.3    1 <0>      -0.1100
   25 C25      -4.6378     0.6518    -0.0258 C.3    1 <0>      -0.0500
   26 H26      -4.8522     0.9100     1.0112 H      1 <0>       0.0800
   27 H27       0.9713     2.8350    -0.4522 H      1 <0>       0.1000
   28 H28      -0.6061     2.5895    -1.2397 H      1 <0>       0.0600
   29 H29      -0.5001     2.6680     0.5354 H      1 <0>       0.0600
   30 H30      -2.2559     1.8107    -0.2214 H      1 <0>       0.1400
   31 H31      -1.8739    -3.0954    -0.0140 H      1 <0>       0.1300
   32 H32      -0.1740    -3.7739    -0.0710 H      1 <0>       0.4000
   33 H33       1.4989    -3.6535    -0.1698 H      1 <0>       0.4000
   34 H34      -4.5625    -2.8014    -0.9136 H      1 <0>       0.0800
   35 H35      -4.2176    -3.1020     0.8018 H      1 <0>       0.0700
   36 H36      -6.5416    -2.1785     0.2967 H      1 <0>       0.0700
   37 H37      -5.5978    -1.2482     1.4896 H      1 <0>       0.0700
   38 H38      -8.0989    -0.9154    -1.6578 H      1 <0>       0.0800
   39 H39      -8.7824    -0.9050     0.0024 H      1 <0>       0.0700
   40 H40     -10.3034     0.8457    -1.1939 H      1 <0>       0.1200
   41 H41      -8.8614     2.9109    -1.7203 H      1 <0>       0.1200
   42 H42      -6.6199     1.7757    -3.4084 H      1 <0>       0.0500
   43 H43      -5.5095     0.6929    -2.5350 H      1 <0>       0.0700
   44 H44      -7.1627     0.1539    -2.9152 H      1 <0>       0.0600
   45 H45      -6.0611     3.4701    -1.5191 H      1 <0>       0.0700
   46 H46      -6.2962     2.9407     0.1695 H      1 <0>       0.0700
   47 H47      -4.3905     1.6972    -1.8794 H      1 <0>       0.0700
   48 H48      -3.9209     2.6617    -0.4637 H      1 <0>       0.0700
@<TRIPOS>BOND
   1    1    2 1
   2    1   27 1
   3    1   28 1
   4    1   29 1
   5    2    3 1
   6    3    8 ar
   7    3    4 ar
   8    4    5 ar
   9    4   30 1
  10    5   25 1
  11    5    6 ar
  12    6    7 ar
  13    6   12 1
  14    7    8 ar
  15    7   31 1
  16    8    9 1
  17    9   10 am
  18    9   11 2
  19   10   32 1
  20   10   33 1
  21   12   13 1
  22   12   34 1
  23   12   35 1
  24   13   14 1
  25   13   36 1
  26   13   37 1
  27   14   15 1
  28   14   25 1
  29   14   16 1
  30   16   17 1
  31   16   21 1
  32   16   18 1
  33   18   19 1
  34   18   38 1
  35   18   39 1
  36   19   20 2
  37   19   40 1
  38   20   21 1
  39   20   41 1
  40   21   22 1
  41   21   23 1
  42   22   42 1
  43   22   43 1
  44   22   44 1
  45   23   24 1
  46   23   45 1
  47   23   46 1
  48   24   25 1
  49   24   47 1
  50   24   48 1
  51   25   26 1
