@<TRIPOS>MOLECULE
ZINC000014299682
49    52    1     0     0
SMALL
USER_CHARGES
@<TRIPOS>ATOM
1      C1     -2.5700   -2.3085    1.0420 C.3      1 ZINC000014299682   -0.0500
2      N2     -1.1411   -2.4589    0.7359 N.4      1 ZINC000014299682   -0.3900
3      H3     -0.6917   -1.5568    0.7825 H        1 ZINC000014299682    0.4300
4      C4     -0.9874   -3.0111   -0.6159 C.3      1 ZINC000014299682   -0.0200
5      C5      0.5001   -3.0613   -0.9800 C.3      1 ZINC000014299682    0.0700
6      N6      1.2113   -3.8114    0.0667 N.pl3    1 ZINC000014299682   -0.6200
7      C7      2.0630   -4.8433   -0.2567 C.2      1 ZINC000014299682    0.4900
8      N8      2.5341   -5.5468    0.7138 N.2      1 ZINC000014299682   -0.5500
9      C9      3.4044   -6.5913    0.6207 C.ar     1 ZINC000014299682    0.1100
10     C10     4.4212   -6.7106    1.5727 C.ar     1 ZINC000014299682   -0.0900
11     C11     5.2985   -7.7754    1.5212 C.ar     1 ZINC000014299682   -0.1000
12     C12     5.1749   -8.7301    0.5297 C.ar     1 ZINC000014299682   -0.1000
13     C13     4.1785   -8.6162   -0.4248 C.ar     1 ZINC000014299682   -0.1000
14     C14     3.3014   -7.5453   -0.3941 C.ar     1 ZINC000014299682    0.0400
15     O15     2.3797   -7.4218   -1.3838 O.3      1 ZINC000014299682   -0.2600
16     C16     2.4697   -6.3455   -2.2044 C.ar     1 ZINC000014299682    0.1700
17     C17     2.6769   -6.5282   -3.5612 C.ar     1 ZINC000014299682   -0.1000
18     C18     2.7989   -5.4349   -4.3994 C.ar     1 ZINC000014299682   -0.0300
19     C19     2.7156   -4.1487   -3.8860 C.ar     1 ZINC000014299682    0.0400
20     O20     2.8488   -3.0778   -4.7135 O.3      1 ZINC000014299682   -0.6300
21     S21     1.5723   -2.7048   -5.4536 S.o2     1 ZINC000014299682    2.5800
22     O22     2.0276   -2.1504   -6.6802 O.2      1 ZINC000014299682   -0.8300
23     O23     0.7941   -3.8935   -5.4311 O.2      1 ZINC000014299682   -0.8700
24     C24     0.8081   -1.4241   -4.4209 C.3      1 ZINC000014299682   -0.0500
25     F25     1.6734   -0.3295   -4.3189 F        1 ZINC000014299682   -0.1500
26     F26    -0.3965   -1.0137   -5.0021 F        1 ZINC000014299682   -0.1500
27     F27     0.5581   -1.9413   -3.1453 F        1 ZINC000014299682   -0.1800
28     C28     2.4966   -3.9531   -2.5329 C.ar     1 ZINC000014299682   -0.0700
29     C29     2.3555   -5.0553   -1.6830 C.ar     1 ZINC000014299682   -0.1400
30     C30     0.9860   -3.4278    1.4690 C.3      1 ZINC000014299682    0.1000
31     C31    -0.5249   -3.3620    1.7161 C.3      1 ZINC000014299682   -0.0200
32     H32    -3.0568   -3.2825    0.9920 H        1 ZINC000014299682    0.1200
33     H33    -2.6854   -1.8956    2.0441 H        1 ZINC000014299682    0.1300
34     H34    -3.0280   -1.6357    0.3169 H        1 ZINC000014299682    0.1300
35     H35    -1.4034   -4.0182   -0.6467 H        1 ZINC000014299682    0.1400
36     H36    -1.5150   -2.3780   -1.3293 H        1 ZINC000014299682    0.1500
37     H37     0.6256   -3.5630   -1.9395 H        1 ZINC000014299682    0.1300
38     H38     0.8973   -2.0480   -1.0385 H        1 ZINC000014299682    0.1000
39     H39     4.5209   -5.9677    2.3502 H        1 ZINC000014299682    0.1400
40     H40     6.0837   -7.8623    2.2576 H        1 ZINC000014299682    0.1400
41     H41     5.8569   -9.5670    0.4995 H        1 ZINC000014299682    0.1400
42     H42     4.0857   -9.3654   -1.1972 H        1 ZINC000014299682    0.1400
43     H43     2.7437   -7.5272   -3.9660 H        1 ZINC000014299682    0.1700
44     H44     2.9599   -5.5829   -5.4571 H        1 ZINC000014299682    0.1600
45     H45     2.4325   -2.9511   -2.1350 H        1 ZINC000014299682    0.1600
46     H46     1.4328   -4.1718    2.1285 H        1 ZINC000014299682    0.1500
47     H47     1.4323   -2.4515    1.6578 H        1 ZINC000014299682    0.0900
48     H48    -0.7126   -2.9862    2.7220 H        1 ZINC000014299682    0.1500
49     H49    -0.9536   -4.3590    1.6146 H        1 ZINC000014299682    0.1400
@<TRIPOS>BOND
1     1     2     1
2     1     32    1
3     1     33    1
4     1     34    1
5     2     3     1
6     2     31    1
7     2     4     1
8     4     5     1
9     4     35    1
10    4     36    1
11    5     6     1
12    5     37    1
13    5     38    1
14    6     7     1
15    6     30    1
16    7     29    1
17    7     8     2
18    8     9     1
19    9     14    ar
20    9     10    ar
21    10    11    ar
22    10    39    1
23    11    12    ar
24    11    40    1
25    12    13    ar
26    12    41    1
27    13    14    ar
28    13    42    1
29    14    15    1
30    15    16    1
31    16    29    ar
32    16    17    ar
33    17    18    ar
34    17    43    1
35    18    19    ar
36    18    44    1
37    19    20    1
38    19    28    ar
39    20    21    1
40    21    22    2
41    21    23    2
42    21    24    1
43    24    25    1
44    24    26    1
45    24    27    1
46    28    29    ar
47    28    45    1
48    30    31    1
49    30    46    1
50    30    47    1
51    31    48    1
52    31    49    1
@<TRIPOS>SUBSTRUCTURE
1   ZINC000014299682 1     RESIDUE    1   A     ZIN   1
