@<TRIPOS>MOLECULE
ZINC000008214621
89    94    1     0     0
SMALL
USER_CHARGES
@<TRIPOS>ATOM
1      C1     -0.1706    2.1301    0.5028 C.3      1 ZINC000008214621    0.0300
2      O2     -0.0395    0.7487    0.1613 O.3      1 ZINC000008214621   -0.3800
3      C3     -1.2825    0.0476    0.0882 C.3      1 ZINC000008214621    0.1000
4      H4     -1.9954    0.4962    0.7799 H        1 ZINC000008214621    0.0800
5      C5     -1.8331    0.1283   -1.3390 C.3      1 ZINC000008214621   -0.1600
6      C6     -3.1234   -0.6909   -1.4268 C.3      1 ZINC000008214621    0.2400
7      H7     -3.4968   -0.6722   -2.4507 H        1 ZINC000008214621    0.1100
8      O8     -4.1042   -0.1304   -0.5516 O.3      1 ZINC000008214621   -0.3800
9      C9     -5.4139   -0.6764   -0.7207 C.3      1 ZINC000008214621    0.0900
10     H10    -5.4608   -1.2232   -1.6624 H        1 ZINC000008214621    0.0600
11     C11    -5.7234   -1.6274    0.4371 C.3      1 ZINC000008214621   -0.1400
12     C12    -5.6583   -0.8600    1.7591 C.3      1 ZINC000008214621   -0.1000
13     C13    -6.6851    0.2741    1.7419 C.3      1 ZINC000008214621   -0.0400
14     C14    -6.6205    1.0410    3.0642 C.3      1 ZINC000008214621   -0.1500
15     C15    -6.3753    1.2252    0.5841 C.3      1 ZINC000008214621   -0.0700
16     H16    -5.3763    1.6416    0.7133 H        1 ZINC000008214621    0.0800
17     C17    -7.4023    2.3591    0.5674 C.3      1 ZINC000008214621   -0.1200
18     C18    -8.8047    1.7754    0.3865 C.3      1 ZINC000008214621   -0.1200
19     C19    -9.1142    0.8208    1.5421 C.3      1 ZINC000008214621   -0.1000
20     H20    -9.0390    1.3729    2.4789 H        1 ZINC000008214621    0.0900
21     C21    -8.0876   -0.3107    1.5590 C.3      1 ZINC000008214621   -0.0700
22     H22    -8.1436   -0.8706    0.6255 H        1 ZINC000008214621    0.0800
23     C23    -8.4059   -1.2383    2.7366 C.3      1 ZINC000008214621   -0.1200
24     C24    -9.7790   -1.8636    2.5060 C.3      1 ZINC000008214621   -0.1100
25     C25   -10.8659   -0.7863    2.4687 C.3      1 ZINC000008214621   -0.0300
26     C26   -11.1171   -0.1855    3.8532 C.3      1 ZINC000008214621   -0.1400
27     C27   -12.1341   -1.4547    1.8740 C.3      1 ZINC000008214621   -0.0300
28     H28   -12.1341   -2.5218    2.0964 H        1 ZINC000008214621    0.1100
29     C29   -13.3729   -0.8087    2.4390 C.2      1 ZINC000008214621   -0.0400
30     C30   -14.3173   -1.4047    3.1622 C.2      1 ZINC000008214621   -0.2500
31     C31   -15.3513   -0.4289    3.5170 C.2      1 ZINC000008214621    0.5000
32     O32   -16.3439   -0.6723    4.1748 O.2      1 ZINC000008214621   -0.4700
33     O33   -15.0389    0.7772    3.0071 O.3      1 ZINC000008214621   -0.3300
34     C34   -13.7757    0.6406    2.2976 C.3      1 ZINC000008214621    0.0600
35     C35   -12.0672   -1.2317    0.3516 C.3      1 ZINC000008214621    0.1000
36     H36   -12.0071   -2.1903   -0.1639 H        1 ZINC000008214621    0.1000
37     O37   -13.2384   -0.4994   -0.0958 O.3      1 ZINC000008214621   -0.3400
38     C38   -13.6664   -0.7389   -1.3452 C.2      1 ZINC000008214621    0.4600
39     C39   -14.8762   -0.0159   -1.8790 C.3      1 ZINC000008214621   -0.1500
40     O40   -13.0818   -1.5343   -2.0420 O.2      1 ZINC000008214621   -0.5100
41     C41   -10.7891   -0.4045    0.0823 C.3      1 ZINC000008214621   -0.1600
42     C42   -10.5158    0.2755    1.4149 C.3      1 ZINC000008214621    0.1500
43     O43   -11.4309    1.3600    1.5833 O.3      1 ZINC000008214621   -0.5600
44     C44    -6.4408    0.4577   -0.7378 C.3      1 ZINC000008214621   -0.1200
45     O45    -2.8563   -2.0408   -1.0416 O.3      1 ZINC000008214621   -0.3800
46     C46    -2.3839   -2.1822    0.2997 C.3      1 ZINC000008214621    0.0600
47     H47    -3.1222   -1.7743    0.9900 H        1 ZINC000008214621    0.0800
48     C48    -2.1604   -3.6640    0.6084 C.3      1 ZINC000008214621   -0.1500
49     C49    -1.0642   -1.4225    0.4591 C.3      1 ZINC000008214621    0.0800
50     H50    -0.3128   -1.8551   -0.2014 H        1 ZINC000008214621    0.0700
51     O51    -0.6199   -1.5162    1.8140 O.3      1 ZINC000008214621   -0.5500
52     H52     0.8166    2.5910    0.5379 H        1 ZINC000008214621    0.0900
53     H53    -0.7801    2.6336   -0.2476 H        1 ZINC000008214621    0.0400
54     H54    -0.6482    2.2195    1.4785 H        1 ZINC000008214621    0.0400
55     H55    -2.0438    1.1679   -1.5899 H        1 ZINC000008214621    0.0900
56     H56    -1.0981   -0.2739   -2.0362 H        1 ZINC000008214621    0.1000
57     H57    -6.7222   -2.0442    0.3079 H        1 ZINC000008214621    0.0700
58     H58    -4.9915   -2.4350    0.4494 H        1 ZINC000008214621    0.0700
59     H59    -5.8792   -1.5376    2.5838 H        1 ZINC000008214621    0.0600
60     H60    -4.6593   -0.4437    1.8887 H        1 ZINC000008214621    0.0700
61     H61    -5.6216    1.4574    3.1943 H        1 ZINC000008214621    0.0500
62     H62    -7.3521    1.8490    3.0517 H        1 ZINC000008214621    0.0600
63     H63    -6.8418    0.3632    3.8885 H        1 ZINC000008214621    0.0600
64     H64    -7.3551    2.9058    1.5092 H        1 ZINC000008214621    0.0700
65     H65    -7.1818    3.0368   -0.2574 H        1 ZINC000008214621    0.0600
66     H66    -9.5361    2.5835    0.3772 H        1 ZINC000008214621    0.0600
67     H67    -8.8528    1.2313   -0.5568 H        1 ZINC000008214621    0.0600
68     H68    -7.6520   -2.0231    2.7983 H        1 ZINC000008214621    0.0700
69     H69    -8.4163   -0.6636    3.6627 H        1 ZINC000008214621    0.0700
70     H70    -9.7740   -2.4012    1.5578 H        1 ZINC000008214621    0.0700
71     H71    -9.9949   -2.5633    3.3134 H        1 ZINC000008214621    0.0700
72     H72   -10.1930    0.2499    4.2335 H        1 ZINC000008214621    0.0600
73     H73   -11.8805    0.5891    3.7800 H        1 ZINC000008214621    0.0700
74     H74   -11.4568   -0.9674    4.5324 H        1 ZINC000008214621    0.0600
75     H75   -14.3215   -2.4473    3.4440 H        1 ZINC000008214621    0.1600
76     H76   -13.0227    1.2906    2.7431 H        1 ZINC000008214621    0.1400
77     H77   -13.9085    0.8862    1.2439 H        1 ZINC000008214621    0.1300
78     H78   -14.5629    0.9111   -2.3592 H        1 ZINC000008214621    0.1100
79     H79   -15.3855   -0.6479   -2.6065 H        1 ZINC000008214621    0.1000
80     H80   -15.5551    0.2119   -1.0573 H        1 ZINC000008214621    0.0900
81     H81    -9.9573   -1.0578   -0.1812 H        1 ZINC000008214621    0.0900
82     H82   -10.9657    0.3299   -0.7036 H        1 ZINC000008214621    0.0900
83     H83   -11.3540    2.0481    0.9082 H        1 ZINC000008214621    0.3700
84     H84    -6.2201    1.1352   -1.5627 H        1 ZINC000008214621    0.0600
85     H85    -7.4398    0.0413   -0.8671 H        1 ZINC000008214621    0.0800
86     H86    -1.4218   -4.0715   -0.0817 H        1 ZINC000008214621    0.0700
87     H87    -1.8001   -3.7716    1.6315 H        1 ZINC000008214621    0.0700
88     H88    -3.1003   -4.2044    0.4955 H        1 ZINC000008214621    0.0700
89     H89    -0.4654   -2.4220    2.1155 H        1 ZINC000008214621    0.3800
@<TRIPOS>BOND
1     1     2     1
2     1     52    1
3     1     53    1
4     1     54    1
5     2     3     1
6     3     4     1
7     3     49    1
8     3     5     1
9     5     6     1
10    5     55    1
11    5     56    1
12    6     7     1
13    6     8     1
14    6     45    1
15    8     9     1
16    9     10    1
17    9     44    1
18    9     11    1
19    11    12    1
20    11    57    1
21    11    58    1
22    12    13    1
23    12    59    1
24    12    60    1
25    13    21    1
26    13    14    1
27    13    15    1
28    14    61    1
29    14    62    1
30    14    63    1
31    15    16    1
32    15    17    1
33    15    44    1
34    17    18    1
35    17    64    1
36    17    65    1
37    18    19    1
38    18    66    1
39    18    67    1
40    19    20    1
41    19    42    1
42    19    21    1
43    21    22    1
44    21    23    1
45    23    24    1
46    23    68    1
47    23    69    1
48    24    25    1
49    24    70    1
50    24    71    1
51    25    42    1
52    25    26    1
53    25    27    1
54    26    72    1
55    26    73    1
56    26    74    1
57    27    28    1
58    27    29    1
59    27    35    1
60    29    34    1
61    29    30    2
62    30    31    1
63    30    75    1
64    31    32    2
65    31    33    1
66    33    34    1
67    34    76    1
68    34    77    1
69    35    36    1
70    35    37    1
71    35    41    1
72    37    38    1
73    38    39    1
74    38    40    2
75    39    78    1
76    39    79    1
77    39    80    1
78    41    42    1
79    41    81    1
80    41    82    1
81    42    43    1
82    43    83    1
83    44    84    1
84    44    85    1
85    45    46    1
86    46    47    1
87    46    48    1
88    46    49    1
89    48    86    1
90    48    87    1
91    48    88    1
92    49    50    1
93    49    51    1
94    51    89    1
@<TRIPOS>SUBSTRUCTURE
1   ZINC000008214621 1     RESIDUE    1   A     ZIN   1
