@<TRIPOS>MOLECULE
ZINC000072316197
60    63    1     0     0
SMALL
USER_CHARGES
@<TRIPOS>ATOM
1      C1      1.0604    0.9534    0.7663 C.3      1 ZINC000072316197   -0.1400
2      C2      0.5394   -0.3841    0.3074 C.2      1 ZINC000072316197    0.2400
3      C3     -0.5906   -0.9139    0.8975 C.2      1 ZINC000072316197   -0.1600
4      C4     -1.2847   -0.1715    1.9739 C.2      1 ZINC000072316197    0.1300
5      C5     -1.8796    1.0529    1.8591 C.2      1 ZINC000072316197   -0.2500
6      C6     -2.4142    1.3870    3.1039 C.2      1 ZINC000072316197    0.0500
7      N7     -2.1595    0.4145    3.9419 N.2      1 ZINC000072316197   -0.2800
8      N8     -1.4536   -0.5856    3.2610 N.pl3    1 ZINC000072316197   -0.3600
9      C9     -0.9750   -1.8468    3.8325 C.3      1 ZINC000072316197    0.1000
10     C10    -1.0797   -2.1618    0.4713 C.2      1 ZINC000072316197    0.0900
11     C11    -0.4071   -2.8360   -0.5423 C.2      1 ZINC000072316197   -0.2800
12     C12    -0.8888   -4.1433   -1.0152 C.2      1 ZINC000072316197    0.5900
13     O13    -1.9493   -4.5826   -0.6127 O.2      1 ZINC000072316197   -0.5400
14     N14    -0.1551   -4.8541   -1.8944 N.am     1 ZINC000072316197   -0.7100
15     C15    -0.6753   -6.1128   -2.4338 C.3      1 ZINC000072316197    0.1600
16     C16     0.3308   -6.7049   -3.3869 C.ar     1 ZINC000072316197    0.1600
17     C17     1.2249   -7.6553   -2.9324 C.ar     1 ZINC000072316197   -0.1700
18     C18     2.1464   -8.1941   -3.8176 C.ar     1 ZINC000072316197    0.0200
19     C19     2.1334   -7.7545   -5.1323 C.ar     1 ZINC000072316197   -0.7200
20     S20     3.2804   -8.4041   -6.3015 S.o2     1 ZINC000072316197    2.5100
21     C21     2.4342   -9.8411   -7.0154 C.3      1 ZINC000072316197   -0.6500
22     O22     3.4154   -7.3731   -7.2700 O.2      1 ZINC000072316197   -0.9300
23     O23     4.3878   -8.8183   -5.5132 O.2      1 ZINC000072316197   -0.9300
24     C24     1.2091   -6.8005   -5.5144 C.ar     1 ZINC000072316197    0.2000
25     N25     0.3441   -6.3138   -4.6464 N.ar     1 ZINC000072316197   -0.4800
26     C26     0.7493   -2.2464   -1.1144 C.2      1 ZINC000072316197    0.5400
27     O27     1.3492   -2.8248   -2.0037 O.2      1 ZINC000072316197   -0.5200
28     N28     1.1829   -1.0480   -0.6825 N.am     1 ZINC000072316197   -0.4400
29     C29     2.3260   -0.4818   -1.2597 C.ar     1 ZINC000072316197    0.0900
30     C30     3.5805   -0.7546   -0.7306 C.ar     1 ZINC000072316197   -0.0600
31     C31     4.7062   -0.1944   -1.3023 C.ar     1 ZINC000072316197   -0.1100
32     C32     4.5848    0.6372   -2.4002 C.ar     1 ZINC000072316197   -0.0500
33     C33     3.3367    0.9112   -2.9293 C.ar     1 ZINC000072316197   -0.1700
34     C34     3.2090    1.8186   -4.1258 C.3      1 ZINC000072316197    0.5100
35     F35     4.4790    2.2555   -4.5174 F        1 ZINC000072316197   -0.1700
36     F36     2.6110    1.1193   -5.1796 F        1 ZINC000072316197   -0.1700
37     F37     2.4185    2.9232   -3.7911 F        1 ZINC000072316197   -0.1700
38     C38     2.2079    0.3494   -2.3662 C.ar     1 ZINC000072316197   -0.0400
39     H39     1.9727    1.1946    0.2208 H        1 ZINC000072316197    0.0800
40     H40     0.3097    1.7205    0.5760 H        1 ZINC000072316197    0.1100
41     H41     1.2755    0.9126    1.8341 H        1 ZINC000072316197    0.1000
42     H42    -1.9272    1.6554    0.9640 H        1 ZINC000072316197    0.1500
43     H43    -2.9484    2.2963    3.3369 H        1 ZINC000072316197    0.1900
44     H44    -1.7026   -2.6342    3.6356 H        1 ZINC000072316197    0.0800
45     H45    -0.0204   -2.1124    3.3784 H        1 ZINC000072316197    0.0800
46     H46    -0.8460   -1.7322    4.9088 H        1 ZINC000072316197    0.1000
47     H47    -1.9624   -2.5893    0.9236 H        1 ZINC000072316197    0.1600
48     H48     0.7175   -4.5322   -2.1699 H        1 ZINC000072316197    0.4200
49     H49    -0.8563   -6.8111   -1.6167 H        1 ZINC000072316197    0.0900
50     H50    -1.6091   -5.9229   -2.9630 H        1 ZINC000072316197    0.0900
51     H51     1.2066   -7.9742   -1.9007 H        1 ZINC000072316197    0.1500
52     H52     2.8574   -8.9383   -3.4905 H        1 ZINC000072316197    0.1600
53     H53     1.5078   -9.5183   -7.4903 H        1 ZINC000072316197    0.1300
54     H54     3.0791  -10.3104   -7.7583 H        1 ZINC000072316197    0.1400
55     H55     2.2074  -10.5582   -6.2263 H        1 ZINC000072316197    0.1300
56     H56     1.1926   -6.4525   -6.5367 H        1 ZINC000072316197    0.1800
57     H57     3.6759   -1.4037    0.1272 H        1 ZINC000072316197    0.1400
58     H58     5.6822   -0.4058   -0.8910 H        1 ZINC000072316197    0.1500
59     H59     5.4666    1.0740   -2.8455 H        1 ZINC000072316197    0.1500
60     H60     1.2336    0.5638   -2.7798 H        1 ZINC000072316197    0.1400
@<TRIPOS>BOND
1     1     2     1
2     1     39    1
3     1     40    1
4     1     41    1
5     2     28    1
6     2     3     2
7     3     4     1
8     3     10    1
9     4     8     1
10    4     5     2
11    5     6     1
12    5     42    1
13    6     7     2
14    6     43    1
15    7     8     1
16    8     9     1
17    9     44    1
18    9     45    1
19    9     46    1
20    10    11    2
21    10    47    1
22    11    12    1
23    11    26    1
24    12    13    2
25    12    14    am
26    14    15    1
27    14    48    1
28    15    16    1
29    15    49    1
30    15    50    1
31    16    25    ar
32    16    17    ar
33    17    18    ar
34    17    51    1
35    18    19    ar
36    18    52    1
37    19    20    1
38    19    24    ar
39    20    21    1
40    20    22    2
41    20    23    2
42    21    53    1
43    21    54    1
44    21    55    1
45    24    25    ar
46    24    56    1
47    26    27    2
48    26    28    am
49    28    29    1
50    29    38    ar
51    29    30    ar
52    30    31    ar
53    30    57    1
54    31    32    ar
55    31    58    1
56    32    33    ar
57    32    59    1
58    33    34    1
59    33    38    ar
60    34    35    1
61    34    36    1
62    34    37    1
63    38    60    1
@<TRIPOS>SUBSTRUCTURE
1   ZINC000072316197 1     RESIDUE    1   A     ZIN   1
