@<TRIPOS>MOLECULE
ZINC000025723899
39    41    1     0     0
SMALL
USER_CHARGES
@<TRIPOS>ATOM
1      N1     -0.0156    1.2992    0.0092 N.2      1 ZINC000025723899   -0.8100
2      C2      0.0021   -0.0041    0.0020 C.2      1 ZINC000025723899    0.6400
3      N3      1.1522   -0.7477   -0.0071 N.pl3    1 ZINC000025723899   -0.7600
4      C4      0.7921   -2.1758   -0.0092 C.3      1 ZINC000025723899    0.1300
5      H5      1.1605   -2.6422   -0.9229 H        1 ZINC000025723899    0.1200
6      C6      1.4065   -2.8656    1.1953 C.3      1 ZINC000025723899    0.1800
7      H7      2.3879   -2.4337    1.3914 H        1 ZINC000025723899    0.1200
8      C8      1.5679   -4.3561    0.8901 C.3      1 ZINC000025723899    0.0800
9      O9      2.2623   -5.0028    1.9891 O.3      1 ZINC000025723899   -0.3600
10     C10     2.4861   -6.3257    1.8769 C.2      1 ZINC000025723899    0.6500
11     N11     3.1257   -6.9869    2.8618 N.am     1 ZINC000025723899   -0.8300
12     O12     2.1113   -6.9235    0.8876 O.2      1 ZINC000025723899   -0.5700
13     N13     0.5658   -2.7094    2.3890 N.pl3    1 ZINC000025723899   -0.5400
14     O14     1.0430   -2.0959    3.5726 O.3      1 ZINC000025723899   -0.3100
15     C15    -0.7321   -3.2038    2.2808 C.2      1 ZINC000025723899    0.6500
16     N16    -1.3163   -3.8815    3.2287 N.2      1 ZINC000025723899   -0.7600
17     N17    -1.3420   -2.9110    1.0806 N.pl3    1 ZINC000025723899   -0.6000
18     C18    -2.6993   -3.2790    0.6590 C.3      1 ZINC000025723899    0.1300
19     C19    -2.7058   -3.2848   -0.8832 C.3      1 ZINC000025723899   -0.1900
20     C20    -1.2658   -2.8928   -1.2941 C.3      1 ZINC000025723899    0.2900
21     O21    -0.4916   -4.0557   -1.5946 O.3      1 ZINC000025723899   -0.5600
22     O22    -1.2839   -1.9982   -2.4083 O.3      1 ZINC000025723899   -0.5400
23     C23    -0.7259   -2.1889   -0.0100 C.3      1 ZINC000025723899    0.4300
24     N24    -1.1282   -0.7792    0.0086 N.pl3    1 ZINC000025723899   -0.7000
25     H25     0.8178    1.7956    0.0039 H        1 ZINC000025723899    0.3400
26     H26     2.0548   -0.3924   -0.0117 H        1 ZINC000025723899    0.4300
27     H27     0.5849   -4.8098    0.7642 H        1 ZINC000025723899    0.0900
28     H28     2.1448   -4.4789   -0.0266 H        1 ZINC000025723899    0.0900
29     H29     3.4249   -6.5097    3.6516 H        1 ZINC000025723899    0.4100
30     H30     3.2869   -7.9400    2.7810 H        1 ZINC000025723899    0.4300
31     H31     0.3905   -2.0553    4.2851 H        1 ZINC000025723899    0.3800
32     H32    -0.8448   -4.0623    4.0569 H        1 ZINC000025723899    0.3500
33     H33    -2.9501   -4.2705    1.0359 H        1 ZINC000025723899    0.0900
34     H34    -3.4159   -2.5469    1.0313 H        1 ZINC000025723899    0.0700
35     H35    -2.9484   -4.2796   -1.2568 H        1 ZINC000025723899    0.1000
36     H36    -3.4197   -2.5531   -1.2614 H        1 ZINC000025723899    0.1000
37     H37    -0.8352   -4.5771   -2.3329 H        1 ZINC000025723899    0.3900
38     H38    -1.6848   -2.3708   -3.2054 H        1 ZINC000025723899    0.3900
39     H39    -2.0406   -0.4502    0.0032 H        1 ZINC000025723899    0.4300
@<TRIPOS>BOND
1     1     2     2
2     1     25    1
3     2     24    1
4     2     3     1
5     3     4     1
6     3     26    1
7     4     5     1
8     4     23    1
9     4     6     1
10    6     7     1
11    6     8     1
12    6     13    1
13    8     9     1
14    8     27    1
15    8     28    1
16    9     10    1
17    10    11    am
18    10    12    2
19    11    29    1
20    11    30    1
21    13    14    1
22    13    15    1
23    14    31    1
24    15    16    2
25    15    17    1
26    16    32    1
27    17    23    1
28    17    18    1
29    18    19    1
30    18    33    1
31    18    34    1
32    19    20    1
33    19    35    1
34    19    36    1
35    20    21    1
36    20    22    1
37    20    23    1
38    21    37    1
39    22    38    1
40    23    24    1
41    24    39    1
@<TRIPOS>SUBSTRUCTURE
1   ZINC000025723899 1     RESIDUE    1   A     ZIN   1
