@<TRIPOS>MOLECULE
ZINC000100001952
39    41    1     0     0
SMALL
USER_CHARGES
@<TRIPOS>ATOM
1      C1      2.3979   -1.1204    1.4491 C.3      1 ZINC000100001952    0.0600
2      N2      1.1381   -1.2583    0.7141 N.am     1 ZINC000100001952   -0.5500
3      C3     -0.0148   -0.8327    1.2673 C.2      1 ZINC000100001952    0.5800
4      O4     -1.0738   -1.0477    0.7079 O.2      1 ZINC000100001952   -0.4900
5      C5      0.0070   -0.1097    2.5445 C.2      1 ZINC000100001952   -0.3600
6      C6      0.1248   -0.8051    3.7503 C.2      1 ZINC000100001952    0.2800
7      O7      0.2207   -2.1509    3.7667 O.3      1 ZINC000100001952   -0.4400
8      C8      0.1420   -0.0343    4.9979 C.ar     1 ZINC000100001952   -0.1400
9      C9      0.2586   -0.6815    6.2331 C.ar     1 ZINC000100001952   -0.0300
10     C10     0.2735    0.0518    7.3857 C.ar     1 ZINC000100001952   -0.1600
11     C11     0.1737    1.4352    7.3414 C.ar     1 ZINC000100001952   -0.0400
12     C12     0.0581    2.0933    6.1359 C.ar     1 ZINC000100001952   -0.1700
13     C13     0.0407    1.3675    4.9481 C.ar     1 ZINC000100001952    0.2200
14     N14    -0.0743    2.0193    3.7374 N.am     1 ZINC000100001952   -0.5300
15     C15    -0.1773    3.4806    3.7210 C.3      1 ZINC000100001952    0.0600
16     C16    -0.0882    1.3493    2.5726 C.2      1 ZINC000100001952    0.5700
17     O17    -0.1911    1.9650    1.5265 O.2      1 ZINC000100001952   -0.5200
18     C18     1.1319   -1.8316   -0.5616 C.ar     1 ZINC000100001952    0.1500
19     C19    -0.0253   -1.8084   -1.3293 C.ar     1 ZINC000100001952   -0.1600
20     C20    -0.0281   -2.3754   -2.5886 C.ar     1 ZINC000100001952   -0.1000
21     C21     1.1194   -2.9662   -3.0851 C.ar     1 ZINC000100001952   -0.1400
22     C22     2.2730   -2.9914   -2.3231 C.ar     1 ZINC000100001952   -0.1000
23     C23     2.2844   -2.4202   -1.0657 C.ar     1 ZINC000100001952   -0.1600
24     H24     2.5261   -1.9746    2.1139 H        1 ZINC000100001952    0.0700
25     H25     3.2278   -1.0815    0.7435 H        1 ZINC000100001952    0.0900
26     H26     2.3772   -0.2026    2.0366 H        1 ZINC000100001952    0.0800
27     H27     0.2763   -2.5520    2.8886 H        1 ZINC000100001952    0.4100
28     H28     0.3363   -1.7579    6.2752 H        1 ZINC000100001952    0.1400
29     H29     0.3632   -0.4488    8.3384 H        1 ZINC000100001952    0.1400
30     H30     0.1865    2.0018    8.2607 H        1 ZINC000100001952    0.1400
31     H31    -0.0193    3.1702    6.1129 H        1 ZINC000100001952    0.1400
32     H32     0.8206    3.9146    3.6582 H        1 ZINC000100001952    0.0800
33     H33    -0.7647    3.7938    2.8578 H        1 ZINC000100001952    0.1000
34     H34    -0.6646    3.8208    4.6347 H        1 ZINC000100001952    0.0900
35     H35    -0.9220   -1.3478   -0.9418 H        1 ZINC000100001952    0.1700
36     H36    -0.9276   -2.3578   -3.1861 H        1 ZINC000100001952    0.1300
37     H37     1.1144   -3.4093   -4.0700 H        1 ZINC000100001952    0.1200
38     H38     3.1675   -3.4538   -2.7136 H        1 ZINC000100001952    0.1300
39     H39     3.1859   -2.4399   -0.4711 H        1 ZINC000100001952    0.1300
@<TRIPOS>BOND
1     1     2     1
2     1     24    1
3     1     25    1
4     1     26    1
5     2     3     am
6     2     18    1
7     3     4     2
8     3     5     1
9     5     16    1
10    5     6     2
11    6     7     1
12    6     8     1
13    7     27    1
14    8     13    ar
15    8     9     ar
16    9     10    ar
17    9     28    1
18    10    11    ar
19    10    29    1
20    11    12    ar
21    11    30    1
22    12    13    ar
23    12    31    1
24    13    14    1
25    14    15    1
26    14    16    am
27    15    32    1
28    15    33    1
29    15    34    1
30    16    17    2
31    18    23    ar
32    18    19    ar
33    19    20    ar
34    19    35    1
35    20    21    ar
36    20    36    1
37    21    22    ar
38    21    37    1
39    22    23    ar
40    22    38    1
41    23    39    1
@<TRIPOS>SUBSTRUCTURE
1   ZINC000100001952 1     RESIDUE    1   A     ZIN   1
