@<TRIPOS>MOLECULE
ZINC000000010202
30    31    1     0     0
SMALL
USER_CHARGES
@<TRIPOS>ATOM
1      O1      0.0021   -0.0041    0.0020 O.2      1 ZINC000000010202   -0.4800
2      C2     -0.0144    1.2092    0.0087 C.2      1 ZINC000000010202    0.3800
3      C3      1.2436    1.9585    0.0007 C.ar     1 ZINC000000010202   -0.3700
4      C4      2.4734    1.2781   -0.0206 C.ar     1 ZINC000000010202    0.3300
5      O5      2.5015   -0.0776   -0.0338 O.3      1 ZINC000000010202   -0.6800
6      C6      3.6565    1.9984   -0.0284 C.ar     1 ZINC000000010202   -0.3000
7      C7      3.6311    3.3806   -0.0154 C.ar     1 ZINC000000010202   -0.0200
8      C8      2.4276    4.0615    0.0056 C.ar     1 ZINC000000010202   -0.3600
9      C9      1.2312    3.3645    0.0084 C.ar     1 ZINC000000010202    0.2200
10     O10     0.0525    4.0349    0.0289 O.3      1 ZINC000000010202   -0.3100
11     C11     0.1183    5.4623    0.0469 C.3      1 ZINC000000010202    0.1100
12     C12    -1.2778    6.0292    0.0683 C.ar     1 ZINC000000010202   -0.1000
13     C13    -1.9298    6.2987   -1.1222 C.ar     1 ZINC000000010202   -0.1100
14     C14    -3.2076    6.8176   -1.1104 C.ar     1 ZINC000000010202   -0.0900
15     C15    -3.8437    7.0712    0.1075 C.ar     1 ZINC000000010202   -0.1300
16     C16    -5.2107    7.6259    0.1284 C.2      1 ZINC000000010202    0.5200
17     O17    -5.7898    7.8647   -0.9219 O.co2    1 ZINC000000010202   -0.6900
18     O18    -5.7647    7.8467    1.1960 O.co2    1 ZINC000000010202   -0.6900
19     C19    -3.1792    6.7967    1.3055 C.ar     1 ZINC000000010202   -0.0900
20     C20    -1.9037    6.2726    1.2782 C.ar     1 ZINC000000010202   -0.1100
21     H21    -0.9569    1.7364    0.0160 H        1 ZINC000000010202    0.0700
22     H22     4.6028    1.4780   -0.0444 H        1 ZINC000000010202    0.1000
23     H23     4.5590    3.9333   -0.0213 H        1 ZINC000000010202    0.1000
24     H24     2.4208    5.1415    0.0156 H        1 ZINC000000010202    0.1000
25     H25     0.6572    5.7900    0.9359 H        1 ZINC000000010202    0.0600
26     H26     0.6394    5.8132   -0.8438 H        1 ZINC000000010202    0.0600
27     H27    -1.4368    6.1025   -2.0629 H        1 ZINC000000010202    0.1200
28     H28    -3.7151    7.0278   -2.0403 H        1 ZINC000000010202    0.1300
29     H29    -3.6647    6.9906    2.2505 H        1 ZINC000000010202    0.1300
30     H30    -1.3888    6.0598    2.2035 H        1 ZINC000000010202    0.1200
@<TRIPOS>BOND
1     1     2     2
2     2     3     1
3     2     21    1
4     3     9     ar
5     3     4     ar
6     4     5     1
7     4     6     ar
8     6     7     ar
9     6     22    1
10    7     8     ar
11    7     23    1
12    8     9     ar
13    8     24    1
14    9     10    1
15    10    11    1
16    11    12    1
17    11    25    1
18    11    26    1
19    12    20    ar
20    12    13    ar
21    13    14    ar
22    13    27    1
23    14    15    ar
24    14    28    1
25    15    16    1
26    15    19    ar
27    16    17    ar
28    16    18    ar
29    19    20    ar
30    19    29    1
31    20    30    1
@<TRIPOS>SUBSTRUCTURE
1   ZINC000000010202 1     RESIDUE    1   A     ZIN   1
