@<TRIPOS>MOLECULE
ZINC000207704741
65    67    1     0     0
SMALL
USER_CHARGES
@<TRIPOS>ATOM
1      C1     -0.0250    3.1215    2.3106 C.3      1 ZINC000207704741   -0.1300
2      C2      0.2261    1.6934    1.9003 C.ar     1 ZINC000207704741   -0.1100
3      C3      0.6984    1.4203    0.6357 C.ar     1 ZINC000207704741   -0.0700
4      C4      0.9319    0.1109    0.2487 C.ar     1 ZINC000207704741   -0.1200
5      C5      0.6920   -0.9199    1.1271 C.ar     1 ZINC000207704741   -0.0700
6      C6      0.2106   -0.6581    2.4191 C.ar     1 ZINC000207704741   -0.1300
7      C7     -0.0170    0.6604    2.8082 C.ar     1 ZINC000207704741    0.1600
8      N8     -0.4856    1.0135    4.0640 N.am     1 ZINC000207704741   -0.6600
9      C9     -1.4318    0.3643    4.7386 C.2      1 ZINC000207704741    0.5000
10     O10    -1.7955    0.7980    5.8113 O.2      1 ZINC000207704741   -0.5000
11     C11    -2.0621   -0.8930    4.2048 C.3      1 ZINC000207704741    0.2900
12     H12    -2.8460   -1.2256    4.8852 H        1 ZINC000207704741    0.1600
13     N13    -2.6380   -0.6304    2.8836 N.am     1 ZINC000207704741   -0.7400
14     C14    -3.8706   -1.0855    2.5832 C.2      1 ZINC000207704741    0.5300
15     O15    -4.4647   -1.7916    3.3701 O.2      1 ZINC000207704741   -0.5100
16     C16    -4.5104   -0.7169    1.2695 C.3      1 ZINC000207704741   -0.0900
17     H17    -3.7351   -0.4682    0.5449 H        1 ZINC000207704741    0.1100
18     C18    -5.4275    0.4913    1.4701 C.3      1 ZINC000207704741   -0.1200
19     C19    -4.5893    1.7067    1.8715 C.3      1 ZINC000207704741   -0.1700
20     C20    -5.4871    2.9434    1.9454 C.3      1 ZINC000207704741    0.4600
21     F21    -6.4912    2.7346    2.8969 F        1 ZINC000207704741   -0.1800
22     F22    -4.7207    4.0548    2.3125 F        1 ZINC000207704741   -0.1800
23     F23    -6.0702    3.1717    0.6944 F        1 ZINC000207704741   -0.1800
24     C24    -5.3313   -1.9000    0.7524 C.3      1 ZINC000207704741   -0.0900
25     H25    -6.1066   -2.1487    1.4770 H        1 ZINC000207704741    0.1200
26     C26    -4.4142   -3.1081    0.5518 C.3      1 ZINC000207704741   -0.1200
27     C27    -3.3079   -2.7492   -0.4423 C.3      1 ZINC000207704741   -0.1800
28     C28    -2.4680   -3.9926   -0.7414 C.3      1 ZINC000207704741    0.4500
29     F29    -3.2850   -4.9860   -1.2916 F        1 ZINC000207704741   -0.1800
30     F30    -1.4564   -3.6644   -1.6504 F        1 ZINC000207704741   -0.1800
31     F31    -1.8945   -4.4642    0.4442 F        1 ZINC000207704741   -0.1800
32     C32    -5.9711   -1.5314   -0.5613 C.2      1 ZINC000207704741    0.5200
33     N33    -7.1226   -2.1213   -0.9390 N.am     1 ZINC000207704741   -0.8500
34     O34    -5.4499   -0.7040   -1.2787 O.2      1 ZINC000207704741   -0.5300
35     N35    -1.0352   -1.9285    4.0970 N.2      1 ZINC000207704741   -0.5000
36     C36    -0.0259   -1.8086    3.3051 C.2      1 ZINC000207704741    0.2900
37     C37     0.9599   -2.9143    3.2791 C.ar     1 ZINC000207704741   -0.0400
38     C38     2.2354   -2.7025    2.7568 C.ar     1 ZINC000207704741   -0.1000
39     C39     3.1504   -3.7354    2.7347 C.ar     1 ZINC000207704741   -0.1000
40     C40     2.8052   -4.9801    3.2287 C.ar     1 ZINC000207704741   -0.1300
41     C41     1.5395   -5.1980    3.7493 C.ar     1 ZINC000207704741    0.0900
42     F42     1.2086   -6.4161    4.2308 F        1 ZINC000207704741   -0.1300
43     C43     0.6175   -4.1691    3.7821 C.ar     1 ZINC000207704741   -0.1000
44     H44     0.8813    3.5379    2.7503 H        1 ZINC000207704741    0.0800
45     H45    -0.3062    3.7070    1.4352 H        1 ZINC000207704741    0.0800
46     H46    -0.8317    3.1527    3.0430 H        1 ZINC000207704741    0.0700
47     H47     0.8867    2.2284   -0.0556 H        1 ZINC000207704741    0.1400
48     H48     1.3022   -0.1008   -0.7436 H        1 ZINC000207704741    0.1400
49     H49     0.8752   -1.9390    0.8201 H        1 ZINC000207704741    0.1400
50     H50    -0.0930    1.7947    4.4843 H        1 ZINC000207704741    0.4200
51     H51    -2.1323   -0.1290    2.2250 H        1 ZINC000207704741    0.4000
52     H52    -5.9554    0.7049    0.5407 H        1 ZINC000207704741    0.1000
53     H53    -6.1500    0.2724    2.2564 H        1 ZINC000207704741    0.0900
54     H54    -4.1350    1.5288    2.8462 H        1 ZINC000207704741    0.1000
55     H55    -3.8070    1.8694    1.1302 H        1 ZINC000207704741    0.1100
56     H56    -3.9683   -3.3882    1.5061 H        1 ZINC000207704741    0.1000
57     H57    -4.9950   -3.9445    0.1627 H        1 ZINC000207704741    0.0900
58     H58    -3.7548   -2.3818   -1.3661 H        1 ZINC000207704741    0.1200
59     H59    -2.6714   -1.9752   -0.0137 H        1 ZINC000207704741    0.1100
60     H60    -7.5777   -2.7282   -0.3345 H        1 ZINC000207704741    0.4100
61     H61    -7.4962   -1.9390   -1.8154 H        1 ZINC000207704741    0.4100
62     H62     2.5068   -1.7314    2.3698 H        1 ZINC000207704741    0.1400
63     H63     4.1383   -3.5715    2.3302 H        1 ZINC000207704741    0.1400
64     H64     3.5246   -5.7854    3.2085 H        1 ZINC000207704741    0.1400
65     H65    -0.3689   -4.3390    4.1877 H        1 ZINC000207704741    0.1500
@<TRIPOS>BOND
1     1     2     1
2     1     44    1
3     1     45    1
4     1     46    1
5     2     7     ar
6     2     3     ar
7     3     4     ar
8     3     47    1
9     4     5     ar
10    4     48    1
11    5     6     ar
12    5     49    1
13    6     36    1
14    6     7     ar
15    7     8     1
16    8     9     am
17    8     50    1
18    9     10    2
19    9     11    1
20    11    12    1
21    11    13    1
22    11    35    1
23    13    14    am
24    13    51    1
25    14    15    2
26    14    16    1
27    16    17    1
28    16    18    1
29    16    24    1
30    18    19    1
31    18    52    1
32    18    53    1
33    19    20    1
34    19    54    1
35    19    55    1
36    20    21    1
37    20    22    1
38    20    23    1
39    24    25    1
40    24    26    1
41    24    32    1
42    26    27    1
43    26    56    1
44    26    57    1
45    27    28    1
46    27    58    1
47    27    59    1
48    28    29    1
49    28    30    1
50    28    31    1
51    32    33    am
52    32    34    2
53    33    60    1
54    33    61    1
55    35    36    2
56    36    37    1
57    37    43    ar
58    37    38    ar
59    38    39    ar
60    38    62    1
61    39    40    ar
62    39    63    1
63    40    41    ar
64    40    64    1
65    41    42    1
66    41    43    ar
67    43    65    1
@<TRIPOS>SUBSTRUCTURE
1   ZINC000207704741 1     RESIDUE    1   A     ZIN   1
