@<TRIPOS>MOLECULE
ZINC000000005719
54    56    1     0     0
SMALL
USER_CHARGES
@<TRIPOS>ATOM
1      N1     -0.2388    1.5898    0.3078 N.pl3    1 ZINC000000005719   -0.7600
2      C2     -0.2286    0.2749    0.0901 C.cat    1 ZINC000000005719    0.6000
3      N3      0.9197   -0.3480   -0.1736 N.pl3    1 ZINC000000005719   -0.7600
4      H4      1.7481    0.1556   -0.2071 H        1 ZINC000000005719    0.4400
5      H5      0.9271   -1.3049   -0.3321 H        1 ZINC000000005719    0.4500
6      C6     -1.4898   -0.4917    0.1410 C.ar     1 ZINC000000005719   -0.1700
7      C7     -2.5323   -0.0699    0.9702 C.ar     1 ZINC000000005719   -0.0300
8      C8     -3.7068   -0.7862    1.0153 C.ar     1 ZINC000000005719   -0.1300
9      C9     -3.8564   -1.9299    0.2362 C.ar     1 ZINC000000005719    0.1600
10     N10    -5.0444   -2.6520    0.2842 N.3      1 ZINC000000005719   -0.4900
11     C11    -5.3541   -3.0657    1.6601 C.3      1 ZINC000000005719    0.0300
12     C12    -6.6946   -3.8036    1.6782 C.3      1 ZINC000000005719   -0.0100
13     N13    -6.6186   -4.9790    0.8006 N.4      1 ZINC000000005719   -0.3800
14     H14    -5.8827   -5.5905    1.1208 H        1 ZINC000000005719    0.4200
15     C15    -7.8998   -5.6969    0.8320 C.3      1 ZINC000000005719    0.0100
16     C16    -7.8192   -6.9283   -0.0748 C.3      1 ZINC000000005719   -0.1600
17     C17    -9.1283   -7.7144    0.0241 C.3      1 ZINC000000005719    0.0000
18     N18    -9.3438   -8.1403    1.4122 N.4      1 ZINC000000005719   -0.3600
19     H19    -8.5535   -8.6856    1.7221 H        1 ZINC000000005719    0.4300
20     C20   -10.5615   -8.9585    1.4883 C.3      1 ZINC000000005719   -0.0900
21     C21   -10.3521  -10.2427    0.7279 C.2      1 ZINC000000005719    0.4800
22     O22    -9.2524  -10.5103    0.2745 O.co2    1 ZINC000000005719   -0.6800
23     O23   -11.2824  -11.0140    0.5661 O.co2    1 ZINC000000005719   -0.6200
24     C24    -9.4938   -6.9636    2.2767 C.3      1 ZINC000000005719   -0.0100
25     C25    -8.1987   -6.1486    2.2644 C.3      1 ZINC000000005719   -0.1700
26     C26    -6.3331   -4.5480   -0.5743 C.3      1 ZINC000000005719   -0.0100
27     C27    -4.9896   -3.8163   -0.6111 C.3      1 ZINC000000005719    0.0200
28     C28    -2.8198   -2.3522   -0.5910 C.ar     1 ZINC000000005719   -0.1700
29     C29    -1.6450   -1.6369   -0.6442 C.ar     1 ZINC000000005719   -0.0300
30     H30     0.5896    2.0933    0.2744 H        1 ZINC000000005719    0.4400
31     H31    -1.0751    2.0438    0.4958 H        1 ZINC000000005719    0.4500
32     H32    -2.4165    0.8170    1.5754 H        1 ZINC000000005719    0.1500
33     H33    -4.5130   -0.4606    1.6560 H        1 ZINC000000005719    0.1500
34     H34    -4.5695   -3.7279    2.0261 H        1 ZINC000000005719    0.0800
35     H35    -5.4151   -2.1851    2.2996 H        1 ZINC000000005719    0.1400
36     H36    -6.9194   -4.1237    2.6956 H        1 ZINC000000005719    0.1500
37     H37    -7.4812   -3.1367    1.3250 H        1 ZINC000000005719    0.1500
38     H38    -8.6954   -5.0380    0.4841 H        1 ZINC000000005719    0.1600
39     H39    -7.6619   -6.6114   -1.1058 H        1 ZINC000000005719    0.1300
40     H40    -6.9901   -7.5606    0.2428 H        1 ZINC000000005719    0.1100
41     H41    -9.9567   -7.0813   -0.2940 H        1 ZINC000000005719    0.1300
42     H42    -9.0744   -8.5917   -0.6205 H        1 ZINC000000005719    0.1700
43     H43   -10.7820   -9.1857    2.5313 H        1 ZINC000000005719    0.1300
44     H44   -11.3959   -8.4097    1.0517 H        1 ZINC000000005719    0.1300
45     H45   -10.3143   -6.3465    1.9106 H        1 ZINC000000005719    0.1300
46     H46    -9.7096   -7.2866    3.2951 H        1 ZINC000000005719    0.1500
47     H47    -7.3775   -6.7647    2.6306 H        1 ZINC000000005719    0.1100
48     H48    -8.3127   -5.2744    2.9055 H        1 ZINC000000005719    0.1300
49     H49    -6.2898   -5.4200   -1.2268 H        1 ZINC000000005719    0.1500
50     H50    -7.1215   -3.8774   -0.9159 H        1 ZINC000000005719    0.1500
51     H51    -4.7845   -3.4834   -1.6285 H        1 ZINC000000005719    0.1400
52     H52    -4.1990   -4.4909   -0.2825 H        1 ZINC000000005719    0.0800
53     H53    -2.9386   -3.2400   -1.1944 H        1 ZINC000000005719    0.1500
54     H54    -0.8411   -1.9649   -1.2865 H        1 ZINC000000005719    0.1500
@<TRIPOS>BOND
1     1     2     ar
2     1     30    1
3     1     31    1
4     2     3     ar
5     2     6     1
6     3     4     1
7     3     5     1
8     6     29    ar
9     6     7     ar
10    7     8     ar
11    7     32    1
12    8     9     ar
13    8     33    1
14    9     10    1
15    9     28    ar
16    10    27    1
17    10    11    1
18    11    12    1
19    11    34    1
20    11    35    1
21    12    13    1
22    12    36    1
23    12    37    1
24    13    14    1
25    13    15    1
26    13    26    1
27    15    25    1
28    15    16    1
29    15    38    1
30    16    17    1
31    16    39    1
32    16    40    1
33    17    18    1
34    17    41    1
35    17    42    1
36    18    19    1
37    18    20    1
38    18    24    1
39    20    21    1
40    20    43    1
41    20    44    1
42    21    22    ar
43    21    23    ar
44    24    25    1
45    24    45    1
46    24    46    1
47    25    47    1
48    25    48    1
49    26    27    1
50    26    49    1
51    26    50    1
52    27    51    1
53    27    52    1
54    28    29    ar
55    28    53    1
56    29    54    1
@<TRIPOS>SUBSTRUCTURE
1   ZINC000000005719 1     RESIDUE    1   A     ZIN   1
