@<TRIPOS>MOLECULE
ZINC000043152059
54    58    1     0     0
SMALL
USER_CHARGES
@<TRIPOS>ATOM
1      N1     -0.1140    1.4051   -0.7784 N.am     1 ZINC000043152059   -1.2500
2      S2     -0.0112   -0.0500    0.0056 S.o2     1 ZINC000043152059    2.7100
3      O3     -0.3405    0.2023    1.3646 O.2      1 ZINC000043152059   -0.9600
4      O4     -0.7071   -0.9904   -0.8011 O.2      1 ZINC000043152059   -0.9600
5      C5      1.6827   -0.5346   -0.0143 C.ar     1 ZINC000043152059   -0.6900
6      C6      2.1714   -1.2912   -1.0631 C.ar     1 ZINC000043152059    0.0100
7      C7      3.4990   -1.6731   -1.0822 C.ar     1 ZINC000043152059   -0.1400
8      C8      4.3433   -1.2961   -0.0469 C.ar     1 ZINC000043152059    0.2200
9      N9      5.6890   -1.6810   -0.0636 N.am     1 ZINC000043152059   -0.6600
10     C10     6.2963   -1.9575   -1.2346 C.2      1 ZINC000043152059    0.5400
11     O11     5.7086   -1.7767   -2.2801 O.2      1 ZINC000043152059   -0.4900
12     C12     7.7056   -2.4912   -1.2449 C.3      1 ZINC000043152059   -0.1600
13     S13     8.2364   -2.7601   -2.9543 S.3      1 ZINC000043152059    0.1200
14     C14     9.8674   -3.3662   -2.6765 C.2      1 ZINC000043152059    0.1600
15     N15    10.4460   -3.5450   -1.5120 N.2      1 ZINC000043152059   -0.2800
16     N16    11.6362   -3.9999   -1.6790 N.2      1 ZINC000043152059   -0.2300
17     C17    11.8898   -4.1389   -2.9504 C.2      1 ZINC000043152059    0.1800
18     Br18   13.5012   -4.7739   -3.7094 Br       1 ZINC000043152059    0.1000
19     N19    10.7693   -3.7456   -3.6341 N.pl3    1 ZINC000043152059   -0.3900
20     C20    10.5880   -3.7268   -5.0220 C.ar     1 ZINC000043152059    0.0800
21     C21    10.9255   -2.5783   -5.7680 C.ar     1 ZINC000043152059   -0.0200
22     C22    11.4481   -1.4332   -5.1463 C.ar     1 ZINC000043152059   -0.1100
23     C23    11.7631   -0.3427   -5.8980 C.ar     1 ZINC000043152059   -0.0900
24     C24    11.5745   -0.3448   -7.2787 C.ar     1 ZINC000043152059   -0.1100
25     C25    11.0697   -1.4368   -7.9151 C.ar     1 ZINC000043152059   -0.0900
26     C26    10.7334   -2.5815   -7.1717 C.ar     1 ZINC000043152059   -0.0400
27     C27    10.2106   -3.7268   -7.7956 C.ar     1 ZINC000043152059    0.0000
28     C28    10.0009   -3.7435   -9.2879 C.3      1 ZINC000043152059   -0.1300
29     C29     9.6223   -5.0782   -9.9331 C.3      1 ZINC000043152059   -0.1700
30     C30     8.5765   -3.9695   -9.7986 C.3      1 ZINC000043152059   -0.1600
31     C31     9.8939   -4.8216   -7.0507 C.ar     1 ZINC000043152059   -0.1300
32     C32    10.0837   -4.8317   -5.6718 C.ar     1 ZINC000043152059   -0.0600
33     C33     3.8496   -0.5350    1.0062 C.ar     1 ZINC000043152059   -0.0900
34     Cl34    4.9011   -0.0601    2.3033 Cl       1 ZINC000043152059   -0.0500
35     C35     2.5218   -0.1524    1.0166 C.ar     1 ZINC000043152059    0.0200
36     H36     0.6852    1.8181   -1.1411 H        1 ZINC000043152059    0.4200
37     H37    -0.9741    1.8424   -0.8783 H        1 ZINC000043152059    0.4200
38     H38     1.5143   -1.5845   -1.8685 H        1 ZINC000043152059    0.1600
39     H39     3.8795   -2.2647   -1.9017 H        1 ZINC000043152059    0.1700
40     H40     6.1844   -1.7489    0.7676 H        1 ZINC000043152059    0.4200
41     H41     8.3702   -1.7714   -0.7670 H        1 ZINC000043152059    0.1400
42     H42     7.7407   -3.4350   -0.7008 H        1 ZINC000043152059    0.1400
43     H43    11.5993   -1.4174   -4.0770 H        1 ZINC000043152059    0.1200
44     H44    12.1647    0.5370   -5.4171 H        1 ZINC000043152059    0.1300
45     H45    11.8324    0.5333   -7.8522 H        1 ZINC000043152059    0.1300
46     H46    10.9283   -1.4239   -8.9857 H        1 ZINC000043152059    0.1400
47     H47    10.6399   -3.0709   -9.8599 H        1 ZINC000043152059    0.1200
48     H48    10.0124   -5.2838  -10.9299 H        1 ZINC000043152059    0.1000
49     H49     9.5249   -5.9441   -9.2783 H        1 ZINC000043152059    0.1000
50     H50     7.7910   -4.1061   -9.0553 H        1 ZINC000043152059    0.1000
51     H51     8.2785   -3.4458  -10.7070 H        1 ZINC000043152059    0.1000
52     H52     9.4925   -5.6978   -7.5381 H        1 ZINC000043152059    0.1400
53     H53     9.8247   -5.7130   -5.1038 H        1 ZINC000043152059    0.1300
54     H54     2.1370    0.4390    1.8343 H        1 ZINC000043152059    0.1600
@<TRIPOS>BOND
1     1     2     am
2     1     36    1
3     1     37    1
4     2     3     2
5     2     4     2
6     2     5     1
7     5     35    ar
8     5     6     ar
9     6     7     ar
10    6     38    1
11    7     8     ar
12    7     39    1
13    8     9     1
14    8     33    ar
15    9     10    am
16    9     40    1
17    10    11    2
18    10    12    1
19    12    13    1
20    12    41    1
21    12    42    1
22    13    14    1
23    14    19    1
24    14    15    2
25    15    16    1
26    16    17    2
27    17    18    1
28    17    19    1
29    19    20    1
30    20    32    ar
31    20    21    ar
32    21    26    ar
33    21    22    ar
34    22    23    ar
35    22    43    1
36    23    24    ar
37    23    44    1
38    24    25    ar
39    24    45    1
40    25    26    ar
41    25    46    1
42    26    27    ar
43    27    28    1
44    27    31    ar
45    28    30    1
46    28    29    1
47    28    47    1
48    29    30    1
49    29    48    1
50    29    49    1
51    30    50    1
52    30    51    1
53    31    32    ar
54    31    52    1
55    32    53    1
56    33    34    1
57    33    35    ar
58    35    54    1
@<TRIPOS>SUBSTRUCTURE
1   ZINC000043152059 1     RESIDUE    1   A     ZIN   1
