@<TRIPOS>MOLECULE
ZINC000113208009
37    38    1     0     0
SMALL
USER_CHARGES
@<TRIPOS>ATOM
1      N1     -0.1330   -1.1979   -0.1296 N.am     1 ZINC000113208009   -1.2600
2      S2     -0.0492   -2.7092    0.5423 S.o2     1 ZINC000113208009    2.8100
3      O3     -0.5728   -2.5929    1.8582 O.2      1 ZINC000113208009   -0.9800
4      O4     -0.5725   -3.6082   -0.4258 O.2      1 ZINC000113208009   -0.9800
5      N5      1.5553   -3.0833    0.7088 N.am     1 ZINC000113208009   -1.1200
6      C6      2.3975   -2.3070    1.6222 C.3      1 ZINC000113208009    0.1000
7      C7      3.7035   -3.0621    1.8778 C.3      1 ZINC000113208009    0.1300
8      N8      4.5457   -2.2857    2.7911 N.pl3    1 ZINC000113208009   -0.6900
9      C9      5.7893   -2.7727    3.1720 C.2      1 ZINC000113208009    0.2900
10     N10     6.3767   -3.8917    2.8177 N.2      1 ZINC000113208009   -0.4300
11     O11     7.4560   -3.9681    3.3558 O.3      1 ZINC000113208009    0.2900
12     N12     7.7591   -3.0448    4.0743 N.2      1 ZINC000113208009   -0.3400
13     C13     6.7888   -2.1565    4.0752 C.2      1 ZINC000113208009    0.0600
14     C14     6.7112   -0.8693    4.8032 C.2      1 ZINC000113208009    0.2000
15     N15     5.6182   -0.1656    4.7652 N.2      1 ZINC000113208009   -0.3000
16     O16     5.5790    1.1145    5.3692 O.3      1 ZINC000113208009   -0.5900
17     N17     7.8031   -0.4147    5.5250 N.pl3    1 ZINC000113208009   -0.6600
18     C18     9.0966   -0.7892    5.1467 C.ar     1 ZINC000113208009    0.2200
19     C19     9.3546   -1.1717    3.8369 C.ar     1 ZINC000113208009   -0.1100
20     C20    10.6328   -1.5409    3.4649 C.ar     1 ZINC000113208009   -0.1000
21     C21    11.6566   -1.5297    4.3966 C.ar     1 ZINC000113208009    0.0600
22     F22    12.9059   -1.8907    4.0304 F        1 ZINC000113208009   -0.1400
23     C23    11.4018   -1.1484    5.7043 C.ar     1 ZINC000113208009   -0.0800
24     Br24   12.8026   -1.1342    6.9746 Br       1 ZINC000113208009   -0.0500
25     C25    10.1259   -0.7734    6.0792 C.ar     1 ZINC000113208009   -0.1400
26     H26     0.6815   -0.7164   -0.3435 H        1 ZINC000113208009    0.4200
27     H27    -0.9965   -0.7958   -0.3129 H        1 ZINC000113208009    0.4200
28     H28     1.9375   -3.8165    0.2016 H        1 ZINC000113208009    0.4200
29     H29     2.6197   -1.3376    1.1761 H        1 ZINC000113208009    0.0800
30     H30     1.8717   -2.1609    2.5657 H        1 ZINC000113208009    0.0900
31     H31     3.4813   -4.0315    2.3238 H        1 ZINC000113208009    0.0700
32     H32     4.2293   -3.2082    0.9343 H        1 ZINC000113208009    0.0700
33     H33     4.2347   -1.4316    3.1298 H        1 ZINC000113208009    0.4300
34     H34     7.6704    0.1633    6.2926 H        1 ZINC000113208009    0.4100
35     H35     8.5563   -1.1810    3.1095 H        1 ZINC000113208009    0.1200
36     H36    10.8335   -1.8387    2.4464 H        1 ZINC000113208009    0.1400
37     H37     9.9275   -0.4759    7.0983 H        1 ZINC000113208009    0.1400
@<TRIPOS>BOND
1     1     2     am
2     1     26    1
3     1     27    1
4     2     3     2
5     2     4     2
6     2     5     am
7     5     6     1
8     5     28    1
9     6     7     1
10    6     29    1
11    6     30    1
12    7     8     1
13    7     31    1
14    7     32    1
15    8     9     1
16    8     33    1
17    9     13    1
18    9     10    2
19    10    11    1
20    11    12    1
21    12    13    2
22    13    14    1
23    14    15    2
24    14    17    1
25    15    16    1
26    17    18    1
27    17    34    1
28    18    25    ar
29    18    19    ar
30    19    20    ar
31    19    35    1
32    20    21    ar
33    20    36    1
34    21    22    1
35    21    23    ar
36    23    24    1
37    23    25    ar
38    25    37    1
@<TRIPOS>SUBSTRUCTURE
1   ZINC000113208009 1     RESIDUE    1   A     ZIN   1
