@<TRIPOS>MOLECULE
ZINC000011687637
36    39    1     0     0
SMALL
USER_CHARGES
@<TRIPOS>ATOM
1      Cl1     0.8131   -0.3499   -0.0258 Cl       1 ZINC000011687637   -0.0500
2      C2      0.5061    1.3544   -0.1472 C.ar     1 ZINC000011687637   -0.0400
3      C3     -0.7824    1.8121   -0.3565 C.ar     1 ZINC000011687637   -0.0800
4      C4     -1.0262    3.1694   -0.4531 C.ar     1 ZINC000011687637   -0.1000
5      C5      0.0171    4.0690   -0.3406 C.ar     1 ZINC000011687637   -0.0900
6      C6      1.3051    3.6121   -0.1313 C.ar     1 ZINC000011687637   -0.1200
7      C7      2.4421    4.5936   -0.0088 C.3      1 ZINC000011687637    0.2400
8      H8      2.0454    5.6087    0.0086 H        1 ZINC000011687637    0.1500
9      C9      3.1994    4.3283    1.2668 C.ar     1 ZINC000011687637   -0.1200
10     C10     4.5784    4.4782    1.2931 C.ar     1 ZINC000011687637   -0.1200
11     C11     5.2833    4.2429    2.4398 C.ar     1 ZINC000011687637   -0.0500
12     C12     4.6132    3.8472    3.6000 C.ar     1 ZINC000011687637    0.0700
13     N13     5.0201    3.5467    4.8601 N.2      1 ZINC000011687637   -0.5000
14     C14     3.9898    3.2288    5.5883 C.2      1 ZINC000011687637    0.2900
15     N15     2.8519    3.3033    4.8465 N.pl3    1 ZINC000011687637   -0.6000
16     C16     3.2163    3.6952    3.5739 C.ar     1 ZINC000011687637    0.0500
17     C17     2.5165    3.9437    2.4013 C.ar     1 ZINC000011687637   -0.0600
18     N18     3.3442    4.4413   -1.1530 N.pl3    1 ZINC000011687637   -0.4000
19     C19     4.0251    3.3073   -1.5052 C.2      1 ZINC000011687637    0.0300
20     C20     4.7317    3.6051   -2.6122 C.2      1 ZINC000011687637    0.0100
21     N21     4.4889    4.8860   -2.9274 N.pl3    1 ZINC000011687637   -0.4700
22     H22     4.8702    5.3605   -3.6827 H        1 ZINC000011687637    0.4700
23     C23     3.6547    5.3918   -2.0606 C.cat    1 ZINC000011687637    0.2900
24     C24     1.5493    2.2558   -0.0288 C.ar     1 ZINC000011687637   -0.0900
25     H25    -1.5976    1.1093   -0.4448 H        1 ZINC000011687637    0.1400
26     H26    -2.0321    3.5269   -0.6169 H        1 ZINC000011687637    0.1500
27     H27    -0.1739    5.1293   -0.4165 H        1 ZINC000011687637    0.1400
28     H28     5.1001    4.7836    0.3981 H        1 ZINC000011687637    0.1200
29     H29     6.3566    4.3623    2.4491 H        1 ZINC000011687637    0.1400
30     H30     4.0319    2.9466    6.6299 H        1 ZINC000011687637    0.2300
31     H31     1.9515    3.1154    5.1546 H        1 ZINC000011687637    0.4300
32     H32     1.4423    3.8343    2.3770 H        1 ZINC000011687637    0.1300
33     H33     4.0006    2.3566   -0.9934 H        1 ZINC000011687637    0.2200
34     H34     5.3802    2.9308   -3.1517 H        1 ZINC000011687637    0.2200
35     H35     3.2800    6.4047   -2.0646 H        1 ZINC000011687637    0.2600
36     H36     2.5554    1.8990    0.1350 H        1 ZINC000011687637    0.1300
@<TRIPOS>BOND
1     1     2     1
2     2     24    ar
3     2     3     ar
4     3     4     ar
5     3     25    1
6     4     5     ar
7     4     26    1
8     5     6     ar
9     5     27    1
10    6     7     1
11    6     24    ar
12    7     8     1
13    7     9     1
14    7     18    1
15    9     17    ar
16    9     10    ar
17    10    11    ar
18    10    28    1
19    11    12    ar
20    11    29    1
21    12    16    ar
22    12    13    1
23    13    14    2
24    14    15    1
25    14    30    1
26    15    16    1
27    15    31    1
28    16    17    ar
29    17    32    1
30    18    23    ar
31    18    19    1
32    19    20    2
33    19    33    1
34    20    21    1
35    20    34    1
36    21    22    1
37    21    23    ar
38    23    35    1
39    24    36    1
@<TRIPOS>SUBSTRUCTURE
1   ZINC000011687637 1     RESIDUE    1   A     ZIN   1
