@<TRIPOS>MOLECULE
ZINC000000001996
40    42    1     0     0
SMALL
USER_CHARGES
@<TRIPOS>ATOM
1      C1     -5.5764    1.3167    0.9614 C.3      1 ZINC000000001996   -0.0500
2      N2     -5.5838   -0.1315    0.7153 N.4      1 ZINC000000001996   -0.3900
3      H3     -5.8984   -0.6120    1.5449 H        1 ZINC000000001996    0.4300
4      C4     -6.4912   -0.4341   -0.3997 C.3      1 ZINC000000001996   -0.0500
5      C5     -4.2258   -0.5775    0.3763 C.3      1 ZINC000000001996   -0.0100
6      C6     -4.2082   -2.1016    0.2423 C.3      1 ZINC000000001996   -0.1700
7      C7     -2.7938   -2.5661   -0.1108 C.3      1 ZINC000000001996    0.1300
8      N8     -2.7769   -4.0254   -0.2392 N.pl3    1 ZINC000000001996   -0.5500
9      C9     -2.9200   -4.5643   -1.5154 C.ar     1 ZINC000000001996    0.1800
10     C10    -3.5663   -3.8124   -2.4908 C.ar     1 ZINC000000001996   -0.1600
11     C11    -3.7213   -4.3128   -3.7698 C.ar     1 ZINC000000001996   -0.0800
12     C12    -3.2343   -5.5659   -4.0894 C.ar     1 ZINC000000001996   -0.1300
13     C13    -2.5923   -6.3229   -3.1268 C.ar     1 ZINC000000001996   -0.0500
14     C14    -2.4347   -5.8279   -1.8396 C.ar     1 ZINC000000001996   -0.1500
15     S15    -1.6236   -6.8148   -0.6277 S.3      1 ZINC000000001996    0.0500
16     C16    -2.0973   -6.0634    0.8908 C.ar     1 ZINC000000001996   -0.2000
17     C17    -1.9499   -6.7668    2.0791 C.ar     1 ZINC000000001996   -0.0200
18     C18    -2.3330   -6.1531    3.2653 C.ar     1 ZINC000000001996   -0.1800
19     C19    -2.8447   -4.8731    3.2220 C.ar     1 ZINC000000001996    0.1400
20     N20    -2.9731   -4.2287    2.0781 N.ar     1 ZINC000000001996   -0.5200
21     C21    -2.6141   -4.7717    0.9175 C.ar     1 ZINC000000001996    0.3900
22     H22    -6.5840    1.6477    1.2129 H        1 ZINC000000001996    0.1200
23     H23    -4.9031    1.5412    1.7887 H        1 ZINC000000001996    0.1200
24     H24    -5.2365    1.8358    0.0652 H        1 ZINC000000001996    0.1200
25     H25    -6.1513    0.0850   -1.2958 H        1 ZINC000000001996    0.1200
26     H26    -6.4967   -1.5086   -0.5823 H        1 ZINC000000001996    0.1200
27     H27    -7.4988   -0.1031   -0.1482 H        1 ZINC000000001996    0.1300
28     H28    -3.9201   -0.1262   -0.5676 H        1 ZINC000000001996    0.1300
29     H29    -3.5365   -0.2741    1.1643 H        1 ZINC000000001996    0.1300
30     H30    -4.5139   -2.5529    1.1862 H        1 ZINC000000001996    0.1100
31     H31    -4.8976   -2.4050   -0.5457 H        1 ZINC000000001996    0.0900
32     H32    -2.4881   -2.1148   -1.0547 H        1 ZINC000000001996    0.0900
33     H33    -2.1045   -2.2627    0.6772 H        1 ZINC000000001996    0.0900
34     H34    -3.9494   -2.8324   -2.2473 H        1 ZINC000000001996    0.1300
35     H35    -4.2249   -3.7230   -4.5215 H        1 ZINC000000001996    0.1300
36     H36    -3.3553   -5.9537   -5.0901 H        1 ZINC000000001996    0.1400
37     H37    -2.2124   -7.3024   -3.3772 H        1 ZINC000000001996    0.1400
38     H38    -1.5468   -7.7687    2.0812 H        1 ZINC000000001996    0.1500
39     H39    -2.2320   -6.6711    4.2075 H        1 ZINC000000001996    0.1500
40     H40    -3.1456   -4.3903    4.1401 H        1 ZINC000000001996    0.1700
@<TRIPOS>BOND
1     1     2     1
2     1     22    1
3     1     23    1
4     1     24    1
5     2     3     1
6     2     4     1
7     2     5     1
8     4     25    1
9     4     26    1
10    4     27    1
11    5     6     1
12    5     28    1
13    5     29    1
14    6     7     1
15    6     30    1
16    6     31    1
17    7     8     1
18    7     32    1
19    7     33    1
20    8     21    1
21    8     9     1
22    9     14    ar
23    9     10    ar
24    10    11    ar
25    10    34    1
26    11    12    ar
27    11    35    1
28    12    13    ar
29    12    36    1
30    13    14    ar
31    13    37    1
32    14    15    1
33    15    16    1
34    16    21    ar
35    16    17    ar
36    17    18    ar
37    17    38    1
38    18    19    ar
39    18    39    1
40    19    20    ar
41    19    40    1
42    20    21    ar
@<TRIPOS>SUBSTRUCTURE
1   ZINC000000001996 1     RESIDUE    1   A     ZIN   1
