@<TRIPOS>MOLECULE
ZINC000001550769
51    52    1     0     0
SMALL
USER_CHARGES
@<TRIPOS>ATOM
1      C1     -0.0187    1.5258    0.0104 C.3      1 ZINC000001550769   -0.1400
2      C2      0.0021   -0.0041    0.0020 C.3      1 ZINC000001550769    0.0700
3      O3     -1.3386   -0.4987    0.0122 O.3      1 ZINC000001550769   -0.3700
4      C4     -1.4321   -1.9246    0.0054 C.3      1 ZINC000001550769    0.0300
5      H5     -0.5629   -2.3481    0.5087 H        1 ZINC000001550769    0.0500
6      C6     -2.7050   -2.3557    0.7365 C.3      1 ZINC000001550769   -0.0600
7      C7     -2.6049   -1.9696    2.1898 C.ar     1 ZINC000001550769   -0.1000
8      C8     -2.0529   -2.8505    3.1014 C.ar     1 ZINC000001550769   -0.0800
9      C9     -1.9599   -2.4990    4.4342 C.ar     1 ZINC000001550769   -0.1500
10     C10    -2.4206   -1.2607    4.8575 C.ar     1 ZINC000001550769    0.1100
11     O11    -2.3298   -0.9124    6.1679 O.3      1 ZINC000001550769   -0.3200
12     C12    -2.8241    0.3780    6.5319 C.3      1 ZINC000001550769    0.0600
13     C13    -2.6382    0.5898    8.0358 C.3      1 ZINC000001550769   -0.0800
14     C14    -3.1594    1.9507    8.4196 C.ar     1 ZINC000001550769   -0.0600
15     C15    -2.3165    3.0463    8.3896 C.ar     1 ZINC000001550769   -0.0900
16     C16    -2.7919    4.2948    8.7411 C.ar     1 ZINC000001550769   -0.0800
17     C17    -4.1165    4.4489    9.1239 C.ar     1 ZINC000001550769    0.0600
18     O18    -4.5866    5.6762    9.4696 O.3      1 ZINC000001550769   -0.6600
19     S19    -5.1557    6.4721    8.3038 S.o2     1 ZINC000001550769    2.6000
20     C20    -6.7604    5.6963    7.9665 C.3      1 ZINC000001550769   -0.7000
21     O21    -5.3348    7.7810    8.8273 O.2      1 ZINC000001550769   -0.9300
22     O22    -4.2495    6.2275    7.2369 O.2      1 ZINC000001550769   -0.9500
23     C23    -4.9603    3.3481    9.1527 C.ar     1 ZINC000001550769   -0.1300
24     C24    -4.4813    2.1025    8.7957 C.ar     1 ZINC000001550769   -0.1000
25     C25    -2.9736   -0.3785    3.9407 C.ar     1 ZINC000001550769   -0.2100
26     C26    -3.0599   -0.7329    2.6083 C.ar     1 ZINC000001550769   -0.0600
27     C27    -1.4785   -2.4182   -1.4177 C.2      1 ZINC000001550769    0.4800
28     O28    -1.4670   -3.6154   -1.6484 O.co2    1 ZINC000001550769   -0.7000
29     O29    -1.5276   -1.6204   -2.3384 O.co2    1 ZINC000001550769   -0.6800
30     H30     1.0039    1.9031    0.0027 H        1 ZINC000001550769    0.0600
31     H31    -0.5459    1.8868   -0.8726 H        1 ZINC000001550769    0.0600
32     H32    -0.5289    1.8773    0.9072 H        1 ZINC000001550769    0.0500
33     H33     0.5123   -0.3556   -0.8948 H        1 ZINC000001550769    0.0500
34     H34     0.5293   -0.3651    0.8851 H        1 ZINC000001550769    0.0300
35     H35    -3.5668   -1.8615    0.2879 H        1 ZINC000001550769    0.0700
36     H36    -2.8227   -3.4363    0.6549 H        1 ZINC000001550769    0.0900
37     H37    -1.6945   -3.8144    2.7714 H        1 ZINC000001550769    0.1300
38     H38    -1.5294   -3.1877    5.1460 H        1 ZINC000001550769    0.1300
39     H39    -2.2743    1.1449    5.9863 H        1 ZINC000001550769    0.0700
40     H40    -3.8834    0.4446    6.2839 H        1 ZINC000001550769    0.0600
41     H41    -3.1880   -0.1771    8.5814 H        1 ZINC000001550769    0.0900
42     H42    -1.5789    0.5232    8.2838 H        1 ZINC000001550769    0.0900
43     H43    -1.2855    2.9258    8.0916 H        1 ZINC000001550769    0.1400
44     H44    -2.1329    5.1502    8.7182 H        1 ZINC000001550769    0.1400
45     H45    -7.3910    5.7657    8.8529 H        1 ZINC000001550769    0.1300
46     H46    -7.2444    6.2091    7.1353 H        1 ZINC000001550769    0.1400
47     H47    -6.6101    4.6480    7.7087 H        1 ZINC000001550769    0.1300
48     H48    -5.9917    3.4655    9.4507 H        1 ZINC000001550769    0.1400
49     H49    -5.1379    1.2453    8.8177 H        1 ZINC000001550769    0.1400
50     H50    -3.3331    0.5859    4.2678 H        1 ZINC000001550769    0.1200
51     H51    -3.4899   -0.0463    1.8941 H        1 ZINC000001550769    0.1300
@<TRIPOS>BOND
1     1     2     1
2     1     30    1
3     1     31    1
4     1     32    1
5     2     3     1
6     2     33    1
7     2     34    1
8     3     4     1
9     4     5     1
10    4     6     1
11    4     27    1
12    6     7     1
13    6     35    1
14    6     36    1
15    7     26    ar
16    7     8     ar
17    8     9     ar
18    8     37    1
19    9     10    ar
20    9     38    1
21    10    11    1
22    10    25    ar
23    11    12    1
24    12    13    1
25    12    39    1
26    12    40    1
27    13    14    1
28    13    41    1
29    13    42    1
30    14    24    ar
31    14    15    ar
32    15    16    ar
33    15    43    1
34    16    17    ar
35    16    44    1
36    17    18    1
37    17    23    ar
38    18    19    1
39    19    20    1
40    19    21    2
41    19    22    2
42    20    45    1
43    20    46    1
44    20    47    1
45    23    24    ar
46    23    48    1
47    24    49    1
48    25    26    ar
49    25    50    1
50    26    51    1
51    27    28    ar
52    27    29    ar
@<TRIPOS>SUBSTRUCTURE
1   ZINC000001550769 1     RESIDUE    1   A     ZIN   1
