@<TRIPOS>MOLECULE
ZINC000011679877
57    60    1     0     0
SMALL
USER_CHARGES
@<TRIPOS>ATOM
1      F1      0.0021   -0.0041    0.0020 F        1 ZINC000011679877   -0.1700
2      C2     -0.0169    1.3948    0.0097 C.3      1 ZINC000011679877    0.5100
3      F3      1.2956    1.8790   -0.0002 F        1 ZINC000011679877   -0.1800
4      F4     -0.6935    1.8582   -1.1237 F        1 ZINC000011679877   -0.1800
5      C5     -0.7223    1.8808    1.2496 C.ar     1 ZINC000011679877   -0.1800
6      C6     -2.0907    2.0864    1.2272 C.ar     1 ZINC000011679877   -0.0700
7      C7     -2.7432    2.5310    2.3578 C.ar     1 ZINC000011679877   -0.1000
8      C8     -2.0189    2.7736    3.5287 C.ar     1 ZINC000011679877   -0.0300
9      C9     -2.7082    3.2481    4.7404 C.2      1 ZINC000011679877   -0.0700
10     C10    -2.0071    3.4807    5.8665 C.2      1 ZINC000011679877   -0.0600
11     C11    -2.6932    3.9529    7.0723 C.2      1 ZINC000011679877    0.2200
12     N12    -2.1218    4.2201    8.2277 N.2      1 ZINC000011679877   -0.4600
13     C13    -3.0656    4.6255    9.0883 C.2      1 ZINC000011679877   -0.0200
14     C14    -2.8428    5.0310   10.5225 C.3      1 ZINC000011679877    0.1500
15     O15    -4.0908    5.4000   11.1126 O.3      1 ZINC000011679877   -0.3200
16     C16    -4.0659    5.7943   12.4129 C.ar     1 ZINC000011679877    0.1300
17     C17    -2.8640    5.8310   13.1049 C.ar     1 ZINC000011679877   -0.2000
18     C18    -2.8412    6.2327   14.4265 C.ar     1 ZINC000011679877   -0.0800
19     C19    -4.0150    6.5975   15.0597 C.ar     1 ZINC000011679877   -0.1200
20     C20    -3.9873    7.0349   16.5016 C.3      1 ZINC000011679877   -0.0800
21     C21    -3.7788    8.5490   16.5714 C.3      1 ZINC000011679877   -0.1100
22     C22    -3.7507    8.9930   18.0353 C.3      1 ZINC000011679877   -0.1300
23     C23    -3.5422   10.5071   18.1051 C.3      1 ZINC000011679877    0.1100
24     N24    -3.5153   10.9322   19.5068 N.pl3    1 ZINC000011679877   -0.2900
25     C25    -2.5269   11.6392   20.1020 C.2      1 ZINC000011679877   -0.0500
26     C26    -2.9085   11.8106   21.3892 C.2      1 ZINC000011679877   -0.0500
27     N27    -4.0960   11.2081   21.5168 N.2      1 ZINC000011679877   -0.2700
28     N28    -4.4303   10.7022   20.3823 N.2      1 ZINC000011679877   -0.0800
29     C29    -5.2140    6.5623   14.3721 C.ar     1 ZINC000011679877   -0.0800
30     C30    -5.2414    6.1664   13.0489 C.ar     1 ZINC000011679877   -0.1500
31     C31    -4.2485    4.6069    8.4446 C.2      1 ZINC000011679877   -0.0300
32     O32    -4.0130    4.1921    7.1838 O.3      1 ZINC000011679877   -0.1900
33     C33    -0.6368    2.5631    3.5435 C.ar     1 ZINC000011679877   -0.1100
34     C34     0.0008    2.1137    2.4064 C.ar     1 ZINC000011679877   -0.0700
35     H35    -2.6488    1.8985    0.3219 H        1 ZINC000011679877    0.1400
36     H36    -3.8110    2.6917    2.3386 H        1 ZINC000011679877    0.1400
37     H37    -3.7760    3.4094    4.7260 H        1 ZINC000011679877    0.1400
38     H38    -0.9394    3.3194    5.8809 H        1 ZINC000011679877    0.1600
39     H39    -2.4133    4.1947   11.0740 H        1 ZINC000011679877    0.0900
40     H40    -2.1591    5.8792   10.5582 H        1 ZINC000011679877    0.0900
41     H41    -1.9470    5.5454   12.6110 H        1 ZINC000011679877    0.1300
42     H42    -1.9059    6.2614   14.9656 H        1 ZINC000011679877    0.1300
43     H43    -4.9328    6.7759   16.9780 H        1 ZINC000011679877    0.0800
44     H44    -3.1702    6.5314   17.0183 H        1 ZINC000011679877    0.0700
45     H45    -2.8332    8.8079   16.0949 H        1 ZINC000011679877    0.0700
46     H46    -4.5959    9.0524   16.0546 H        1 ZINC000011679877    0.0700
47     H47    -4.6962    8.7340   18.5117 H        1 ZINC000011679877    0.0800
48     H48    -2.9336    8.4895   18.5520 H        1 ZINC000011679877    0.0700
49     H49    -2.5967   10.7660   17.6286 H        1 ZINC000011679877    0.1100
50     H50    -4.3593   11.0106   17.5883 H        1 ZINC000011679877    0.1000
51     H51    -1.6165   11.9947   19.6425 H        1 ZINC000011679877    0.1900
52     H52    -2.3617   12.3311   22.1615 H        1 ZINC000011679877    0.1900
53     H53    -6.1294    6.8481   14.8688 H        1 ZINC000011679877    0.1300
54     H54    -6.1782    6.1390   12.5122 H        1 ZINC000011679877    0.1300
55     H55    -5.2076    4.8780    8.8604 H        1 ZINC000011679877    0.2200
56     H56    -0.0706    2.7484    4.4444 H        1 ZINC000011679877    0.1400
57     H57     1.0684    1.9506    2.4163 H        1 ZINC000011679877    0.1400
@<TRIPOS>BOND
1     1     2     1
2     2     3     1
3     2     4     1
4     2     5     1
5     5     34    ar
6     5     6     ar
7     6     7     ar
8     6     35    1
9     7     8     ar
10    7     36    1
11    8     9     1
12    8     33    ar
13    9     10    2
14    9     37    1
15    10    11    1
16    10    38    1
17    11    32    1
18    11    12    2
19    12    13    1
20    13    14    1
21    13    31    2
22    14    15    1
23    14    39    1
24    14    40    1
25    15    16    1
26    16    30    ar
27    16    17    ar
28    17    18    ar
29    17    41    1
30    18    19    ar
31    18    42    1
32    19    20    1
33    19    29    ar
34    20    21    1
35    20    43    1
36    20    44    1
37    21    22    1
38    21    45    1
39    21    46    1
40    22    23    1
41    22    47    1
42    22    48    1
43    23    24    1
44    23    49    1
45    23    50    1
46    24    28    1
47    24    25    1
48    25    26    2
49    25    51    1
50    26    27    1
51    26    52    1
52    27    28    2
53    29    30    ar
54    29    53    1
55    30    54    1
56    31    32    1
57    31    55    1
58    33    34    ar
59    33    56    1
60    34    57    1
@<TRIPOS>SUBSTRUCTURE
1   ZINC000011679877 1     RESIDUE    1   A     ZIN   1
