@<TRIPOS>MOLECULE
ZINC000003802859
  68   68    0    0    0
SMALL
USER_CHARGES
NO_NAME
@<TRIPOS>ATOM
    1 C1        1.1320     1.5771     0.1875 C.3    1 <0>      -0.1500
    2 C2        1.1488     0.0472     0.1891 C.3    1 <0>      -0.1300
    3 C3        1.6156    -0.4592    -1.1771 C.3    1 <0>      -0.1200
    4 C4        1.6323    -1.9891    -1.1754 C.3    1 <0>      -0.1200
    5 C5        2.0991    -2.4955    -2.5416 C.3    1 <0>      -0.1500
    6 C6        2.1159    -4.0254    -2.5400 C.3    1 <0>       0.1400
    7 H7        1.1338    -4.3992    -2.2502 H      1 <0>       0.1100
    8 O8        3.0959    -4.4900    -1.6096 O.3    1 <0>      -0.5600
    9 C9        2.4566    -4.5256    -3.9201 C.2    1 <0>      -0.1900
   10 C10       3.4633    -5.3466    -4.0893 C.2    1 <0>      -0.1400
   11 C11       3.8040    -5.8467    -5.4694 C.3    1 <0>      -0.0500
   12 H12       3.1248    -5.4198    -6.2074 H      1 <0>       0.0900
   13 C13       5.2728    -5.5046    -5.8227 C.3    1 <0>       0.1100
   14 H14       5.9169    -5.6209    -4.9511 H      1 <0>       0.0700
   15 O15       5.3715    -4.1801    -6.3499 O.3    1 <0>      -0.5600
   16 C16       5.6182    -6.5576    -6.9049 C.3    1 <0>      -0.1900
   17 C17       4.9071    -7.8399    -6.4256 C.3    1 <0>       0.1100
   18 H18       5.6025    -8.4657    -5.8663 H      1 <0>       0.0600
   19 O19       4.3919    -8.5619    -7.5460 O.3    1 <0>      -0.5500
   20 C20       3.7501    -7.3878    -5.5138 C.3    1 <0>      -0.0700
   21 H21       3.8845    -7.7935    -4.5111 H      1 <0>       0.0800
   22 C22       2.4132    -7.8550    -6.0929 C.3    1 <0>      -0.0800
   23 C23       2.3436    -9.3596    -6.0456 C.2    1 <0>      -0.1300
   24 C24       1.3131    -9.9506    -5.4934 C.2    1 <0>      -0.1800
   25 C25       0.1212    -9.1369    -5.0594 C.3    1 <0>      -0.1000
   26 C26      -1.1479    -9.7162    -5.6877 C.3    1 <0>      -0.1000
   27 C27      -2.3580    -8.8901    -5.2470 C.3    1 <0>      -0.1100
   28 C28      -3.6080    -9.4608    -5.8659 C.2    1 <0>       0.4600
   29 O29      -3.5382   -10.4288    -6.5855 O.2    1 <0>      -0.5100
   30 O30      -4.7990    -8.8935    -5.6176 O.3    1 <0>      -0.3600
   31 C31      -5.9602    -9.4963    -6.2473 C.3    1 <0>       0.0800
   32 C32      -6.5405   -10.5704    -5.3250 C.3    1 <0>      -0.1700
   33 C33      -7.0168    -8.4201    -6.5048 C.3    1 <0>      -0.1500
   34 H34       2.1355     1.9512    -0.0152 H      1 <0>       0.0500
   35 H35       0.4491     1.9321    -0.5843 H      1 <0>       0.0500
   36 H36       0.7994     1.9379     1.1608 H      1 <0>       0.0500
   37 H37       1.8317    -0.3079     0.9610 H      1 <0>       0.0600
   38 H38       0.1453    -0.3270     0.3918 H      1 <0>       0.0600
   39 H39       0.9327    -0.1042    -1.9489 H      1 <0>       0.0600
   40 H40       2.6191    -0.0851    -1.3798 H      1 <0>       0.0600
   41 H41       2.3152    -2.3442    -0.4036 H      1 <0>       0.0700
   42 H42       0.6288    -2.3633    -0.9727 H      1 <0>       0.0600
   43 H43       1.4162    -2.1405    -3.3135 H      1 <0>       0.0700
   44 H44       3.1027    -2.1214    -2.7443 H      1 <0>       0.0700
   45 H45       3.9957    -4.1951    -1.8059 H      1 <0>       0.3700
   46 H46       1.8709    -4.2071    -4.7698 H      1 <0>       0.1100
   47 H47       4.0490    -5.6651    -3.2396 H      1 <0>       0.1200
   48 H48       6.2714    -3.9172    -6.5869 H      1 <0>       0.3800
   49 H49       5.2321    -6.2475    -7.8759 H      1 <0>       0.0900
   50 H50       6.6957    -6.7146    -6.9541 H      1 <0>       0.0700
   51 H51       5.0698    -8.8559    -8.1699 H      1 <0>       0.3700
   52 H52       1.5964    -7.4348    -5.5061 H      1 <0>       0.0700
   53 H53       2.3280    -7.5196    -7.1265 H      1 <0>       0.0800
   54 H54       3.1433    -9.9507    -6.4669 H      1 <0>       0.1200
   55 H55       1.3177   -11.0209    -5.3492 H      1 <0>       0.1100
   56 H56       0.0358    -9.1684    -3.9732 H      1 <0>       0.0700
   57 H57       0.2485    -8.1042    -5.3841 H      1 <0>       0.0800
   58 H58      -1.0626    -9.6848    -6.7739 H      1 <0>       0.0700
   59 H59      -1.2753   -10.7489    -5.3630 H      1 <0>       0.0700
   60 H60      -2.4434    -8.9216    -4.1608 H      1 <0>       0.1100
   61 H61      -2.2307    -7.8574    -5.5717 H      1 <0>       0.1100
   62 H62      -5.6658    -9.9502    -7.1935 H      1 <0>       0.0800
   63 H63      -7.4122   -11.0228    -5.7977 H      1 <0>       0.0800
   64 H64      -5.7878   -11.3371    -5.1416 H      1 <0>       0.0600
   65 H65      -6.8349   -10.1164    -4.3788 H      1 <0>       0.0700
   66 H66      -6.6035    -7.6549    -7.1618 H      1 <0>       0.0600
   67 H67      -7.8886    -8.8726    -6.9775 H      1 <0>       0.0800
   68 H68      -7.3112    -7.9662    -5.5586 H      1 <0>       0.0700
@<TRIPOS>BOND
   1    1    2 1
   2    1   34 1
   3    1   35 1
   4    1   36 1
   5    2    3 1
   6    2   37 1
   7    2   38 1
   8    3    4 1
   9    3   39 1
  10    3   40 1
  11    4    5 1
  12    4   41 1
  13    4   42 1
  14    5    6 1
  15    5   43 1
  16    5   44 1
  17    6    7 1
  18    6    8 1
  19    6    9 1
  20    8   45 1
  21    9   10 2
  22    9   46 1
  23   10   11 1
  24   10   47 1
  25   11   12 1
  26   11   20 1
  27   11   13 1
  28   13   14 1
  29   13   15 1
  30   13   16 1
  31   15   48 1
  32   16   17 1
  33   16   49 1
  34   16   50 1
  35   17   18 1
  36   17   19 1
  37   17   20 1
  38   19   51 1
  39   20   21 1
  40   20   22 1
  41   22   23 1
  42   22   52 1
  43   22   53 1
  44   23   24 2
  45   23   54 1
  46   24   25 1
  47   24   55 1
  48   25   26 1
  49   25   56 1
  50   25   57 1
  51   26   27 1
  52   26   58 1
  53   26   59 1
  54   27   28 1
  55   27   60 1
  56   27   61 1
  57   28   29 2
  58   28   30 1
  59   30   31 1
  60   31   32 1
  61   31   33 1
  62   31   62 1
  63   32   63 1
  64   32   64 1
  65   32   65 1
  66   33   66 1
  67   33   67 1
  68   33   68 1
