@<TRIPOS>MOLECULE
ZINC000096209980
62    65    1     0     0
SMALL
USER_CHARGES
@<TRIPOS>ATOM
1      C1     -1.2240    2.5413    1.7292 C.3      1 ZINC000096209980   -0.1200
2      C2      0.2601    2.4931    1.9863 C.ar     1 ZINC000096209980    0.1500
3      N3      0.9801    3.5900    1.8556 N.ar     1 ZINC000096209980   -0.4800
4      C4      2.2813    3.5952    2.0706 C.ar     1 ZINC000096209980    0.1200
5      C5      2.9407    2.4395    2.4434 C.ar     1 ZINC000096209980   -0.1800
6      C6      2.2168    1.2660    2.5909 C.ar     1 ZINC000096209980   -0.0300
7      C7      0.8500    1.3007    2.3618 C.ar     1 ZINC000096209980   -0.1500
8      C8      0.0196    0.0519    2.5095 C.3      1 ZINC000096209980    0.2300
9      H9     -0.9729    0.3165    2.8743 H        1 ZINC000096209980    0.1000
10     C10    -0.0998   -0.6154    1.2029 C.1      1 ZINC000096209980    0.2100
11     N11    -0.1918   -1.1304    0.1946 N.1      1 ZINC000096209980   -0.4000
12     N12     0.6667   -0.8562    3.4659 N.3      1 ZINC000096209980   -0.5300
13     C13     0.0260   -2.1780    3.4529 C.3      1 ZINC000096209980    0.0400
14     C14     0.8373   -3.1438    4.3232 C.3      1 ZINC000096209980    0.1200
15     N15     1.0016   -2.5453    5.6567 N.am     1 ZINC000096209980   -0.6200
16     C16     0.6942   -3.2406    6.7696 C.2      1 ZINC000096209980    0.5200
17     O17     0.2760   -4.3754    6.6795 O.2      1 ZINC000096209980   -0.5200
18     C18     0.8703   -2.6079    8.1260 C.3      1 ZINC000096209980    0.0400
19     N19     0.4694   -3.5631    9.1676 N.3      1 ZINC000096209980   -0.6600
20     C20     0.6280   -2.9794   10.5063 C.3      1 ZINC000096209980    0.1700
21     C21    -0.3099   -3.6639   11.4670 C.ar     1 ZINC000096209980   -0.0900
22     C22    -0.4980   -5.0314   11.3934 C.ar     1 ZINC000096209980   -0.1000
23     C23    -1.3583   -5.6592   12.2746 C.ar     1 ZINC000096209980   -0.1200
24     C24    -2.0301   -4.9196   13.2299 C.ar     1 ZINC000096209980   -0.1200
25     C25    -1.8413   -3.5522   13.3041 C.ar     1 ZINC000096209980   -0.1200
26     C26    -0.9778   -2.9250   12.4256 C.ar     1 ZINC000096209980   -0.1100
27     C27     2.0490   -3.1679   10.9713 C.ar     1 ZINC000096209980   -0.0800
28     C28     2.7103   -4.3533   10.7101 C.ar     1 ZINC000096209980   -0.0800
29     C29     4.0138   -4.5262   11.1366 C.ar     1 ZINC000096209980   -0.1300
30     C30     4.6561   -3.5134   11.8240 C.ar     1 ZINC000096209980   -0.1200
31     C31     3.9952   -2.3276   12.0845 C.ar     1 ZINC000096209980   -0.1200
32     C32     2.6931   -2.1531   11.6542 C.ar     1 ZINC000096209980   -0.1200
33     C33     1.5107   -1.1682    5.7435 C.3      1 ZINC000096209980    0.1100
34     C34     0.6729   -0.2802    4.8172 C.3      1 ZINC000096209980    0.0400
35     H35    -1.7455    2.7832    2.6552 H        1 ZINC000096209980    0.0900
36     H36    -1.4386    3.3047    0.9813 H        1 ZINC000096209980    0.0800
37     H37    -1.5614    1.5709    1.3650 H        1 ZINC000096209980    0.0700
38     H38     2.8379    4.5133    1.9537 H        1 ZINC000096209980    0.1600
39     H39     4.0066    2.4500    2.6174 H        1 ZINC000096209980    0.1400
40     H40     2.7055    0.3477    2.8812 H        1 ZINC000096209980    0.1500
41     H41    -0.9865   -2.0954    3.8480 H        1 ZINC000096209980    0.0500
42     H42    -0.0117   -2.5540    2.4305 H        1 ZINC000096209980    0.0900
43     H43     0.3068   -4.0920    4.4103 H        1 ZINC000096209980    0.1000
44     H44     1.8160   -3.3086    3.8727 H        1 ZINC000096209980    0.0800
45     H45     1.9161   -2.3349    8.2666 H        1 ZINC000096209980    0.1000
46     H46     0.2493   -1.7147    8.1937 H        1 ZINC000096209980    0.0600
47     H47    -0.4770   -3.8812    9.0216 H        1 ZINC000096209980    0.3600
48     H48     0.3962   -1.9151   10.4684 H        1 ZINC000096209980    0.0600
49     H49     0.0270   -5.6092   10.6471 H        1 ZINC000096209980    0.1300
50     H50    -1.5057   -6.7275   12.2166 H        1 ZINC000096209980    0.1200
51     H51    -2.7028   -5.4100   13.9179 H        1 ZINC000096209980    0.1200
52     H52    -2.3665   -2.9743   14.0502 H        1 ZINC000096209980    0.1200
53     H53    -0.8303   -1.8567   12.4836 H        1 ZINC000096209980    0.1200
54     H54     2.2085   -5.1446   10.1730 H        1 ZINC000096209980    0.1300
55     H55     4.5302   -5.4526   10.9331 H        1 ZINC000096209980    0.1200
56     H56     5.6743   -3.6487   12.1579 H        1 ZINC000096209980    0.1200
57     H57     4.4969   -1.5364   12.6218 H        1 ZINC000096209980    0.1200
58     H58     2.1767   -1.2267   11.8577 H        1 ZINC000096209980    0.1200
59     H59     1.4254   -0.8102    6.7695 H        1 ZINC000096209980    0.0900
60     H60     2.5542   -1.1431    5.4295 H        1 ZINC000096209980    0.0800
61     H61     1.1044    0.7202    4.7842 H        1 ZINC000096209980    0.1000
62     H62    -0.3486   -0.2240    5.1933 H        1 ZINC000096209980    0.0500
@<TRIPOS>BOND
1     1     2     1
2     1     35    1
3     1     36    1
4     1     37    1
5     2     7     ar
6     2     3     ar
7     3     4     ar
8     4     5     ar
9     4     38    1
10    5     6     ar
11    5     39    1
12    6     7     ar
13    6     40    1
14    7     8     1
15    8     9     1
16    8     10    1
17    8     12    1
18    10    11    3
19    12    34    1
20    12    13    1
21    13    14    1
22    13    41    1
23    13    42    1
24    14    15    1
25    14    43    1
26    14    44    1
27    15    16    am
28    15    33    1
29    16    17    2
30    16    18    1
31    18    19    1
32    18    45    1
33    18    46    1
34    19    20    1
35    19    47    1
36    20    21    1
37    20    27    1
38    20    48    1
39    21    26    ar
40    21    22    ar
41    22    23    ar
42    22    49    1
43    23    24    ar
44    23    50    1
45    24    25    ar
46    24    51    1
47    25    26    ar
48    25    52    1
49    26    53    1
50    27    32    ar
51    27    28    ar
52    28    29    ar
53    28    54    1
54    29    30    ar
55    29    55    1
56    30    31    ar
57    30    56    1
58    31    32    ar
59    31    57    1
60    32    58    1
61    33    34    1
62    33    59    1
63    33    60    1
64    34    61    1
65    34    62    1
@<TRIPOS>SUBSTRUCTURE
1   ZINC000096209980 1     RESIDUE    1   A     ZIN   1
