@<TRIPOS>MOLECULE
ZINC000068250421
27    26    1     0     0
SMALL
USER_CHARGES
@<TRIPOS>ATOM
1      N1     -2.0676    0.9982    0.7195 N.4      1 ZINC000068250421   -0.6100
2      H2     -2.0584   -0.0067    0.6295 H        1 ZINC000068250421    0.4200
3      H3     -2.4171    1.4091   -0.1331 H        1 ZINC000068250421    0.4100
4      H4     -2.6646    1.2615    1.4892 H        1 ZINC000068250421    0.4300
5      C5     -0.7028    1.4797    0.9716 C.3      1 ZINC000068250421   -0.0600
6      H6     -0.0399    1.1216    0.1839 H        1 ZINC000068250421    0.1400
7      C7     -0.6965    3.0096    0.9871 C.3      1 ZINC000068250421   -0.0900
8      C8      0.7447    3.5126    1.0918 C.3      1 ZINC000068250421   -0.1700
9      H9      1.2245    3.0622    1.9607 H        1 ZINC000068250421    0.1000
10     C10     0.7438    5.0352    1.2418 C.3      1 ZINC000068250421   -0.0900
11     C11     2.1726    5.5244    1.4869 C.3      1 ZINC000068250421   -0.1500
12     C12     2.1564    7.0295    1.7611 C.3      1 ZINC000068250421    0.0600
13     F13     3.4629    7.4768    1.9852 F        1 ZINC000068250421   -0.2300
14     C14     1.5017    3.1310   -0.1541 C.2      1 ZINC000068250421    0.5000
15     O15     1.1818    3.6048   -1.2310 O.co2    1 ZINC000068250421   -0.7100
16     O16     2.4341    2.3484   -0.0853 O.co2    1 ZINC000068250421   -0.6800
17     C17    -0.2254    0.9618    2.3039 C.2      1 ZINC000068250421    0.4900
18     O18     0.9437    1.0910    2.6247 O.co2    1 ZINC000068250421   -0.6100
19     O19    -1.0083    0.4137    3.0609 O.co2    1 ZINC000068250421   -0.7000
20     H20    -1.1461    3.3841    0.0675 H        1 ZINC000068250421    0.0700
21     H21    -1.2690    3.3666    1.8431 H        1 ZINC000068250421    0.0600
22     H22     0.3554    5.4898    0.3304 H        1 ZINC000068250421    0.0600
23     H23     0.1136    5.3168    2.0853 H        1 ZINC000068250421    0.0500
24     H24     2.5927    5.0029    2.3470 H        1 ZINC000068250421    0.0700
25     H25     2.7821    5.3221    0.6061 H        1 ZINC000068250421    0.0800
26     H26     1.7364    7.5510    0.9010 H        1 ZINC000068250421    0.0700
27     H27     1.5470    7.2318    2.6419 H        1 ZINC000068250421    0.0700
@<TRIPOS>BOND
1     1     2     1
2     1     3     1
3     1     4     1
4     1     5     1
5     5     6     1
6     5     7     1
7     5     17    1
8     7     8     1
9     7     20    1
10    7     21    1
11    8     9     1
12    8     10    1
13    8     14    1
14    10    11    1
15    10    22    1
16    10    23    1
17    11    12    1
18    11    24    1
19    11    25    1
20    12    13    1
21    12    26    1
22    12    27    1
23    14    15    ar
24    14    16    ar
25    17    18    ar
26    17    19    ar
@<TRIPOS>SUBSTRUCTURE
1   ZINC000068250421 1     RESIDUE    1   A     ZIN   1
