@<TRIPOS>MOLECULE
ZINC000001905712
64    66    1     0     0
SMALL
USER_CHARGES
@<TRIPOS>ATOM
1      C1     -0.0187    1.5258    0.0104 C.3      1 ZINC000001905712   -0.1500
2      C2      0.0021   -0.0041    0.0020 C.3      1 ZINC000001905712   -0.1300
3      C3      0.7182   -0.4975   -1.2568 C.3      1 ZINC000001905712   -0.1200
4      C4      0.7390   -2.0273   -1.2652 C.3      1 ZINC000001905712   -0.1200
5      C5      1.4551   -2.5207   -2.5240 C.3      1 ZINC000001905712   -0.1200
6      C6      1.4758   -4.0506   -2.5324 C.3      1 ZINC000001905712   -0.1100
7      C7      2.1920   -4.5440   -3.7912 C.3      1 ZINC000001905712   -0.0200
8      C8      1.4520   -4.0372   -5.0307 C.3      1 ZINC000001905712   -0.1400
9      C9      3.6274   -4.0144   -3.8021 C.3      1 ZINC000001905712   -0.1400
10     C10     2.2124   -6.0508   -3.7995 C.ar     1 ZINC000001905712   -0.0300
11     C11     1.6284   -6.7549   -2.7642 C.ar     1 ZINC000001905712   -0.1800
12     C12     1.6454   -8.1414   -2.7754 C.ar     1 ZINC000001905712    0.1500
13     O13     1.0686   -8.8339   -1.7582 O.3      1 ZINC000001905712   -0.4800
14     C14     2.2494   -8.8249   -3.8229 C.ar     1 ZINC000001905712   -0.1800
15     C15     2.8382   -8.1181   -4.8576 C.ar     1 ZINC000001905712    0.1600
16     C16     2.8096   -6.7268   -4.8442 C.ar     1 ZINC000001905712   -0.1600
17     O17     3.4533   -8.7419   -5.8957 O.3      1 ZINC000001905712   -0.3100
18     C18     3.1969  -10.1331   -6.0978 C.3      1 ZINC000001905712    0.1200
19     C19     1.7762  -10.3231   -6.6329 C.3      1 ZINC000001905712   -0.1700
20     C20     4.2049  -10.7032   -7.0978 C.3      1 ZINC000001905712   -0.1400
21     C21     3.3416  -10.8494   -4.7536 C.3      1 ZINC000001905712   -0.1100
22     H22     4.3233  -10.6401   -4.3286 H        1 ZINC000001905712    0.0800
23     C23     3.1665  -12.3584   -4.9306 C.3      1 ZINC000001905712   -0.0700
24     C24     3.0474  -13.0109   -3.5815 C.2      1 ZINC000001905712   -0.1600
25     C25     2.7614  -12.3569   -2.4726 C.2      1 ZINC000001905712   -0.1600
26     C26     2.6738  -13.1211   -1.2233 C.2      1 ZINC000001905712    0.5100
27     O27     2.8641  -14.3299   -1.2308 O.co2    1 ZINC000001905712   -0.7000
28     O28     2.4105  -12.5496   -0.1737 O.co2    1 ZINC000001905712   -0.6900
29     C29     2.5203  -10.8744   -2.4136 C.3      1 ZINC000001905712   -0.0500
30     C30     2.2471  -10.3289   -3.8119 C.3      1 ZINC000001905712   -0.0400
31     H31     1.2872  -10.7033   -4.1675 H        1 ZINC000001905712    0.0800
32     H32     1.0039    1.9031    0.0027 H        1 ZINC000001905712    0.0500
33     H33    -0.5459    1.8868   -0.8726 H        1 ZINC000001905712    0.0500
34     H34    -0.5289    1.8773    0.9072 H        1 ZINC000001905712    0.0500
35     H35     0.5293   -0.3651    0.8851 H        1 ZINC000001905712    0.0600
36     H36    -1.0205   -0.3814    0.0098 H        1 ZINC000001905712    0.0600
37     H37     0.1910   -0.1364   -2.1398 H        1 ZINC000001905712    0.0600
38     H38     1.7408   -0.1202   -1.2645 H        1 ZINC000001905712    0.0600
39     H39     1.2661   -2.3884   -0.3821 H        1 ZINC000001905712    0.0600
40     H40    -0.2836   -2.4046   -1.2575 H        1 ZINC000001905712    0.0600
41     H41     0.9279   -2.1597   -3.4071 H        1 ZINC000001905712    0.0600
42     H42     2.4777   -2.1435   -2.5317 H        1 ZINC000001905712    0.0600
43     H43     2.0030   -4.4117   -1.6494 H        1 ZINC000001905712    0.0700
44     H44     0.4533   -4.4279   -2.5247 H        1 ZINC000001905712    0.0700
45     H45     1.4372   -2.9473   -5.0248 H        1 ZINC000001905712    0.0600
46     H46     1.9622   -4.3887   -5.9275 H        1 ZINC000001905712    0.0600
47     H47     0.4294   -4.4144   -5.0230 H        1 ZINC000001905712    0.0600
48     H48     4.1546   -4.3755   -2.9190 H        1 ZINC000001905712    0.0600
49     H49     4.1376   -4.3659   -4.6989 H        1 ZINC000001905712    0.0600
50     H50     3.6126   -2.9245   -3.7961 H        1 ZINC000001905712    0.0600
51     H51     1.1597   -6.2263   -1.9473 H        1 ZINC000001905712    0.1300
52     H52     0.1350   -9.0401   -1.9026 H        1 ZINC000001905712    0.3900
53     H53     3.2641   -6.1726   -5.6521 H        1 ZINC000001905712    0.1300
54     H54     1.6712   -9.7949   -7.5806 H        1 ZINC000001905712    0.0600
55     H55     1.5845  -11.3851   -6.7856 H        1 ZINC000001905712    0.0800
56     H56     1.0607   -9.9245   -5.9136 H        1 ZINC000001905712    0.0600
57     H57     5.2150  -10.5747   -6.7088 H        1 ZINC000001905712    0.0700
58     H58     4.0061  -11.7642   -7.2492 H        1 ZINC000001905712    0.0800
59     H59     4.1116  -10.1769   -8.0477 H        1 ZINC000001905712    0.0600
60     H60     2.2640  -12.5540   -5.5097 H        1 ZINC000001905712    0.0700
61     H61     4.0305  -12.7653   -5.4560 H        1 ZINC000001905712    0.0700
62     H62     3.2050  -14.0773   -3.5167 H        1 ZINC000001905712    0.1100
63     H63     1.6667  -10.6706   -1.7671 H        1 ZINC000001905712    0.1000
64     H64     3.4049  -10.3782   -2.0143 H        1 ZINC000001905712    0.0600
@<TRIPOS>BOND
1     1     2     1
2     1     32    1
3     1     33    1
4     1     34    1
5     2     3     1
6     2     35    1
7     2     36    1
8     3     4     1
9     3     37    1
10    3     38    1
11    4     5     1
12    4     39    1
13    4     40    1
14    5     6     1
15    5     41    1
16    5     42    1
17    6     7     1
18    6     43    1
19    6     44    1
20    7     8     1
21    7     9     1
22    7     10    1
23    8     45    1
24    8     46    1
25    8     47    1
26    9     48    1
27    9     49    1
28    9     50    1
29    10    16    ar
30    10    11    ar
31    11    12    ar
32    11    51    1
33    12    13    1
34    12    14    ar
35    13    52    1
36    14    30    1
37    14    15    ar
38    15    16    ar
39    15    17    1
40    16    53    1
41    17    18    1
42    18    19    1
43    18    20    1
44    18    21    1
45    19    54    1
46    19    55    1
47    19    56    1
48    20    57    1
49    20    58    1
50    20    59    1
51    21    22    1
52    21    30    1
53    21    23    1
54    23    24    1
55    23    60    1
56    23    61    1
57    24    25    2
58    24    62    1
59    25    26    1
60    25    29    1
61    26    27    ar
62    26    28    ar
63    29    30    1
64    29    63    1
65    29    64    1
66    30    31    1
@<TRIPOS>SUBSTRUCTURE
1   ZINC000001905712 1     RESIDUE    1   A     ZIN   1
