@<TRIPOS>MOLECULE
ZINC000001530850
  56   60    0    0    0
SMALL
USER_CHARGES
NO_NAME
@<TRIPOS>ATOM
    1 C1       -0.0173     1.4248     0.0099 C.3    1 <0>       0.0200
    2 O2        0.0021    -0.0041     0.0020 O.3    1 <0>      -0.3100
    3 C3        0.6062    -0.6075    -1.0564 C.ar   1 <0>       0.1000
    4 C4        1.1727     0.1587    -2.0618 C.ar   1 <0>      -0.1800
    5 C5        1.7870    -0.4565    -3.1372 C.ar   1 <0>      -0.0600
    6 C6        2.4028     0.3787    -4.2300 C.3    1 <0>       0.1100
    7 H7        1.9803     1.3833    -4.2072 H      1 <0>       0.0900
    8 O8        2.1448    -0.2248    -5.5025 O.3    1 <0>      -0.2900
    9 C9        2.8730     0.2352    -6.5563 C.ar   1 <0>       0.0400
   10 C10       2.4417    -0.0268    -7.8478 C.ar   1 <0>      -0.0800
   11 C11       3.1724     0.4310    -8.9283 C.ar   1 <0>      -0.0700
   12 C12       2.7010     0.1449   -10.3308 C.3    1 <0>       0.1600
   13 H13       1.6224    -0.0129   -10.3269 H      1 <0>       0.0900
   14 O14       3.0175     1.2517   -11.1749 O.3    1 <0>      -0.3000
   15 C15       2.8147     1.1305   -12.5079 C.ar   1 <0>       0.2100
   16 C16       2.6546     2.2618   -13.2878 C.ar   1 <0>      -0.2900
   17 C17       2.4533     2.1439   -14.6574 C.ar   1 <0>       0.3300
   18 O18       2.2966     3.2608   -15.4116 O.3    1 <0>      -0.6900
   19 C19       2.4113     0.8942   -15.2628 C.ar   1 <0>      -0.3100
   20 C20       2.5664    -0.2505   -14.5010 C.ar   1 <0>       0.2300
   21 O21       2.5282    -1.4722   -15.0884 O.3    1 <0>      -0.4900
   22 C22       2.7646    -0.1377   -13.1162 C.ar   1 <0>      -0.4000
   23 C23       2.9158    -1.3348   -12.2816 C.2    1 <0>       0.3800
   24 O24       2.6658    -2.4441   -12.7060 O.2    1 <0>      -0.4700
   25 C25       3.4015    -1.1151   -10.8599 C.3    1 <0>       0.0400
   26 H26       4.4817    -0.9696   -10.8549 H      1 <0>       0.0900
   27 O27       3.0587    -2.2409   -10.0492 O.3    1 <0>      -0.5400
   28 C28       4.3343     1.1512    -8.7245 C.ar   1 <0>      -0.0800
   29 C29       4.7691     1.4171    -7.4395 C.ar   1 <0>      -0.1100
   30 C30       4.0403     0.9618    -6.3513 C.ar   1 <0>       0.0500
   31 O31       4.4766     1.2380    -5.0920 O.3    1 <0>      -0.2900
   32 C32       3.9228     0.4519    -4.0314 C.3    1 <0>       0.0600
   33 H33       4.3445    -0.5528    -4.0597 H      1 <0>       0.0900
   34 C34       4.2390     1.1062    -2.6850 C.3    1 <0>       0.0900
   35 O35       5.6512     1.0891    -2.4670 O.3    1 <0>      -0.5600
   36 C36       1.8380    -1.8356    -3.2117 C.ar   1 <0>      -0.1100
   37 C37       1.2740    -2.6064    -2.2116 C.ar   1 <0>      -0.1000
   38 C38       0.6617    -1.9965    -1.1290 C.ar   1 <0>       0.0800
   39 O39       0.1067    -2.7530    -0.1447 O.3    1 <0>      -0.4800
   40 H40       1.0053     1.8021     0.0021 H      1 <0>       0.0600
   41 H41      -0.5445     1.7859    -0.8732 H      1 <0>       0.0600
   42 H42      -0.5275     1.7763     0.9067 H      1 <0>       0.1000
   43 H43       1.1343     1.2366    -2.0060 H      1 <0>       0.1400
   44 H44       1.5342    -0.5895    -8.0097 H      1 <0>       0.1400
   45 H45       2.6865     3.2398   -12.8307 H      1 <0>       0.1200
   46 H46       2.2570     0.8161   -16.3288 H      1 <0>       0.1100
   47 H47       3.3906    -1.7928   -15.3859 H      1 <0>       0.3800
   48 H48       3.4428    -3.0751   -10.3520 H      1 <0>       0.3900
   49 H49       4.9037     1.5064    -9.5706 H      1 <0>       0.1400
   50 H50       5.6776     1.9797    -7.2830 H      1 <0>       0.1400
   51 H51       3.8846     2.1370    -2.6898 H      1 <0>       0.0600
   52 H52       3.7416     0.5547    -1.8872 H      1 <0>       0.0700
   53 H53       5.9249     1.4888    -1.6301 H      1 <0>       0.3800
   54 H54       2.3190    -2.3124    -4.0529 H      1 <0>       0.1400
   55 H55       1.3146    -3.6839    -2.2726 H      1 <0>       0.1400
   56 H56       0.7153    -2.9709     0.5745 H      1 <0>       0.3900
@<TRIPOS>BOND
   1    1    2 1
   2    1   40 1
   3    1   41 1
   4    1   42 1
   5    2    3 1
   6    3   38 ar
   7    3    4 ar
   8    4    5 ar
   9    4   43 1
  10    5    6 1
  11    5   36 ar
  12    6    7 1
  13    6   32 1
  14    6    8 1
  15    8    9 1
  16    9   30 ar
  17    9   10 ar
  18   10   11 ar
  19   10   44 1
  20   11   12 1
  21   11   28 ar
  22   12   13 1
  23   12   25 1
  24   12   14 1
  25   14   15 1
  26   15   22 ar
  27   15   16 ar
  28   16   17 ar
  29   16   45 1
  30   17   18 1
  31   17   19 ar
  32   19   20 ar
  33   19   46 1
  34   20   21 1
  35   20   22 ar
  36   21   47 1
  37   22   23 1
  38   23   24 2
  39   23   25 1
  40   25   26 1
  41   25   27 1
  42   27   48 1
  43   28   29 ar
  44   28   49 1
  45   29   30 ar
  46   29   50 1
  47   30   31 1
  48   31   32 1
  49   32   33 1
  50   32   34 1
  51   34   35 1
  52   34   51 1
  53   34   52 1
  54   35   53 1
  55   36   37 ar
  56   36   54 1
  57   37   38 ar
  58   37   55 1
  59   38   39 1
  60   39   56 1
