@<TRIPOS>MOLECULE
ZINC000006094098
32    34    1     0     0
SMALL
USER_CHARGES
@<TRIPOS>ATOM
1      N1     -0.0824    1.1907    0.9481 N.pl3    1 ZINC000006094098   -0.7900
2      C2     -0.0232   -0.0609    0.4970 C.cat    1 ZINC000006094098    0.7600
3      N3      1.1503   -0.6857    0.4188 N.pl3    1 ZINC000006094098   -0.7700
4      H4      1.9619   -0.2292    0.6905 H        1 ZINC000006094098    0.4500
5      H5      1.1934   -1.5973    0.0902 H        1 ZINC000006094098    0.4500
6      N6     -1.1704   -0.7062    0.1129 N.pl3    1 ZINC000006094098   -0.5900
7      C7     -2.3844   -0.0324    0.1283 C.2      1 ZINC000006094098    0.2000
8      N8     -3.5414   -0.5803    0.3252 N.2      1 ZINC000006094098   -0.4200
9      C9     -4.5877    0.2515    0.3000 C.2      1 ZINC000006094098    0.0300
10     C10    -5.9695   -0.2096    0.5060 C.2      1 ZINC000006094098    0.5900
11     O11    -6.8878    0.5874    0.4741 O.2      1 ZINC000006094098   -0.4400
12     N12    -6.2179   -1.5152    0.7301 N.am     1 ZINC000006094098   -0.6200
13     C13    -7.5180   -1.9491    0.9239 C.2      1 ZINC000006094098    0.3300
14     N14    -8.5578   -1.1888    0.9038 N.2      1 ZINC000006094098   -0.4600
15     C15    -9.7609   -1.7599    1.1095 C.ar     1 ZINC000006094098    0.1300
16     C16   -11.0337   -1.1516    1.1358 C.ar     1 ZINC000006094098   -0.1100
17     C17   -12.1601   -1.9049    1.3634 C.ar     1 ZINC000006094098    0.1300
18     F18   -13.3719   -1.3080    1.3861 F        1 ZINC000006094098   -0.1300
19     C19   -12.0633   -3.2749    1.5698 C.ar     1 ZINC000006094098   -0.1300
20     C20   -10.8304   -3.8884    1.5477 C.ar     1 ZINC000006094098   -0.0300
21     C21    -9.6788   -3.1399    1.3194 C.ar     1 ZINC000006094098   -0.1900
22     S22    -7.9852   -3.6170    1.2248 S.3      1 ZINC000006094098    0.1000
23     C23    -4.2815    1.5454    0.0721 C.2      1 ZINC000006094098   -0.1700
24     S24    -2.5883    1.6992   -0.1090 S.3      1 ZINC000006094098    0.2400
25     H25     0.7201    1.7348    0.9756 H        1 ZINC000006094098    0.4500
26     H26    -0.9288    1.5595    1.2455 H        1 ZINC000006094098    0.4300
27     H27    -1.1339   -1.6335   -0.1695 H        1 ZINC000006094098    0.4600
28     H28    -5.4856   -2.1509    0.7555 H        1 ZINC000006094098    0.4300
29     H29   -11.1232   -0.0872    0.9764 H        1 ZINC000006094098    0.1500
30     H30   -12.9542   -3.8588    1.7480 H        1 ZINC000006094098    0.1500
31     H31   -10.7566   -4.9538    1.7084 H        1 ZINC000006094098    0.1500
32     H32    -4.9928    2.3563    0.0169 H        1 ZINC000006094098    0.2200
@<TRIPOS>BOND
1     1     2     ar
2     1     25    1
3     1     26    1
4     2     3     ar
5     2     6     ar
6     3     4     1
7     3     5     1
8     6     7     1
9     6     27    1
10    7     24    1
11    7     8     2
12    8     9     1
13    9     10    1
14    9     23    2
15    10    11    2
16    10    12    am
17    12    13    1
18    12    28    1
19    13    22    1
20    13    14    2
21    14    15    1
22    15    21    ar
23    15    16    ar
24    16    17    ar
25    16    29    1
26    17    18    1
27    17    19    ar
28    19    20    ar
29    19    30    1
30    20    21    ar
31    20    31    1
32    21    22    1
33    23    24    1
34    23    32    1
@<TRIPOS>SUBSTRUCTURE
1   ZINC000006094098 1     RESIDUE    1   A     ZIN   1
