@<TRIPOS>MOLECULE
ZINC000167253016
64    67    1     0     0
SMALL
USER_CHARGES
@<TRIPOS>ATOM
1      C1      0.9311   -0.6218   -0.2220 C.3      1 ZINC000167253016   -0.1500
2      C2     -0.1173    0.4735   -0.0168 C.3      1 ZINC000167253016   -0.0800
3      C3     -1.4960   -0.1300   -0.0936 C.ar     1 ZINC000167253016   -0.0900
4      C4     -2.1804   -0.4331    1.0640 C.ar     1 ZINC000167253016   -0.0700
5      C5     -3.4560   -0.9910    0.9922 C.ar     1 ZINC000167253016   -0.0200
6      C6     -4.1953   -1.3179    2.2363 C.2      1 ZINC000167253016    0.2200
7      N7     -3.7733   -1.1304    3.4609 N.2      1 ZINC000167253016   -0.3700
8      O8     -4.6108   -1.5010    4.2560 O.3      1 ZINC000167253016    0.1000
9      C9     -5.6825   -1.9760    3.6032 C.2      1 ZINC000167253016    0.2300
10     C10    -6.9159   -2.5213    4.2132 C.ar     1 ZINC000167253016    0.0600
11     C11    -7.9624   -2.9911    3.4168 C.ar     1 ZINC000167253016   -0.1400
12     C12    -9.1006   -3.4939    4.0315 C.ar     1 ZINC000167253016    0.3300
13     O13   -10.1256   -3.9544    3.2709 O.3      1 ZINC000167253016   -0.3000
14     C14   -11.2700   -4.4596    3.9617 C.3      1 ZINC000167253016    0.0400
15     N15    -9.1975   -3.5298    5.3498 N.ar     1 ZINC000167253016   -0.5200
16     C16    -8.2292   -3.0948    6.1338 C.ar     1 ZINC000167253016    0.1900
17     C17    -8.3983   -3.1624    7.6297 C.3      1 ZINC000167253016   -0.0500
18     C18    -7.6052   -4.3589    8.2114 C.3      1 ZINC000167253016   -0.1100
19     C19    -7.3816   -3.9368    9.6848 C.3      1 ZINC000167253016   -0.1200
20     C20    -7.1183   -2.4188    9.6077 C.3      1 ZINC000167253016   -0.1300
21     C21    -7.7648   -1.9263    8.3011 C.3      1 ZINC000167253016   -0.1200
22     C22    -7.0624   -2.5852    5.6045 C.ar     1 ZINC000167253016   -0.1700
23     N23    -5.4297   -1.8582    2.3143 N.2      1 ZINC000167253016   -0.4500
24     C24    -4.0356   -1.2407   -0.2504 C.ar     1 ZINC000167253016   -0.0700
25     C25    -3.3463   -0.9354   -1.4051 C.ar     1 ZINC000167253016   -0.1000
26     C26    -3.9723   -1.2050   -2.7491 C.3      1 ZINC000167253016   -0.1200
27     C27    -2.0782   -0.3750   -1.3305 C.ar     1 ZINC000167253016    0.1200
28     O28    -1.4016   -0.0749   -2.4695 O.3      1 ZINC000167253016   -0.3100
29     C29    -1.6281    1.2167   -3.0374 C.3      1 ZINC000167253016    0.0400
30     C30    -0.8546    1.3386   -4.3519 C.3      1 ZINC000167253016    0.1100
31     H31     0.1985    1.1200   -4.1753 H        1 ZINC000167253016    0.1200
32     O32    -1.3810    0.4102   -5.3021 O.3      1 ZINC000167253016   -0.5400
33     C33    -0.9959    2.7613   -4.8967 C.3      1 ZINC000167253016    0.0500
34     O34    -0.1804    2.9087   -6.0609 O.3      1 ZINC000167253016   -0.5600
35     H35     1.9248   -0.1743   -0.2430 H        1 ZINC000167253016    0.0600
36     H36     0.8726   -1.3387    0.5969 H        1 ZINC000167253016    0.0500
37     H37     0.7427   -1.1327   -1.1663 H        1 ZINC000167253016    0.0600
38     H38     0.0242    0.9332    0.9614 H        1 ZINC000167253016    0.0700
39     H39    -0.0084    1.2308   -0.7932 H        1 ZINC000167253016    0.0700
40     H40    -1.7287   -0.2390    2.0256 H        1 ZINC000167253016    0.1400
41     H41    -7.8874   -2.9632    2.3398 H        1 ZINC000167253016    0.1600
42     H42   -10.9733   -5.2980    4.5919 H        1 ZINC000167253016    0.0600
43     H43   -11.6968   -3.6717    4.5824 H        1 ZINC000167253016    0.0600
44     H44   -12.0129   -4.7944    3.2377 H        1 ZINC000167253016    0.1000
45     H45    -9.4539   -3.2390    7.8903 H        1 ZINC000167253016    0.1000
46     H46    -8.1931   -5.2751    8.1570 H        1 ZINC000167253016    0.0700
47     H47    -6.6527   -4.4786    7.6951 H        1 ZINC000167253016    0.0700
48     H48    -8.2725   -4.1398   10.2792 H        1 ZINC000167253016    0.0700
49     H49    -6.5173   -4.4531   10.1026 H        1 ZINC000167253016    0.0700
50     H50    -7.5735   -1.9170   10.4617 H        1 ZINC000167253016    0.0700
51     H51    -6.0456   -2.2263    9.5893 H        1 ZINC000167253016    0.0700
52     H52    -7.0058   -1.4949    7.6485 H        1 ZINC000167253016    0.0700
53     H53    -8.5336   -1.1856    8.5209 H        1 ZINC000167253016    0.0700
54     H54    -6.2755   -2.2317    6.2542 H        1 ZINC000167253016    0.1500
55     H55    -5.0235   -1.6731   -0.3090 H        1 ZINC000167253016    0.1400
56     H56    -4.5351   -0.3286   -3.0702 H        1 ZINC000167253016    0.0700
57     H57    -3.1905   -1.4216   -3.4772 H        1 ZINC000167253016    0.0800
58     H58    -4.6440   -2.0600   -2.6721 H        1 ZINC000167253016    0.0700
59     H59    -2.6931    1.3477   -3.2290 H        1 ZINC000167253016    0.0600
60     H60    -1.2869    1.9840   -2.3425 H        1 ZINC000167253016    0.0700
61     H61    -2.3162    0.5455   -5.5077 H        1 ZINC000167253016    0.3700
62     H62    -2.0377    2.9491   -5.1566 H        1 ZINC000167253016    0.0500
63     H63    -0.6767    3.4747   -4.1368 H        1 ZINC000167253016    0.0600
64     H64    -0.2207    3.7883   -6.4605 H        1 ZINC000167253016    0.3800
@<TRIPOS>BOND
1     1     2     1
2     1     35    1
3     1     36    1
4     1     37    1
5     2     3     1
6     2     38    1
7     2     39    1
8     3     27    ar
9     3     4     ar
10    4     5     ar
11    4     40    1
12    5     6     1
13    5     24    ar
14    6     23    1
15    6     7     2
16    7     8     1
17    8     9     1
18    9     10    1
19    9     23    2
20    10    22    ar
21    10    11    ar
22    11    12    ar
23    11    41    1
24    12    13    1
25    12    15    ar
26    13    14    1
27    14    42    1
28    14    43    1
29    14    44    1
30    15    16    ar
31    16    17    1
32    16    22    ar
33    17    21    1
34    17    18    1
35    17    45    1
36    18    19    1
37    18    46    1
38    18    47    1
39    19    20    1
40    19    48    1
41    19    49    1
42    20    21    1
43    20    50    1
44    20    51    1
45    21    52    1
46    21    53    1
47    22    54    1
48    24    25    ar
49    24    55    1
50    25    26    1
51    25    27    ar
52    26    56    1
53    26    57    1
54    26    58    1
55    27    28    1
56    28    29    1
57    29    30    1
58    29    59    1
59    29    60    1
60    30    31    1
61    30    32    1
62    30    33    1
63    32    61    1
64    33    34    1
65    33    62    1
66    33    63    1
67    34    64    1
@<TRIPOS>SUBSTRUCTURE
1   ZINC000167253016 1     RESIDUE    1   A     ZIN   1
