@<TRIPOS>MOLECULE
ZINC000004215196
59    61    1     0     0
SMALL
USER_CHARGES
@<TRIPOS>ATOM
1      C1     -3.7217   -0.8583   -2.8589 C.3      1 ZINC000004215196   -0.1500
2      C2     -3.5255   -1.0358   -1.3519 C.3      1 ZINC000004215196   -0.1600
3      C3     -2.4983   -2.1099   -1.1022 C.2      1 ZINC000004215196    0.5200
4      O4     -2.4442   -3.0783   -1.8303 O.2      1 ZINC000004215196   -0.4800
5      N5     -1.6398   -1.9943   -0.0696 N.am     1 ZINC000004215196   -0.5500
6      C6     -1.9658   -1.1845    1.0240 C.ar     1 ZINC000004215196    0.1700
7      C7     -1.0207   -0.9334    2.0100 C.ar     1 ZINC000004215196   -0.1800
8      C8     -1.3456   -0.1337    3.0882 C.ar     1 ZINC000004215196   -0.0800
9      C9     -2.6105    0.4162    3.1867 C.ar     1 ZINC000004215196   -0.1500
10     C10    -3.5540    0.1677    2.2068 C.ar     1 ZINC000004215196   -0.0800
11     C11    -3.2333   -0.6257    1.1227 C.ar     1 ZINC000004215196   -0.1900
12     C12    -0.3654   -2.7164   -0.0923 C.3      1 ZINC000004215196    0.1900
13     C13    -0.2565   -3.5845    1.1348 C.2      1 ZINC000004215196    0.4600
14     O14     0.8253   -3.8017    1.6272 O.2      1 ZINC000004215196   -0.4900
15     O15    -1.3614   -4.1164    1.6808 O.3      1 ZINC000004215196   -0.3400
16     C16    -1.1813   -4.9421    2.8615 C.3      1 ZINC000004215196    0.0300
17     C17    -0.2950   -3.5909   -1.3472 C.3      1 ZINC000004215196   -0.1100
18     C18    -0.3456   -2.6978   -2.5889 C.3      1 ZINC000004215196    0.0400
19     N19     0.7812   -1.7566   -2.5626 N.3      1 ZINC000004215196   -0.5400
20     C20     0.8446   -0.9765   -3.8058 C.3      1 ZINC000004215196    0.0700
21     C21     2.1588   -0.1943   -3.8506 C.3      1 ZINC000004215196   -0.0800
22     C22     2.2239    0.6059   -5.1259 C.ar     1 ZINC000004215196   -0.0800
23     C23     2.7782    0.0495   -6.2635 C.ar     1 ZINC000004215196   -0.1200
24     C24     2.8379    0.7835   -7.4333 C.ar     1 ZINC000004215196   -0.1200
25     C25     2.3429    2.0738   -7.4657 C.ar     1 ZINC000004215196   -0.1200
26     C26     1.7877    2.6299   -6.3284 C.ar     1 ZINC000004215196   -0.1200
27     C27     1.7241    1.8943   -5.1597 C.ar     1 ZINC000004215196   -0.1200
28     C28     0.7089   -0.8744   -1.3909 C.3      1 ZINC000004215196    0.0600
29     C29     0.7910   -1.7130   -0.1135 C.3      1 ZINC000004215196   -0.1300
30     H30    -4.4646   -0.0815   -3.0395 H        1 ZINC000004215196    0.0700
31     H31    -2.7756   -0.5699   -3.3170 H        1 ZINC000004215196    0.0600
32     H32    -4.0646   -1.7972   -3.2937 H        1 ZINC000004215196    0.0700
33     H33    -3.1826   -0.0970   -0.9171 H        1 ZINC000004215196    0.1000
34     H34    -4.4715   -1.3243   -0.8938 H        1 ZINC000004215196    0.1100
35     H35    -0.0328   -1.3631    1.9340 H        1 ZINC000004215196    0.1300
36     H36    -0.6110    0.0620    3.8554 H        1 ZINC000004215196    0.1300
37     H37    -2.8622    1.0409    4.0310 H        1 ZINC000004215196    0.1300
38     H38    -4.5413    0.5980    2.2870 H        1 ZINC000004215196    0.1300
39     H39    -3.9706   -0.8195    0.3577 H        1 ZINC000004215196    0.1500
40     H40    -2.1505   -5.3080    3.2003 H        1 ZINC000004215196    0.1000
41     H41    -0.5382   -5.7880    2.6186 H        1 ZINC000004215196    0.0600
42     H42    -0.7198   -4.3501    3.6519 H        1 ZINC000004215196    0.0600
43     H43     0.6362   -4.1575   -1.3442 H        1 ZINC000004215196    0.0800
44     H44    -1.1403   -4.2790   -1.3591 H        1 ZINC000004215196    0.1100
45     H45    -0.2813   -3.3164   -3.4841 H        1 ZINC000004215196    0.0800
46     H46    -1.2831   -2.1419   -2.5984 H        1 ZINC000004215196    0.0700
47     H47     0.7938   -1.6507   -4.6608 H        1 ZINC000004215196    0.0800
48     H48     0.0063   -0.2808   -3.8414 H        1 ZINC000004215196    0.0300
49     H49     2.2097    0.4799   -2.9956 H        1 ZINC000004215196    0.0700
50     H50     2.9971   -0.8901   -3.8151 H        1 ZINC000004215196    0.0800
51     H51     3.1650   -0.9585   -6.2382 H        1 ZINC000004215196    0.1200
52     H52     3.2717    0.3491   -8.3219 H        1 ZINC000004215196    0.1200
53     H53     2.3901    2.6475   -8.3795 H        1 ZINC000004215196    0.1200
54     H54     1.4012    3.6380   -6.3537 H        1 ZINC000004215196    0.1200
55     H55     1.2904    2.3287   -4.2712 H        1 ZINC000004215196    0.1200
56     H56     1.5392   -0.1685   -1.4160 H        1 ZINC000004215196    0.0900
57     H57    -0.2335   -0.3269   -1.4061 H        1 ZINC000004215196    0.0300
58     H58     0.7217   -1.0594    0.7561 H        1 ZINC000004215196    0.0900
59     H59     1.7393   -2.2501   -0.0910 H        1 ZINC000004215196    0.1000
@<TRIPOS>BOND
1     1     2     1
2     1     30    1
3     1     31    1
4     1     32    1
5     2     3     1
6     2     33    1
7     2     34    1
8     3     4     2
9     3     5     am
10    5     6     1
11    5     12    1
12    6     11    ar
13    6     7     ar
14    7     8     ar
15    7     35    1
16    8     9     ar
17    8     36    1
18    9     10    ar
19    9     37    1
20    10    11    ar
21    10    38    1
22    11    39    1
23    12    29    1
24    12    13    1
25    12    17    1
26    13    14    2
27    13    15    1
28    15    16    1
29    16    40    1
30    16    41    1
31    16    42    1
32    17    18    1
33    17    43    1
34    17    44    1
35    18    19    1
36    18    45    1
37    18    46    1
38    19    20    1
39    19    28    1
40    20    21    1
41    20    47    1
42    20    48    1
43    21    22    1
44    21    49    1
45    21    50    1
46    22    27    ar
47    22    23    ar
48    23    24    ar
49    23    51    1
50    24    25    ar
51    24    52    1
52    25    26    ar
53    25    53    1
54    26    27    ar
55    26    54    1
56    27    55    1
57    28    29    1
58    28    56    1
59    28    57    1
60    29    58    1
61    29    59    1
@<TRIPOS>SUBSTRUCTURE
1   ZINC000004215196 1     RESIDUE    1   A     ZIN   1
