@<TRIPOS>MOLECULE
ZINC000000598541
  35   37    0    0    0
SMALL
USER_CHARGES
NO_NAME
@<TRIPOS>ATOM
    1 O1        0.2659    -0.0197    -0.1047 O.2    1 <0>      -1.0000
    2 S2       -0.0375     1.3640     0.0070 S.o2   1 <0>       2.6900
    3 O3        0.9585     2.3717     0.1156 O.2    1 <0>      -1.0000
    4 N4       -0.9515     1.7508    -1.3186 N.am   1 <0>      -1.1000
    5 C5       -0.4243     1.7077    -2.5073 C.2    1 <0>       0.6800
    6 O6        0.8688     1.3473    -2.6601 O.3    1 <0>      -0.7200
    7 N7       -1.1833     2.0288    -3.6080 N.pl3  1 <0>      -0.6600
    8 C8       -0.6533     1.8710    -4.8934 C.ar   1 <0>       0.2100
    9 C9       -0.9306     2.8082    -5.8798 C.ar   1 <0>      -0.1500
   10 C10      -0.4062     2.6508    -7.1481 C.ar   1 <0>      -0.0800
   11 C11       0.3947     1.5604    -7.4367 C.ar   1 <0>      -0.0700
   12 Cl12      1.0516     1.3656    -9.0317 Cl     1 <0>      -0.0700
   13 C13       0.6736     0.6239    -6.4548 C.ar   1 <0>      -0.0100
   14 Cl14      1.6798    -0.7427    -6.8201 Cl     1 <0>      -0.0600
   15 C15       0.1555     0.7798    -5.1831 C.ar   1 <0>      -0.1000
   16 C16      -1.0733     1.5336     1.4222 C.ar   1 <0>      -0.6600
   17 C17      -1.1541     2.7460     2.0814 C.ar   1 <0>       0.0100
   18 C18      -1.9610     2.8833     3.1922 C.ar   1 <0>      -0.1600
   19 C19      -2.7016     1.8005     3.6591 C.ar   1 <0>       0.1400
   20 O20      -3.5352     1.7103     4.7316 O.3    1 <0>      -0.3000
   21 C21      -4.3885     0.5640     4.5733 C.3    1 <0>       0.0500
   22 C22      -3.5297    -0.3849     3.7042 C.3    1 <0>      -0.1100
   23 C23      -2.6174     0.5892     2.9841 C.ar   1 <0>      -0.2000
   24 C24      -1.8132     0.4550     1.8745 C.ar   1 <0>       0.0300
   25 H25      -2.0860     2.3648    -3.4934 H      1 <0>       0.4100
   26 H26      -1.5563     3.6594    -5.6557 H      1 <0>       0.1400
   27 H27      -0.6219     3.3798    -7.9152 H      1 <0>       0.1400
   28 H28       0.3732     0.0499    -4.4175 H      1 <0>       0.1600
   29 H29      -0.5824     3.5902     1.7252 H      1 <0>       0.1500
   30 H30      -2.0181     3.8340     3.7016 H      1 <0>       0.1300
   31 H31      -4.6081     0.1098     5.5395 H      1 <0>       0.1100
   32 H32      -5.3081     0.8359     4.0552 H      1 <0>       0.0800
   33 H33      -2.9543    -1.0698     4.3270 H      1 <0>       0.0900
   34 H34      -4.1508    -0.9332     2.9958 H      1 <0>       0.0900
   35 H35      -1.7576    -0.4924     1.3591 H      1 <0>       0.1400
@<TRIPOS>BOND
   1    1    2 2
   2    2    3 2
   3    2    4 am
   4    2   16 1
   5    4    5 2
   6    5    6 1
   7    5    7 1
   8    7    8 1
   9    7   25 1
  10    8   15 ar
  11    8    9 ar
  12    9   10 ar
  13    9   26 1
  14   10   11 ar
  15   10   27 1
  16   11   12 1
  17   11   13 ar
  18   13   14 1
  19   13   15 ar
  20   15   28 1
  21   16   24 ar
  22   16   17 ar
  23   17   18 ar
  24   17   29 1
  25   18   19 ar
  26   18   30 1
  27   19   23 ar
  28   19   20 1
  29   20   21 1
  30   21   22 1
  31   21   31 1
  32   21   32 1
  33   22   23 1
  34   22   33 1
  35   22   34 1
  36   23   24 ar
  37   24   35 1
