@<TRIPOS>MOLECULE
ZINC000005784191
42    44    1     0     0
SMALL
USER_CHARGES
@<TRIPOS>ATOM
1      O1      0.0021   -0.0041    0.0020 O.2      1 ZINC000005784191   -0.4500
2      C2     -0.0143    1.2034    0.0087 C.2      1 ZINC000005784191    0.3400
3      C3      1.2804    1.9746    0.0004 C.3      1 ZINC000005784191   -0.1900
4      C4      2.4566    0.9963   -0.0160 C.3      1 ZINC000005784191    0.0400
5      H5      2.3667    0.3065    0.8231 H        1 ZINC000005784191    0.1500
6      N6      2.4455    0.2398   -1.2739 N.4      1 ZINC000005784191   -0.5000
7      H7      1.5580   -0.2296   -1.3750 H        1 ZINC000005784191    0.4400
8      H8      2.5797    0.8735   -2.0475 H        1 ZINC000005784191    0.4200
9      C9      3.5252   -0.7545   -1.2667 C.3      1 ZINC000005784191   -0.0100
10     C10     4.8782   -0.0433   -1.1951 C.3      1 ZINC000005784191   -0.1400
11     C11     4.9426    0.7917    0.0870 C.3      1 ZINC000005784191   -0.1700
12     C12     3.7686    1.7749    0.1029 C.3      1 ZINC000005784191    0.1000
13     H13     3.8603    2.4650   -0.7358 H        1 ZINC000005784191    0.0800
14     O14     3.7779    2.5096    1.3286 O.3      1 ZINC000005784191   -0.5500
15     C15    -1.3295    1.9391    0.0189 C.3      1 ZINC000005784191    0.0500
16     N16    -2.4300    0.9721    0.0189 N.am     1 ZINC000005784191   -0.5400
17     C17    -2.9375    0.5300   -1.1615 C.2      1 ZINC000005784191    0.3800
18     N18    -3.9111   -0.3248   -1.2447 N.2      1 ZINC000005784191   -0.5000
19     C19    -4.4981   -0.8443   -0.1372 C.ar     1 ZINC000005784191    0.1500
20     C20    -5.5444   -1.7635   -0.2263 C.ar     1 ZINC000005784191   -0.0600
21     C21    -6.1115   -2.2662    0.9246 C.ar     1 ZINC000005784191   -0.0500
22     Br22   -7.5287   -3.5120    0.8009 Br       1 ZINC000005784191    0.0000
23     C23    -5.6537   -1.8685    2.1760 C.ar     1 ZINC000005784191   -0.0300
24     Cl24   -6.3879   -2.5190    3.6082 Cl       1 ZINC000005784191   -0.0200
25     C25    -4.6210   -0.9619    2.2883 C.ar     1 ZINC000005784191   -0.0200
26     C26    -4.0353   -0.4423    1.1359 C.ar     1 ZINC000005784191   -0.1700
27     C27    -2.9280    0.5231    1.1945 C.2      1 ZINC000005784191    0.5600
28     O28    -2.4794    0.9069    2.2590 O.2      1 ZINC000005784191   -0.4900
29     H29     1.3211    2.6067   -0.8866 H        1 ZINC000005784191    0.1300
30     H30     1.3381    2.5972    0.8933 H        1 ZINC000005784191    0.1600
31     H31     3.4119   -1.4070   -0.4009 H        1 ZINC000005784191    0.1300
32     H32     3.4761   -1.3501   -2.1783 H        1 ZINC000005784191    0.1400
33     H33     5.6784   -0.7833   -1.1881 H        1 ZINC000005784191    0.1200
34     H34     4.9926    0.6093   -2.0606 H        1 ZINC000005784191    0.0900
35     H35     4.8795    0.1340    0.9539 H        1 ZINC000005784191    0.0900
36     H36     5.8815    1.3447    0.1151 H        1 ZINC000005784191    0.1000
37     H37     4.5834    3.0251    1.4720 H        1 ZINC000005784191    0.4100
38     H38    -1.3915    2.5601    0.9126 H        1 ZINC000005784191    0.1500
39     H39    -1.3999    2.5697   -0.8673 H        1 ZINC000005784191    0.1400
40     H40    -2.5092    0.9094   -2.0775 H        1 ZINC000005784191    0.2000
41     H41    -5.9083   -2.0792   -1.1929 H        1 ZINC000005784191    0.1600
42     H42    -4.2691   -0.6563    3.2626 H        1 ZINC000005784191    0.1600
@<TRIPOS>BOND
1     1     2     2
2     2     3     1
3     2     15    1
4     3     4     1
5     3     29    1
6     3     30    1
7     4     5     1
8     4     12    1
9     4     6     1
10    6     7     1
11    6     8     1
12    6     9     1
13    9     10    1
14    9     31    1
15    9     32    1
16    10    11    1
17    10    33    1
18    10    34    1
19    11    12    1
20    11    35    1
21    11    36    1
22    12    13    1
23    12    14    1
24    14    37    1
25    15    16    1
26    15    38    1
27    15    39    1
28    16    27    am
29    16    17    1
30    17    18    2
31    17    40    1
32    18    19    1
33    19    26    ar
34    19    20    ar
35    20    21    ar
36    20    41    1
37    21    22    1
38    21    23    ar
39    23    24    1
40    23    25    ar
41    25    26    ar
42    25    42    1
43    26    27    1
44    27    28    2
@<TRIPOS>SUBSTRUCTURE
1   ZINC000005784191 1     RESIDUE    1   A     ZIN   1
