@<TRIPOS>MOLECULE
ZINC000038314370
  30   31    0    0    0
SMALL
USER_CHARGES
NO_NAME
@<TRIPOS>ATOM
    1 C1        0.0744     1.4664     0.0336 C.3    1 <0>       0.0300
    2 O2        0.0729     0.0374     0.0203 O.3    1 <0>      -0.3100
    3 C3        0.6683    -0.5708    -1.0405 C.ar   1 <0>       0.1300
    4 C4        1.2453     0.1961    -2.0417 C.ar   1 <0>      -0.2200
    5 C5        1.8511    -0.4197    -3.1216 C.ar   1 <0>      -0.0500
    6 C6        1.8756    -1.8042    -3.1925 C.ar   1 <0>      -0.1400
    7 S7        2.6449    -2.6141    -4.5646 S.3    1 <0>      -0.1600
    8 C8        4.0782    -3.4052    -3.7692 C.3    1 <0>      -0.1100
    9 C9        3.6481    -4.7148    -3.1291 C.3    1 <0>       0.1000
   10 N10       2.6983    -4.5510    -2.0374 N.am   1 <0>      -0.6000
   11 C11       3.0848    -4.8367    -0.7783 C.2    1 <0>       0.4500
   12 O12       4.1853    -5.3040    -0.5729 O.2    1 <0>      -0.5500
   13 C13       2.1561    -4.5775     0.3667 C.2    1 <0>       0.5000
   14 O14       2.5409    -4.7401     1.5132 O.co2  1 <0>      -0.6400
   15 O15       1.0143    -4.2036     0.1536 O.co2  1 <0>      -0.6500
   16 C16       1.3317    -4.0817    -2.2790 C.3    1 <0>       0.1300
   17 C17       1.3016    -2.5716    -2.1954 C.ar   1 <0>      -0.0200
   18 C18       0.7009    -1.9564    -1.1137 C.ar   1 <0>      -0.1200
   19 H19       1.1024     1.8287     0.0274 H      1 <0>       0.0500
   20 H20      -0.4474     1.8385    -0.8481 H      1 <0>       0.0500
   21 H21      -0.4307     1.8219     0.9317 H      1 <0>       0.1000
   22 H22       1.2212     1.2740    -1.9781 H      1 <0>       0.1300
   23 H23       2.3014     0.1733    -3.9039 H      1 <0>       0.1300
   24 H24       4.8458    -3.6019    -4.5177 H      1 <0>       0.1100
   25 H25       4.4803    -2.7418    -3.0035 H      1 <0>       0.0800
   26 H26       3.1934    -5.3436    -3.8946 H      1 <0>       0.0700
   27 H27       4.5336    -5.2226    -2.7467 H      1 <0>       0.0900
   28 H28       1.0081    -4.3980    -3.2706 H      1 <0>       0.0800
   29 H29       0.6643    -4.5014    -1.5263 H      1 <0>       0.1500
   30 H30       0.2549    -2.5513    -0.3305 H      1 <0>       0.1800
@<TRIPOS>BOND
   1    1    2 1
   2    1   19 1
   3    1   20 1
   4    1   21 1
   5    2    3 1
   6    3   18 ar
   7    3    4 ar
   8    4    5 ar
   9    4   22 1
  10    5    6 ar
  11    5   23 1
  12    6   17 ar
  13    6    7 1
  14    7    8 1
  15    8    9 1
  16    8   24 1
  17    8   25 1
  18    9   10 1
  19    9   26 1
  20    9   27 1
  21   10   11 am
  22   10   16 1
  23   11   12 2
  24   11   13 1
  25   13   14 ar
  26   13   15 ar
  27   16   17 1
  28   16   28 1
  29   16   29 1
  30   17   18 ar
  31   18   30 1
