@<TRIPOS>MOLECULE
ZINC000198711525
52    55    1     0     0
SMALL
USER_CHARGES
@<TRIPOS>ATOM
1      C1      0.1476    0.9314    1.3429 C.3      1 ZINC000198711525   -0.0500
2      N2      0.0050    0.6306   -0.0879 N.4      1 ZINC000198711525   -0.3800
3      H3     -0.1133    1.4906   -0.6022 H        1 ZINC000198711525    0.4300
4      C4      1.2086   -0.0636   -0.5647 C.3      1 ZINC000198711525   -0.0600
5      C5     -1.1652   -0.2251   -0.2924 C.3      1 ZINC000198711525    0.0300
6      H6     -1.8644   -0.0788    0.5313 H        1 ZINC000198711525    0.1400
7      C7     -0.6876   -1.6536   -0.2572 C.2      1 ZINC000198711525    0.3200
8      O8     -0.6910   -2.3129    0.9026 O.3      1 ZINC000198711525   -0.5800
9      C9     -0.2535   -2.2724   -1.4024 C.2      1 ZINC000198711525   -0.5000
10     C10     0.2313   -3.6625   -1.3455 C.2      1 ZINC000198711525    0.5900
11     N11     0.5387   -4.3160   -2.4835 N.am     1 ZINC000198711525   -0.8700
12     O12     0.3541   -4.2203   -0.2716 O.2      1 ZINC000198711525   -0.5700
13     C13    -0.2808   -1.5588   -2.6792 C.2      1 ZINC000198711525    0.3900
14     O14     0.2674   -2.0490   -3.6530 O.2      1 ZINC000198711525   -0.4900
15     C15    -0.9939   -0.2439   -2.8176 C.3      1 ZINC000198711525    0.0600
16     O16    -1.8792   -0.3861   -3.9461 O.3      1 ZINC000198711525   -0.5400
17     C17    -0.0682    0.8758   -3.1553 C.2      1 ZINC000198711525    0.3700
18     O18     0.8928    0.6297   -3.8600 O.2      1 ZINC000198711525   -0.4800
19     C19    -0.2595    2.1748   -2.7040 C.2      1 ZINC000198711525   -0.5200
20     C20     0.6201    3.1756   -3.0786 C.2      1 ZINC000198711525    0.3600
21     O21     1.7160    2.8845   -3.8116 O.3      1 ZINC000198711525   -0.5800
22     C22     0.3221    4.5693   -2.7101 C.ar     1 ZINC000198711525   -0.1000
23     C23     1.3359    5.5364   -2.7215 C.ar     1 ZINC000198711525    0.1500
24     O24     2.6048    5.2041   -3.0692 O.3      1 ZINC000198711525   -0.4800
25     C25     1.0374    6.8450   -2.3705 C.ar     1 ZINC000198711525   -0.1500
26     C26    -0.2514    7.1873   -2.0201 C.ar     1 ZINC000198711525   -0.0900
27     C27    -1.2610    6.2314   -2.0035 C.ar     1 ZINC000198711525   -0.0500
28     Cl28   -2.8693    6.7256   -1.5738 Cl       1 ZINC000198711525   -0.0500
29     C29    -0.9811    4.9249   -2.3295 C.ar     1 ZINC000198711525   -0.0700
30     C30    -2.0376    3.8509   -2.2915 C.3      1 ZINC000198711525    0.1600
31     H31    -2.4347    3.6918   -3.2921 H        1 ZINC000198711525    0.1200
32     O32    -3.0911    4.2016   -1.3986 O.3      1 ZINC000198711525   -0.5400
33     C33    -1.3964    2.5462   -1.7950 C.3      1 ZINC000198711525   -0.0200
34     H34    -0.9890    2.7695   -0.8013 H        1 ZINC000198711525    0.0200
35     C35    -2.4470    1.4606   -1.6731 C.3      1 ZINC000198711525   -0.1100
36     C36    -1.8675    0.0530   -1.6124 C.3      1 ZINC000198711525   -0.0800
37     H37    -2.7346   -0.6593   -1.6641 H        1 ZINC000198711525    0.1200
38     H38     1.0648    1.4975    1.5054 H        1 ZINC000198711525    0.1100
39     H39    -0.7067    1.5200    1.6774 H        1 ZINC000198711525    0.1100
40     H40     0.1906    0.0000    1.9074 H        1 ZINC000198711525    0.1300
41     H41     1.2713   -1.0456   -0.0960 H        1 ZINC000198711525    0.1300
42     H42     1.1559   -0.1803   -1.6472 H        1 ZINC000198711525    0.1300
43     H43     2.0916    0.5202   -0.3048 H        1 ZINC000198711525    0.1100
44     H44     0.5088   -3.8500   -3.3336 H        1 ZINC000198711525    0.4000
45     H45     0.7897   -5.2524   -2.4523 H        1 ZINC000198711525    0.3800
46     H46    -1.4279   -0.5889   -4.7770 H        1 ZINC000198711525    0.3900
47     H47     2.7889    5.2904   -4.0146 H        1 ZINC000198711525    0.4000
48     H48     1.8161    7.5934   -2.3708 H        1 ZINC000198711525    0.1400
49     H49    -0.4830    8.2077   -1.7514 H        1 ZINC000198711525    0.1300
50     H50    -2.7955    4.3968   -0.4989 H        1 ZINC000198711525    0.3700
51     H51    -3.0507    1.6435   -0.7685 H        1 ZINC000198711525    0.0700
52     H52    -3.1407    1.5326   -2.5266 H        1 ZINC000198711525    0.0900
@<TRIPOS>BOND
1     1     2     1
2     1     38    1
3     1     39    1
4     1     40    1
5     2     3     1
6     2     4     1
7     2     5     1
8     4     41    1
9     4     42    1
10    4     43    1
11    5     6     1
12    5     36    1
13    5     7     1
14    7     8     1
15    7     9     2
16    9     10    1
17    9     13    1
18    10    11    am
19    10    12    2
20    11    44    1
21    11    45    1
22    13    14    2
23    13    15    1
24    15    36    1
25    15    16    1
26    15    17    1
27    16    46    1
28    17    18    2
29    17    19    1
30    19    33    1
31    19    20    2
32    20    21    1
33    20    22    1
34    22    29    ar
35    22    23    ar
36    23    24    1
37    23    25    ar
38    24    47    1
39    25    26    ar
40    25    48    1
41    26    27    ar
42    26    49    1
43    27    28    1
44    27    29    ar
45    29    30    1
46    30    31    1
47    30    32    1
48    30    33    1
49    32    50    1
50    33    34    1
51    33    35    1
52    35    36    1
53    35    51    1
54    35    52    1
55    36    37    1
@<TRIPOS>SUBSTRUCTURE
1   ZINC000198711525 1     RESIDUE    1   A     ZIN   1
