@<TRIPOS>MOLECULE
ZINC000003973984
  55   60    0    0    0
SMALL
USER_CHARGES
NO_NAME
@<TRIPOS>ATOM
    1 C1        0.3950     1.1544    -0.4759 C.3    1 <0>       0.0300
    2 N2        0.2901    -0.3077    -0.3789 N.3    1 <0>      -0.5400
    3 C3       -1.1151    -0.7358    -0.3798 C.3    1 <0>       0.0400
    4 C4       -1.1798    -2.2647    -0.4605 C.3    1 <0>       0.1300
    5 N5       -0.3597    -2.8249     0.6242 N.pl3  1 <0>      -0.5800
    6 C6       -0.8733    -3.7822     1.4810 C.ar   1 <0>       0.5800
    7 N7       -0.0883    -4.2477     2.4450 N.ar   1 <0>      -0.5300
    8 C8       -0.5209    -5.1698     3.3031 C.ar   1 <0>       0.3200
    9 C9        0.3493    -5.6850     4.3715 C.2    1 <0>      -0.1100
   10 C10       0.9152    -4.9549     5.4165 C.2    1 <0>       0.0400
   11 C11       0.7654    -3.5225     5.6740 C.2    1 <0>      -0.1700
   12 C12      -0.3440    -2.8841     6.1989 C.2    1 <0>       0.1100
   13 N13      -0.1028    -1.5614     6.2874 N.pl3  1 <0>      -0.5700
   14 C14       1.1659    -1.2646     5.8295 C.ar   1 <0>       0.0900
   15 C15       1.8784    -0.0761     5.7147 C.ar   1 <0>      -0.1200
   16 C16       3.1613    -0.0883     5.2092 C.ar   1 <0>      -0.1000
   17 C17       3.7527    -1.2775     4.8116 C.ar   1 <0>      -0.1300
   18 C18       3.0624    -2.4665     4.9176 C.ar   1 <0>      -0.0700
   19 C19       1.7693    -2.4688     5.4322 C.ar   1 <0>      -0.0600
   20 C20       1.7022    -5.9316     6.2149 C.2    1 <0>       0.5500
   21 O21       2.3450    -5.6788     7.2130 O.2    1 <0>      -0.4300
   22 N22       1.5802    -7.1419     5.6436 N.am   1 <0>      -0.6800
   23 C23       0.7932    -7.0767     4.5571 C.2    1 <0>       0.5700
   24 O24       0.5022    -8.0128     3.8384 O.2    1 <0>      -0.4400
   25 C25      -1.8941    -5.6515     3.1445 C.ar   1 <0>      -0.1900
   26 C26      -2.4482    -6.6159     3.9890 C.ar   1 <0>      -0.0500
   27 C27      -3.7356    -7.0234     3.7890 C.ar   1 <0>      -0.1400
   28 C28      -4.5014    -6.4905     2.7558 C.ar   1 <0>      -0.0700
   29 C29      -3.9892    -5.5480     1.9143 C.ar   1 <0>      -0.1200
   30 C30      -2.6705    -5.1064     2.0913 C.ar   1 <0>       0.2100
   31 N31      -2.1175    -4.1787     1.2989 N.ar   1 <0>      -0.5700
   32 C32       1.0211    -2.3409     0.7738 C.3    1 <0>       0.1300
   33 C33       0.9991    -0.8090     0.8059 C.3    1 <0>       0.0400
   34 H34       1.4445     1.4392    -0.5501 H      1 <0>       0.0700
   35 H35      -0.1385     1.4990    -1.3617 H      1 <0>       0.0700
   36 H36      -0.0430     1.6097     0.4123 H      1 <0>       0.0200
   37 H37      -1.5985    -0.3992     0.5374 H      1 <0>       0.0400
   38 H38      -1.6263    -0.3042    -1.2403 H      1 <0>       0.0900
   39 H39      -2.2126    -2.5940    -0.3463 H      1 <0>       0.1000
   40 H40      -0.7908    -2.5973    -1.4229 H      1 <0>       0.0700
   41 H41      -1.2624    -3.3710     6.4920 H      1 <0>       0.1800
   42 H42      -0.7338    -0.9072     6.6263 H      1 <0>       0.4200
   43 H43       1.4272     0.8561     6.0211 H      1 <0>       0.1200
   44 H44       3.7104     0.8375     5.1217 H      1 <0>       0.1300
   45 H45       4.7581    -1.2727     4.4170 H      1 <0>       0.1300
   46 H46       3.5247    -3.3919     4.6075 H      1 <0>       0.1200
   47 H47       1.9995    -7.9522     5.9732 H      1 <0>       0.4300
   48 H48      -1.8629    -7.0361     4.7935 H      1 <0>       0.1200
   49 H49      -4.1657    -7.7693     4.4409 H      1 <0>       0.1300
   50 H50      -5.5176    -6.8295     2.6184 H      1 <0>       0.1300
   51 H51      -4.5953    -5.1444     1.1167 H      1 <0>       0.1400
   52 H52       1.4435    -2.7206     1.7041 H      1 <0>       0.1000
   53 H53       1.6217    -2.6808    -0.0699 H      1 <0>       0.0700
   54 H54       2.0213    -0.4305     0.8053 H      1 <0>       0.0900
   55 H55       0.4864    -0.4714     1.7066 H      1 <0>       0.0400
@<TRIPOS>BOND
   1    1    2 1
   2    1   34 1
   3    1   35 1
   4    1   36 1
   5    2   33 1
   6    2    3 1
   7    3    4 1
   8    3   37 1
   9    3   38 1
  10    4    5 1
  11    4   39 1
  12    4   40 1
  13    5    6 1
  14    5   32 1
  15    6   31 ar
  16    6    7 ar
  17    7    8 ar
  18    8    9 1
  19    8   25 ar
  20    9   23 1
  21    9   10 2
  22   10   11 1
  23   10   20 1
  24   11   19 1
  25   11   12 2
  26   12   13 1
  27   12   41 1
  28   13   14 1
  29   13   42 1
  30   14   19 ar
  31   14   15 ar
  32   15   16 ar
  33   15   43 1
  34   16   17 ar
  35   16   44 1
  36   17   18 ar
  37   17   45 1
  38   18   19 ar
  39   18   46 1
  40   20   21 2
  41   20   22 am
  42   22   23 am
  43   22   47 1
  44   23   24 2
  45   25   30 ar
  46   25   26 ar
  47   26   27 ar
  48   26   48 1
  49   27   28 ar
  50   27   49 1
  51   28   29 ar
  52   28   50 1
  53   29   30 ar
  54   29   51 1
  55   30   31 ar
  56   32   33 1
  57   32   52 1
  58   32   53 1
  59   33   54 1
  60   33   55 1
