@<TRIPOS>MOLECULE
ZINC000001532358
43    44    1     0     0
SMALL
USER_CHARGES
@<TRIPOS>ATOM
1      C1     -1.6062    1.3580   -1.0031 C.3      1 ZINC000001532358   -0.1600
2      C2     -1.3742   -0.1489   -0.8762 C.3      1 ZINC000001532358   -0.1300
3      C3     -0.4663   -0.6226   -2.0130 C.3      1 ZINC000001532358   -0.1200
4      C4     -0.2343   -2.1296   -1.8862 C.3      1 ZINC000001532358   -0.1200
5      C5      0.6735   -2.6033   -3.0230 C.3      1 ZINC000001532358   -0.1200
6      C6      0.9056   -4.1103   -2.8961 C.3      1 ZINC000001532358    0.0600
7      O7      1.7535   -4.5527   -3.9579 O.3      1 ZINC000001532358   -0.2900
8      C8      2.0604   -5.8762   -3.9917 C.2      1 ZINC000001532358    0.2800
9      N9      1.6203   -6.7472   -3.1189 N.2      1 ZINC000001532358   -0.5500
10     S10     2.2670   -8.2442   -3.5759 S.3      1 ZINC000001532358    0.6300
11     N11     3.0583   -7.7470   -4.8275 N.2      1 ZINC000001532358   -0.5100
12     C12     2.8737   -6.4578   -4.9628 C.2      1 ZINC000001532358    0.0800
13     C13     3.4891   -5.6771   -6.0560 C.2      1 ZINC000001532358   -0.0900
14     C14     4.1514   -6.3215   -6.9929 C.2      1 ZINC000001532358   -0.0900
15     C15     4.8165   -5.6128   -8.1406 C.3      1 ZINC000001532358   -0.1200
16     C16     4.2700   -4.1869   -8.2485 C.3      1 ZINC000001532358   -0.0100
17     N17     4.3321   -3.5585   -6.9195 N.4      1 ZINC000001532358   -0.3900
18     H18     5.2517   -3.6909   -6.5260 H        1 ZINC000001532358    0.4300
19     C19     4.0518   -2.1217   -7.0415 C.3      1 ZINC000001532358   -0.0500
20     C20     3.3257   -4.1845   -6.0512 C.3      1 ZINC000001532358    0.0500
21     H21    -0.6505    1.8789   -0.9459 H        1 ZINC000001532358    0.0500
22     H22    -2.0806    1.5733   -1.9606 H        1 ZINC000001532358    0.0500
23     H23    -2.2530    1.6955   -0.1932 H        1 ZINC000001532358    0.0600
24     H24    -0.8998   -0.3642    0.0813 H        1 ZINC000001532358    0.0600
25     H25    -2.3300   -0.6698   -0.9334 H        1 ZINC000001532358    0.0600
26     H26    -0.9407   -0.4074   -2.9705 H        1 ZINC000001532358    0.0600
27     H27     0.4894   -0.1018   -1.9558 H        1 ZINC000001532358    0.0600
28     H28     0.2401   -2.3448   -0.9287 H        1 ZINC000001532358    0.0700
29     H29    -1.1901   -2.6505   -1.9434 H        1 ZINC000001532358    0.0700
30     H30     0.1992   -2.3881   -3.9805 H        1 ZINC000001532358    0.0700
31     H31     1.6293   -2.0824   -2.9658 H        1 ZINC000001532358    0.0700
32     H32     1.3800   -4.3255   -1.9386 H        1 ZINC000001532358    0.0800
33     H33    -0.0502   -4.6312   -2.9533 H        1 ZINC000001532358    0.0800
34     H34     4.2200   -7.3978   -6.9354 H        1 ZINC000001532358    0.1500
35     H35     5.8926   -5.5773   -7.9709 H        1 ZINC000001532358    0.1100
36     H36     4.6128   -6.1507   -9.0665 H        1 ZINC000001532358    0.1300
37     H37     4.8753   -3.6153   -8.9521 H        1 ZINC000001532358    0.1400
38     H38     3.2358   -4.2163   -8.5914 H        1 ZINC000001532358    0.1300
39     H39     3.0568   -1.9801   -7.4634 H        1 ZINC000001532358    0.1200
40     H40     4.0981   -1.6575   -6.0563 H        1 ZINC000001532358    0.1300
41     H41     4.7926   -1.6612   -7.6952 H        1 ZINC000001532358    0.1300
42     H42     2.3293   -3.9236   -6.4080 H        1 ZINC000001532358    0.1500
43     H43     3.4488   -3.8160   -5.0328 H        1 ZINC000001532358    0.1500
@<TRIPOS>BOND
1     1     2     1
2     1     21    1
3     1     22    1
4     1     23    1
5     2     3     1
6     2     24    1
7     2     25    1
8     3     4     1
9     3     26    1
10    3     27    1
11    4     5     1
12    4     28    1
13    4     29    1
14    5     6     1
15    5     30    1
16    5     31    1
17    6     7     1
18    6     32    1
19    6     33    1
20    7     8     1
21    8     12    1
22    8     9     2
23    9     10    1
24    10    11    1
25    11    12    2
26    12    13    1
27    13    20    1
28    13    14    2
29    14    15    1
30    14    34    1
31    15    16    1
32    15    35    1
33    15    36    1
34    16    17    1
35    16    37    1
36    16    38    1
37    17    18    1
38    17    19    1
39    17    20    1
40    19    39    1
41    19    40    1
42    19    41    1
43    20    42    1
44    20    43    1
@<TRIPOS>SUBSTRUCTURE
1   ZINC000001532358 1     RESIDUE    1   A     ZIN   1
