@<TRIPOS>MOLECULE
ZINC000103297739
56    58    1     0     0
SMALL
USER_CHARGES
@<TRIPOS>ATOM
1      C1      2.6142    1.3565    3.7767 C.3      1 ZINC000103297739    0.0900
2      N2      2.5444   -0.0889    3.5477 N.am     1 ZINC000103297739   -0.7300
3      C3      1.4588   -0.6259    2.9565 C.2      1 ZINC000103297739    0.5600
4      O4      0.5373    0.0892    2.6132 O.2      1 ZINC000103297739   -0.5400
5      C5      1.3886   -2.0816    2.7260 C.ar     1 ZINC000103297739   -0.1600
6      C6      2.4447   -2.9057    3.1252 C.ar     1 ZINC000103297739   -0.0600
7      C7      2.3762   -4.2631    2.9087 C.ar     1 ZINC000103297739   -0.1200
8      C8      1.2571   -4.8154    2.2924 C.ar     1 ZINC000103297739    0.1900
9      N9      1.1910   -6.1890    2.0743 N.pl3    1 ZINC000103297739   -0.6300
10     C10     1.7821   -7.0624    2.9732 C.ar     1 ZINC000103297739    0.6200
11     N11     2.3097   -6.5816    4.0890 N.ar     1 ZINC000103297739   -0.5800
12     C12     2.8831   -7.3852    4.9729 C.ar     1 ZINC000103297739    0.2700
13     C13     2.9285   -8.7424    4.7222 C.ar     1 ZINC000103297739   -0.4100
14     C14     3.5721   -9.6865    5.7049 C.3      1 ZINC000103297739    0.5300
15     F15     4.0560   -8.9618    6.7994 F        1 ZINC000103297739   -0.1700
16     F16     2.6259  -10.6186    6.1443 F        1 ZINC000103297739   -0.1800
17     F17     4.6320  -10.3554    5.0833 F        1 ZINC000103297739   -0.1800
18     C18     2.3639   -9.2204    3.5373 C.ar     1 ZINC000103297739    0.5300
19     N19     2.3860  -10.5742    3.2443 N.pl3    1 ZINC000103297739   -0.6900
20     C20     1.7907  -11.0638    1.9985 C.3      1 ZINC000103297739    0.1900
21     C21     1.9460  -12.5608    1.9219 C.ar     1 ZINC000103297739    0.0800
22     N22     3.0642  -13.0863    1.4595 N.ar     1 ZINC000103297739   -0.4100
23     C23     3.2012  -14.4002    1.3920 C.ar     1 ZINC000103297739    0.0600
24     C24     2.1748  -15.2279    1.8045 C.ar     1 ZINC000103297739    0.0800
25     N25     1.0503  -14.7094    2.2689 N.ar     1 ZINC000103297739   -0.4400
26     C26     0.9109  -13.3923    2.3447 C.ar     1 ZINC000103297739    0.3200
27     N27    -0.2693  -12.8432    2.8322 N.am     1 ZINC000103297739   -0.9400
28     C28    -0.3719  -12.4621    4.2430 C.3      1 ZINC000103297739    0.0900
29     S29    -1.5594  -12.6199    1.8183 S.o2     1 ZINC000103297739    2.6000
30     C30    -2.4986  -14.1676    1.9331 C.3      1 ZINC000103297739   -0.6600
31     O31    -2.2867  -11.5504    2.4069 O.2      1 ZINC000103297739   -0.9300
32     O32    -0.9739  -12.4863    0.5304 O.2      1 ZINC000103297739   -0.9400
33     N33     1.8005   -8.3579    2.6977 N.ar     1 ZINC000103297739   -0.6100
34     C34     0.2036   -3.9976    1.8940 C.ar     1 ZINC000103297739   -0.1500
35     C35     0.2634   -2.6401    2.1129 C.ar     1 ZINC000103297739   -0.0300
36     H36     1.7869    1.6633    4.4167 H        1 ZINC000103297739    0.0600
37     H37     3.5590    1.6024    4.2612 H        1 ZINC000103297739    0.0800
38     H38     2.5484    1.8791    2.8224 H        1 ZINC000103297739    0.0600
39     H39     3.2796   -0.6593    3.8216 H        1 ZINC000103297739    0.4000
40     H40     3.3137   -2.4776    3.6028 H        1 ZINC000103297739    0.1300
41     H41     3.1919   -4.9003    3.2169 H        1 ZINC000103297739    0.1400
42     H42     0.7313   -6.5346    1.2932 H        1 ZINC000103297739    0.4300
43     H43     3.3106   -6.9829    5.8794 H        1 ZINC000103297739    0.1800
44     H44     2.7956  -11.1979    3.8641 H        1 ZINC000103297739    0.4100
45     H45     0.7317  -10.8068    1.9762 H        1 ZINC000103297739    0.0900
46     H46     2.2945  -10.6024    1.1491 H        1 ZINC000103297739    0.1000
47     H47     4.1179  -14.8272    1.0130 H        1 ZINC000103297739    0.1800
48     H48     2.2908  -16.3001    1.7473 H        1 ZINC000103297739    0.1800
49     H49    -0.1396  -11.4026    4.3510 H        1 ZINC000103297739    0.0700
50     H50    -1.3854  -12.6497    4.5973 H        1 ZINC000103297739    0.0800
51     H51     0.3331  -13.0503    4.8305 H        1 ZINC000103297739    0.0800
52     H52    -2.8141  -14.3254    2.9644 H        1 ZINC000103297739    0.1300
53     H53    -3.3763  -14.1085    1.2896 H        1 ZINC000103297739    0.1300
54     H54    -1.8696  -14.9988    1.6143 H        1 ZINC000103297739    0.1300
55     H55    -0.6635   -4.4292    1.4161 H        1 ZINC000103297739    0.1400
56     H56    -0.5543   -2.0061    1.8036 H        1 ZINC000103297739    0.1400
@<TRIPOS>BOND
1     1     2     1
2     1     36    1
3     1     37    1
4     1     38    1
5     2     3     am
6     2     39    1
7     3     4     2
8     3     5     1
9     5     35    ar
10    5     6     ar
11    6     7     ar
12    6     40    1
13    7     8     ar
14    7     41    1
15    8     9     1
16    8     34    ar
17    9     10    1
18    9     42    1
19    10    33    ar
20    10    11    ar
21    11    12    ar
22    12    13    ar
23    12    43    1
24    13    14    1
25    13    18    ar
26    14    15    1
27    14    16    1
28    14    17    1
29    18    19    1
30    18    33    ar
31    19    20    1
32    19    44    1
33    20    21    1
34    20    45    1
35    20    46    1
36    21    26    ar
37    21    22    ar
38    22    23    ar
39    23    24    ar
40    23    47    1
41    24    25    ar
42    24    48    1
43    25    26    ar
44    26    27    1
45    27    28    1
46    27    29    am
47    28    49    1
48    28    50    1
49    28    51    1
50    29    30    1
51    29    31    2
52    29    32    2
53    30    52    1
54    30    53    1
55    30    54    1
56    34    35    ar
57    34    55    1
58    35    56    1
@<TRIPOS>SUBSTRUCTURE
1   ZINC000103297739 1     RESIDUE    1   A     ZIN   1
