@<TRIPOS>MOLECULE
ZINC000036475284
56    59    1     0     0
SMALL
USER_CHARGES
@<TRIPOS>ATOM
1      C1      1.5387    1.8092    0.0943 C.3      1 ZINC000036475284   -0.1500
2      C2      1.5776    0.2814    0.1651 C.3      1 ZINC000036475284   -0.1400
3      C3      1.6900   -0.2920   -1.2489 C.3      1 ZINC000036475284    0.1200
4      N4      1.7272   -1.7550   -1.1811 N.am     1 ZINC000036475284   -0.7300
5      C5      1.8248   -2.4798   -2.3131 C.2      1 ZINC000036475284    0.5900
6      O6      1.8819   -1.9195   -3.3908 O.2      1 ZINC000036475284   -0.5300
7      C7      1.8622   -3.9525   -2.2449 C.2      1 ZINC000036475284   -0.2100
8      C8      1.8003   -4.7239   -1.0957 C.2      1 ZINC000036475284    0.1000
9      N9      1.8629   -6.0177   -1.4409 N.pl3    1 ZINC000036475284   -0.2300
10     N10     1.8427   -7.2044   -0.6928 N.2      1 ZINC000036475284   -0.3600
11     C11     1.9206   -8.3586   -1.2947 C.2      1 ZINC000036475284    0.3400
12     N12     2.0212   -8.4668   -2.6185 N.2      1 ZINC000036475284   -0.6100
13     C13     2.0475   -7.4013   -3.4010 C.2      1 ZINC000036475284    0.5300
14     N14     2.1519   -7.5425   -4.7698 N.pl3    1 ZINC000036475284   -0.6200
15     C15     2.3101   -8.8130   -5.3315 C.ar     1 ZINC000036475284    0.1300
16     C16     1.7643   -9.9217   -4.7030 C.ar     1 ZINC000036475284   -0.0500
17     C17     1.9245  -11.1869   -5.2678 C.ar     1 ZINC000036475284   -0.1300
18     C18     1.3451  -12.3744   -4.6040 C.2      1 ZINC000036475284    0.5700
19     O19     0.7280  -12.2488   -3.5644 O.2      1 ZINC000036475284   -0.5300
20     N20     1.5013  -13.5959   -5.1517 N.am     1 ZINC000036475284   -0.7000
21     C21     0.9272  -14.7724   -4.4940 C.3      1 ZINC000036475284    0.0800
22     C22     0.2114  -15.7964   -5.3771 C.3      1 ZINC000036475284   -0.1900
23     C23     1.5788  -16.1276   -4.7760 C.3      1 ZINC000036475284   -0.1900
24     C24     2.6332  -11.3284   -6.4620 C.ar     1 ZINC000036475284   -0.0900
25     C25     3.1732  -10.2185   -7.0798 C.ar     1 ZINC000036475284   -0.1100
26     C26     3.0097   -8.9640   -6.5233 C.ar     1 ZINC000036475284   -0.0800
27     C27     3.6025   -7.7574   -7.2042 C.3      1 ZINC000036475284   -0.1300
28     C28     1.9665   -6.1125   -2.8170 C.2      1 ZINC000036475284   -0.1200
29     C29     1.9617   -4.8383   -3.3374 C.2      1 ZINC000036475284   -0.0200
30     C30     2.0495   -4.4623   -4.7941 C.3      1 ZINC000036475284   -0.1000
31     H31     2.4525    2.1746   -0.3744 H        1 ZINC000036475284    0.0600
32     H32     0.6773    2.1238   -0.4949 H        1 ZINC000036475284    0.0600
33     H33     1.4586    2.2177    1.1017 H        1 ZINC000036475284    0.0600
34     H34     2.4390   -0.0332    0.7543 H        1 ZINC000036475284    0.0700
35     H35     0.6638   -0.0840    0.6338 H        1 ZINC000036475284    0.0700
36     H36     0.8286    0.0226   -1.8381 H        1 ZINC000036475284    0.0700
37     H37     2.6037    0.0733   -1.7176 H        1 ZINC000036475284    0.0700
38     H38     1.6816   -2.2020   -0.3214 H        1 ZINC000036475284    0.4000
39     H39     1.7160   -4.3453   -0.0877 H        1 ZINC000036475284    0.1900
40     H40     1.9031   -9.2590   -0.6985 H        1 ZINC000036475284    0.2200
41     H41     2.1156   -6.7602   -5.3422 H        1 ZINC000036475284    0.4300
42     H42     1.2172   -9.8061   -3.7790 H        1 ZINC000036475284    0.1700
43     H43     1.9938  -13.6961   -5.9814 H        1 ZINC000036475284    0.4000
44     H44     0.5286  -14.6040   -3.4936 H        1 ZINC000036475284    0.1400
45     H45    -0.6585  -16.3019   -4.9577 H        1 ZINC000036475284    0.1000
46     H46     0.1676  -15.5948   -6.4474 H        1 ZINC000036475284    0.1000
47     H47     2.4346  -16.1439   -5.4508 H        1 ZINC000036475284    0.1000
48     H48     1.6085  -16.8510   -3.9612 H        1 ZINC000036475284    0.1100
49     H49     2.7594  -12.3064   -6.9024 H        1 ZINC000036475284    0.1300
50     H50     3.7218  -10.3302   -8.0033 H        1 ZINC000036475284    0.1400
51     H51     2.8772   -7.3421   -7.9039 H        1 ZINC000036475284    0.0800
52     H52     3.8569   -7.0065   -6.4562 H        1 ZINC000036475284    0.0700
53     H53     4.5022   -8.0508   -7.7451 H        1 ZINC000036475284    0.0800
54     H54     1.0564   -4.5064   -5.2412 H        1 ZINC000036475284    0.0800
55     H55     2.4442   -3.4503   -4.8849 H        1 ZINC000036475284    0.1000
56     H56     2.7114   -5.1581   -5.3097 H        1 ZINC000036475284    0.0600
@<TRIPOS>BOND
1     1     2     1
2     1     31    1
3     1     32    1
4     1     33    1
5     2     3     1
6     2     34    1
7     2     35    1
8     3     4     1
9     3     36    1
10    3     37    1
11    4     5     am
12    4     38    1
13    5     6     2
14    5     7     1
15    7     29    1
16    7     8     2
17    8     9     1
18    8     39    1
19    9     28    1
20    9     10    1
21    10    11    2
22    11    12    1
23    11    40    1
24    12    13    2
25    13    14    1
26    13    28    1
27    14    15    1
28    14    41    1
29    15    26    ar
30    15    16    ar
31    16    17    ar
32    16    42    1
33    17    18    1
34    17    24    ar
35    18    19    2
36    18    20    am
37    20    21    1
38    20    43    1
39    21    23    1
40    21    22    1
41    21    44    1
42    22    23    1
43    22    45    1
44    22    46    1
45    23    47    1
46    23    48    1
47    24    25    ar
48    24    49    1
49    25    26    ar
50    25    50    1
51    26    27    1
52    27    51    1
53    27    52    1
54    27    53    1
55    28    29    2
56    29    30    1
57    30    54    1
58    30    55    1
59    30    56    1
@<TRIPOS>SUBSTRUCTURE
1   ZINC000036475284 1     RESIDUE    1   A     ZIN   1
