@<TRIPOS>MOLECULE
ZINC000004215557
66    65    1     0     0
SMALL
USER_CHARGES
@<TRIPOS>ATOM
1      N1     -0.0160    1.3277    0.0093 N.pl3    1 ZINC000004215557   -0.7900
2      C2      0.0021   -0.0041    0.0020 C.cat    1 ZINC000004215557    0.7400
3      N3      1.1645   -0.6543   -0.0126 N.pl3    1 ZINC000004215557   -0.8000
4      H4      1.9978   -0.1579   -0.0179 H        1 ZINC000004215557    0.4400
5      H5      1.1776   -1.6242   -0.0179 H        1 ZINC000004215557    0.4400
6      N6     -1.1731   -0.7040    0.0095 N.pl3    1 ZINC000004215557   -0.6900
7      C7     -2.4516    0.0111    0.0255 C.3      1 ZINC000004215557    0.0900
8      C8     -3.6008   -0.9989    0.0311 C.3      1 ZINC000004215557   -0.1300
9      C9     -4.9360   -0.2520    0.0478 C.3      1 ZINC000004215557   -0.1200
10     C10    -6.0853   -1.2619    0.0534 C.3      1 ZINC000004215557   -0.1200
11     C11    -7.4205   -0.5151    0.0701 C.3      1 ZINC000004215557   -0.1100
12     C12    -8.5698   -1.5250    0.0757 C.3      1 ZINC000004215557   -0.1400
13     C13    -9.8850   -0.7894    0.0922 C.2      1 ZINC000004215557    0.5200
14     O14    -9.9014    0.4233    0.0989 O.2      1 ZINC000004215557   -0.5200
15     N15   -11.0429   -1.4791    0.0996 N.am     1 ZINC000004215557   -0.7400
16     C16   -12.3213   -0.7639    0.1156 C.3      1 ZINC000004215557    0.3100
17     H17   -12.1636    0.2544    0.4711 H        1 ZINC000004215557    0.1600
18     O18   -12.8639   -0.7284   -1.2059 O.3      1 ZINC000004215557   -0.5400
19     C19   -13.2823   -1.4735    1.0343 C.2      1 ZINC000004215557    0.4900
20     O20   -13.6036   -0.9636    2.0868 O.2      1 ZINC000004215557   -0.5100
21     N21   -13.7848   -2.6747    0.6864 N.am     1 ZINC000004215557   -0.7300
22     C22   -14.7190   -3.3645    1.5794 C.3      1 ZINC000004215557    0.1200
23     C23   -15.1340   -4.6971    0.9526 C.3      1 ZINC000004215557   -0.1300
24     C24   -16.1097   -5.4175    1.8853 C.3      1 ZINC000004215557   -0.1200
25     C25   -16.5248   -6.7501    1.2585 C.3      1 ZINC000004215557    0.0600
26     N26   -17.4616   -7.4417    2.1541 N.3      1 ZINC000004215557   -0.6900
27     C27   -17.8827   -8.7282    1.5835 C.3      1 ZINC000004215557    0.0600
28     C28   -18.8555   -9.4175    2.5424 C.3      1 ZINC000004215557   -0.1500
29     C29   -19.2941  -10.7574    1.9481 C.3      1 ZINC000004215557   -0.0100
30     N30   -20.2281  -11.4191    2.8688 N.4      1 ZINC000004215557   -0.6400
31     H31   -19.7717  -11.5774    3.7546 H        1 ZINC000004215557    0.4400
32     H32   -21.0367  -10.8318    3.0072 H        1 ZINC000004215557    0.4400
33     H33   -20.5173  -12.3028    2.4769 H        1 ZINC000004215557    0.4400
34     H34     0.8174    1.8241    0.0041 H        1 ZINC000004215557    0.4400
35     H35    -0.8625    1.8013    0.0159 H        1 ZINC000004215557    0.4400
36     H36    -1.1599   -1.6739    0.0041 H        1 ZINC000004215557    0.4400
37     H37    -2.5093    0.6321    0.9194 H        1 ZINC000004215557    0.0900
38     H38    -2.5263    0.6417   -0.8604 H        1 ZINC000004215557    0.0900
39     H39    -3.5431   -1.6199   -0.8628 H        1 ZINC000004215557    0.0800
40     H40    -3.5261   -1.6294    0.9170 H        1 ZINC000004215557    0.0800
41     H41    -4.9938    0.3691    0.9418 H        1 ZINC000004215557    0.0700
42     H42    -5.0108    0.3786   -0.8381 H        1 ZINC000004215557    0.0700
43     H43    -6.0276   -1.8830   -0.8405 H        1 ZINC000004215557    0.0700
44     H44    -6.0106   -1.8925    0.9393 H        1 ZINC000004215557    0.0700
45     H45    -7.4783    0.1060    0.9641 H        1 ZINC000004215557    0.0700
46     H46    -7.4953    0.1155   -0.8158 H        1 ZINC000004215557    0.0700
47     H47    -8.5121   -2.1460   -0.8182 H        1 ZINC000004215557    0.1000
48     H48    -8.4951   -2.1556    0.9616 H        1 ZINC000004215557    0.1000
49     H49   -11.0297   -2.4490    0.0942 H        1 ZINC000004215557    0.4000
50     H50   -13.0302   -1.6018   -1.5864 H        1 ZINC000004215557    0.3700
51     H51   -13.5278   -3.0825   -0.1554 H        1 ZINC000004215557    0.4000
52     H52   -14.2354   -3.5492    2.5387 H        1 ZINC000004215557    0.0700
53     H53   -15.6020   -2.7437    1.7313 H        1 ZINC000004215557    0.0700
54     H54   -15.6177   -4.5124   -0.0066 H        1 ZINC000004215557    0.0700
55     H55   -14.2511   -5.3179    0.8008 H        1 ZINC000004215557    0.0700
56     H56   -15.6261   -5.6022    2.8446 H        1 ZINC000004215557    0.0700
57     H57   -16.9927   -4.7967    2.0372 H        1 ZINC000004215557    0.0800
58     H58   -17.0084   -6.5654    0.2993 H        1 ZINC000004215557    0.0800
59     H59   -15.6418   -7.3708    1.1067 H        1 ZINC000004215557    0.0400
60     H60   -17.0595   -7.5671    3.0709 H        1 ZINC000004215557    0.3500
61     H61   -18.3757   -8.5573    0.6265 H        1 ZINC000004215557    0.0800
62     H62   -17.0091   -9.3627    1.4339 H        1 ZINC000004215557    0.0400
63     H63   -18.3624   -9.5884    3.4994 H        1 ZINC000004215557    0.0900
64     H64   -19.7290   -8.7830    2.6919 H        1 ZINC000004215557    0.1000
65     H65   -19.7871  -10.5864    0.9911 H        1 ZINC000004215557    0.1400
66     H66   -18.4205  -11.3919    1.7985 H        1 ZINC000004215557    0.1300
@<TRIPOS>BOND
1     1     2     ar
2     1     34    1
3     1     35    1
4     2     3     ar
5     2     6     ar
6     3     4     1
7     3     5     1
8     6     7     1
9     6     36    1
10    7     8     1
11    7     37    1
12    7     38    1
13    8     9     1
14    8     39    1
15    8     40    1
16    9     10    1
17    9     41    1
18    9     42    1
19    10    11    1
20    10    43    1
21    10    44    1
22    11    12    1
23    11    45    1
24    11    46    1
25    12    13    1
26    12    47    1
27    12    48    1
28    13    14    2
29    13    15    am
30    15    16    1
31    15    49    1
32    16    17    1
33    16    18    1
34    16    19    1
35    18    50    1
36    19    20    2
37    19    21    am
38    21    22    1
39    21    51    1
40    22    23    1
41    22    52    1
42    22    53    1
43    23    24    1
44    23    54    1
45    23    55    1
46    24    25    1
47    24    56    1
48    24    57    1
49    25    26    1
50    25    58    1
51    25    59    1
52    26    27    1
53    26    60    1
54    27    28    1
55    27    61    1
56    27    62    1
57    28    29    1
58    28    63    1
59    28    64    1
60    29    30    1
61    29    65    1
62    29    66    1
63    30    31    1
64    30    32    1
65    30    33    1
@<TRIPOS>SUBSTRUCTURE
1   ZINC000004215557 1     RESIDUE    1   A     ZIN   1
