@<TRIPOS>MOLECULE
ZINC000013986943
54    57    1     0     0
SMALL
USER_CHARGES
@<TRIPOS>ATOM
1      C1     -0.0828    1.5758    0.0535 C.3      1 ZINC000013986943    0.0200
2      O2     -0.0732    0.1474    0.0152 O.3      1 ZINC000013986943   -0.2900
3      C3     -1.2810   -0.4788    0.0220 C.ar     1 ZINC000013986943    0.1700
4      C4     -1.3396   -1.8931   -0.0087 C.ar     1 ZINC000013986943    0.1000
5      N5     -0.3228   -2.7782   -0.0462 N.2      1 ZINC000013986943   -0.4500
6      C6     -0.6159   -4.0317   -0.0694 C.2      1 ZINC000013986943    0.3400
7      N7      0.3115   -5.0610   -0.1079 N.am     1 ZINC000013986943   -0.6400
8      C8      1.6296   -4.7802   -0.1241 C.2      1 ZINC000013986943    0.7000
9      O9      2.0044   -3.6263   -0.2014 O.2      1 ZINC000013986943   -0.5200
10     N10     2.5322   -5.7787   -0.0547 N.am     1 ZINC000013986943   -0.6200
11     C11     2.0991   -7.1824   -0.0796 C.3      1 ZINC000013986943    0.1100
12     C12     2.6904   -7.9025    1.1364 C.3      1 ZINC000013986943   -0.1200
13     C13     4.2090   -7.7134    1.1475 C.3      1 ZINC000013986943    0.1300
14     C14     4.8069   -8.4602    2.3416 C.3      1 ZINC000013986943   -0.1800
15     O15     4.7623   -8.2318   -0.0637 O.3      1 ZINC000013986943   -0.5600
16     C16     4.5384   -6.2232    1.2613 C.3      1 ZINC000013986943   -0.1600
17     C17     3.9685   -5.4841    0.0411 C.3      1 ZINC000013986943    0.1400
18     S18    -2.3600   -4.2518   -0.0441 S.3      1 ZINC000013986943    0.0900
19     C19    -2.5931   -2.5059   -0.0008 C.ar     1 ZINC000013986943   -0.1500
20     C20    -3.7588   -1.7334    0.0363 C.ar     1 ZINC000013986943    0.1200
21     N21    -5.0122   -2.3597    0.0445 N.3      1 ZINC000013986943   -0.4900
22     C22    -6.0918   -1.3805   -0.1479 C.3      1 ZINC000013986943    0.0100
23     C23    -7.4356   -2.1127   -0.1921 C.3      1 ZINC000013986943    0.0600
24     O24    -7.5997   -2.8705    1.0096 O.3      1 ZINC000013986943   -0.3800
25     C25    -6.5660   -3.8344    1.2281 C.3      1 ZINC000013986943    0.0600
26     C26    -5.2134   -3.1197    1.2868 C.3      1 ZINC000013986943    0.0200
27     C27    -3.6774   -0.3538    0.0655 C.ar     1 ZINC000013986943   -0.1100
28     C28    -2.4363    0.2667    0.0645 C.ar     1 ZINC000013986943   -0.1800
29     H29     0.9422    1.9464    0.0434 H        1 ZINC000013986943    0.1000
30     H30    -0.6163    1.9591   -0.8164 H        1 ZINC000013986943    0.0600
31     H31    -0.5816    1.9116    0.9626 H        1 ZINC000013986943    0.0600
32     H32     0.0119   -5.9835   -0.1231 H        1 ZINC000013986943    0.4200
33     H33     1.0109   -7.2298   -0.0389 H        1 ZINC000013986943    0.0700
34     H34     2.4537   -7.6580   -0.9940 H        1 ZINC000013986943    0.0900
35     H35     2.2650   -7.4848    2.0489 H        1 ZINC000013986943    0.0800
36     H36     2.4566   -8.9656    1.0789 H        1 ZINC000013986943    0.0900
37     H37     4.5735   -9.5218    2.2601 H        1 ZINC000013986943    0.0700
38     H38     5.8885   -8.3256    2.3497 H        1 ZINC000013986943    0.0600
39     H39     4.3847   -8.0652    3.2656 H        1 ZINC000013986943    0.0700
40     H40     5.7234   -8.1455   -0.1257 H        1 ZINC000013986943    0.3800
41     H41     4.0957   -5.8213    2.1727 H        1 ZINC000013986943    0.0800
42     H42     5.6199   -6.0910    1.2928 H        1 ZINC000013986943    0.0800
43     H43     4.4773   -5.8224   -0.8615 H        1 ZINC000013986943    0.0800
44     H44     4.1127   -4.4107    0.1639 H        1 ZINC000013986943    0.1000
45     H45    -6.0911   -0.6708    0.6794 H        1 ZINC000013986943    0.0600
46     H46    -5.9367   -0.8473   -1.0858 H        1 ZINC000013986943    0.1000
47     H47    -8.2435   -1.3859   -0.2773 H        1 ZINC000013986943    0.1000
48     H48    -7.4565   -2.7834   -1.0511 H        1 ZINC000013986943    0.0600
49     H49    -6.7450   -4.3527    2.1701 H        1 ZINC000013986943    0.1000
50     H50    -6.5617   -4.5551    0.4104 H        1 ZINC000013986943    0.0600
51     H51    -4.4171   -3.8559    1.3961 H        1 ZINC000013986943    0.0900
52     H52    -5.1986   -2.4377    2.1370 H        1 ZINC000013986943    0.0600
53     H53    -4.5788    0.2405    0.0939 H        1 ZINC000013986943    0.1400
54     H54    -2.3769    1.3448    0.0877 H        1 ZINC000013986943    0.1400
@<TRIPOS>BOND
1     1     2     1
2     1     29    1
3     1     30    1
4     1     31    1
5     2     3     1
6     3     28    ar
7     3     4     ar
8     4     19    ar
9     4     5     1
10    5     6     2
11    6     7     1
12    6     18    1
13    7     8     am
14    7     32    1
15    8     9     2
16    8     10    am
17    10    17    1
18    10    11    1
19    11    12    1
20    11    33    1
21    11    34    1
22    12    13    1
23    12    35    1
24    12    36    1
25    13    14    1
26    13    15    1
27    13    16    1
28    14    37    1
29    14    38    1
30    14    39    1
31    15    40    1
32    16    17    1
33    16    41    1
34    16    42    1
35    17    43    1
36    17    44    1
37    18    19    1
38    19    20    ar
39    20    21    1
40    20    27    ar
41    21    26    1
42    21    22    1
43    22    23    1
44    22    45    1
45    22    46    1
46    23    24    1
47    23    47    1
48    23    48    1
49    24    25    1
50    25    26    1
51    25    49    1
52    25    50    1
53    26    51    1
54    26    52    1
55    27    28    ar
56    27    53    1
57    28    54    1
@<TRIPOS>SUBSTRUCTURE
1   ZINC000013986943 1     RESIDUE    1   A     ZIN   1
