@<TRIPOS>MOLECULE
ZINC000000404340
17    17    1     0     0
SMALL
USER_CHARGES
@<TRIPOS>ATOM
1      O1      0.0021   -0.0041    0.0020 O.co2    1 ZINC000000404340   -0.6700
2      C2     -0.0145    1.2150    0.0087 C.2      1 ZINC000000404340    0.5200
3      O3      1.0330    1.8389    0.0021 O.co2    1 ZINC000000404340   -0.6800
4      C4     -1.3296    1.9507    0.0190 C.3      1 ZINC000000404340   -0.1500
5      C5     -1.9785    2.0085   -1.3400 C.2      1 ZINC000000404340    0.5100
6      O6     -2.3649    3.0651   -1.7805 O.2      1 ZINC000000404340   -0.5400
7      O7     -2.1270    0.8860   -2.0610 O.3      1 ZINC000000404340   -0.5000
8      C8     -2.2807    1.4968    1.1389 C.3      1 ZINC000000404340   -0.1100
9      C9     -1.6169    2.5624    2.0270 C.3      1 ZINC000000404340   -0.1400
10     C10    -1.2682    3.3126    0.7306 C.3      1 ZINC000000404340   -0.1100
11     H11    -2.5489    0.9730   -2.9268 H        1 ZINC000000404340    0.3900
12     H12    -3.3311    1.6971    0.9277 H        1 ZINC000000404340    0.0700
13     H13    -2.1029    0.4754    1.4755 H        1 ZINC000000404340    0.0800
14     H14    -2.3193    3.0978    2.6658 H        1 ZINC000000404340    0.0700
15     H15    -0.7441    2.1976    2.5685 H        1 ZINC000000404340    0.0800
16     H16    -0.2730    3.7571    0.7375 H        1 ZINC000000404340    0.0800
17     H17    -2.0418    4.0093    0.4077 H        1 ZINC000000404340    0.0800
@<TRIPOS>BOND
1     1     2     ar
2     2     3     ar
3     2     4     1
4     4     10    1
5     4     5     1
6     4     8     1
7     5     6     2
8     5     7     1
9     7     11    1
10    8     9     1
11    8     12    1
12    8     13    1
13    9     10    1
14    9     14    1
15    9     15    1
16    10    16    1
17    10    17    1
@<TRIPOS>SUBSTRUCTURE
1   ZINC000000404340 1     RESIDUE    1   A     ZIN   1
