@<TRIPOS>MOLECULE
ZINC000001903948
  49   53    0    0    0
SMALL
USER_CHARGES
NO_NAME
@<TRIPOS>ATOM
    1 C1       -0.0184     1.5028     0.0103 C.3    1 <0>      -0.1200
    2 C2        0.0021    -0.0041     0.0020 C.2    1 <0>       0.2400
    3 C3       -1.1850    -0.7103     0.0039 C.2    1 <0>      -0.3500
    4 C4       -2.5067     0.0136     0.0137 C.3    1 <0>      -0.0600
    5 C5       -3.0210     0.1558    -1.4203 C.3    1 <0>      -0.0100
    6 N6       -4.3093     0.8615    -1.4107 N.4    1 <0>      -0.3900
    7 H7       -4.9504     0.3797    -0.7984 H      1 <0>       0.4300
    8 C8       -4.1099     2.2336    -0.9255 C.3    1 <0>      -0.0100
    9 C9       -5.4693     2.8738    -0.6145 C.3    1 <0>      -0.0700
   10 C10      -6.3645     2.6676    -1.8150 C.2    1 <0>       0.0400
   11 C11      -6.0808     1.7706    -2.7830 C.2    1 <0>      -0.2300
   12 C12      -4.8624     0.8870    -2.7746 C.3    1 <0>       0.0900
   13 C13      -7.1506     1.8655    -3.7544 C.ar   1 <0>      -0.1100
   14 C14      -7.4114     1.2055    -4.9565 C.ar   1 <0>      -0.0700
   15 C15      -8.5627     1.5711    -5.6321 C.ar   1 <0>      -0.1200
   16 C16      -9.4178     2.5438    -5.1435 C.ar   1 <0>      -0.0800
   17 C17      -9.1767     3.2097    -3.9533 C.ar   1 <0>      -0.1000
   18 C18      -8.0264     2.8618    -3.2528 C.ar   1 <0>       0.0600
   19 O19      -7.5143     3.3024    -2.0983 O.3    1 <0>      -0.1600
   20 C20      -1.1404    -2.1092    -0.0040 C.2    1 <0>       0.5200
   21 O21      -2.1719    -2.7624    -0.0030 O.2    1 <0>      -0.5300
   22 N22       0.0611    -2.7250    -0.0132 N.am   1 <0>      -0.4300
   23 C23       0.1211    -4.0855    -0.0211 C.2    1 <0>       0.1000
   24 C24       1.3125    -4.7247    -0.0302 C.2    1 <0>      -0.1500
   25 C25       2.5062    -3.9895    -0.0313 C.2    1 <0>      -0.0200
   26 C26       2.4570    -2.6277    -0.0235 C.2    1 <0>      -0.1400
   27 C27       1.2077    -1.9806    -0.0149 C.2    1 <0>       0.4000
   28 N28       1.1576    -0.6497    -0.0125 N.2    1 <0>      -0.5400
   29 H29       1.0042     1.8801     0.0026 H      1 <0>       0.0900
   30 H30      -0.5455     1.8639    -0.8728 H      1 <0>       0.0800
   31 H31      -0.5286     1.8543     0.9071 H      1 <0>       0.0900
   32 H32      -3.2270    -0.5531     0.6035 H      1 <0>       0.1000
   33 H33      -2.3759     1.0028     0.4525 H      1 <0>       0.0900
   34 H34      -2.3006     0.7226    -2.0101 H      1 <0>       0.1300
   35 H35      -3.1518    -0.8334    -1.8591 H      1 <0>       0.1300
   36 H36      -3.5027     2.2137    -0.0206 H      1 <0>       0.1500
   37 H37      -3.6001     2.8185    -1.6910 H      1 <0>       0.1400
   38 H38      -5.9101     2.3966     0.2608 H      1 <0>       0.1200
   39 H39      -5.3409     3.9402    -0.4288 H      1 <0>       0.1400
   40 H40      -4.1189     1.2824    -3.4667 H      1 <0>       0.1400
   41 H41      -5.1415    -0.1239    -3.0718 H      1 <0>       0.1400
   42 H42      -6.7466     0.4462    -5.3410 H      1 <0>       0.1400
   43 H43      -8.8002     1.0844    -6.5665 H      1 <0>       0.1400
   44 H44     -10.3031     2.7922    -5.7100 H      1 <0>       0.1400
   45 H45      -9.8529     3.9669    -3.5848 H      1 <0>       0.1500
   46 H46      -0.7932    -4.6603    -0.0196 H      1 <0>       0.1900
   47 H47       1.3446    -5.8042    -0.0364 H      1 <0>       0.1700
   48 H48       3.4584    -4.4990    -0.0379 H      1 <0>       0.1600
   49 H49       3.3695    -2.0499    -0.0242 H      1 <0>       0.1700
@<TRIPOS>BOND
   1    1    2 1
   2    1   29 1
   3    1   30 1
   4    1   31 1
   5    2   28 1
   6    2    3 2
   7    3    4 1
   8    3   20 1
   9    4    5 1
  10    4   32 1
  11    4   33 1
  12    5    6 1
  13    5   34 1
  14    5   35 1
  15    6    7 1
  16    6   12 1
  17    6    8 1
  18    8    9 1
  19    8   36 1
  20    8   37 1
  21    9   10 1
  22    9   38 1
  23    9   39 1
  24   10   19 1
  25   10   11 2
  26   11   12 1
  27   11   13 1
  28   12   40 1
  29   12   41 1
  30   13   18 ar
  31   13   14 ar
  32   14   15 ar
  33   14   42 1
  34   15   16 ar
  35   15   43 1
  36   16   17 ar
  37   16   44 1
  38   17   18 ar
  39   17   45 1
  40   18   19 1
  41   20   21 2
  42   20   22 am
  43   22   27 1
  44   22   23 1
  45   23   24 2
  46   23   46 1
  47   24   25 1
  48   24   47 1
  49   25   26 2
  50   25   48 1
  51   26   27 1
  52   26   49 1
  53   27   28 2
