@<TRIPOS>MOLECULE
ZINC000013985228
38    41    1     0     0
SMALL
USER_CHARGES
@<TRIPOS>ATOM
1      O1      0.0021   -0.0041    0.0020 O.2      1 ZINC000013985228   -0.4300
2      C2     -0.0144    1.2129    0.0087 C.2      1 ZINC000013985228    0.4800
3      S3     -1.3999    2.2343    0.0350 S.3      1 ZINC000013985228    0.2300
4      N4     -0.5194    3.6863    0.0305 N.am     1 ZINC000013985228   -0.5700
5      C5     -1.0376    4.9804    0.0460 C.ar     1 ZINC000013985228    0.1500
6      C6     -1.3778    5.5967    1.2695 C.ar     1 ZINC000013985228   -0.0300
7      C7     -1.2052    4.9311    2.4929 C.ar     1 ZINC000013985228   -0.1100
8      C8     -1.5438    5.5565    3.6542 C.ar     1 ZINC000013985228   -0.1000
9      C9     -2.0610    6.8503    3.6471 C.ar     1 ZINC000013985228   -0.1100
10     C10    -2.2424    7.5258    2.4795 C.ar     1 ZINC000013985228   -0.1000
11     C11    -1.9031    6.9124    1.2610 C.ar     1 ZINC000013985228   -0.0500
12     C12    -2.0763    7.5801    0.0368 C.ar     1 ZINC000013985228   -0.0700
13     C13    -1.7388    6.9621   -1.1289 C.ar     1 ZINC000013985228   -0.1200
14     C14    -1.2173    5.6722   -1.1334 C.ar     1 ZINC000013985228   -0.0700
15     C15     0.7762    3.3367    0.0094 C.2      1 ZINC000013985228    0.6900
16     O16     1.6617    4.1712    0.0016 O.2      1 ZINC000013985228   -0.5100
17     N17     1.0451    2.0394    0.0030 N.am     1 ZINC000013985228   -0.5600
18     C18     2.4201    1.5344   -0.0195 C.3      1 ZINC000013985228    0.1600
19     C19     2.9141    1.3589    1.3934 C.ar     1 ZINC000013985228   -0.1300
20     C20     3.5483    2.4040    2.0387 C.ar     1 ZINC000013985228   -0.0900
21     C21     4.0013    2.2430    3.3347 C.ar     1 ZINC000013985228   -0.1200
22     C22     3.8198    1.0370    3.9856 C.ar     1 ZINC000013985228   -0.1100
23     C23     3.1848   -0.0078    3.3406 C.ar     1 ZINC000013985228   -0.1200
24     C24     2.7279    0.1546    2.0460 C.ar     1 ZINC000013985228   -0.0900
25     H25    -0.8061    3.9278    2.5133 H        1 ZINC000013985228    0.1200
26     H26    -1.4100    5.0420    4.5943 H        1 ZINC000013985228    0.1300
27     H27    -2.3222    7.3240    4.5819 H        1 ZINC000013985228    0.1300
28     H28    -2.6449    8.5280    2.4891 H        1 ZINC000013985228    0.1300
29     H29    -2.4773    8.5828    0.0203 H        1 ZINC000013985228    0.1400
30     H30    -1.8758    7.4828   -2.0651 H        1 ZINC000013985228    0.1400
31     H31    -0.9574    5.2047   -2.0716 H        1 ZINC000013985228    0.1300
32     H32     2.4462    0.5745   -0.5354 H        1 ZINC000013985228    0.1100
33     H33     3.0598    2.2454   -0.5424 H        1 ZINC000013985228    0.1100
34     H34     3.6901    3.3461    1.5302 H        1 ZINC000013985228    0.1300
35     H35     4.4975    3.0593    3.8386 H        1 ZINC000013985228    0.1300
36     H36     4.1744    0.9110    4.9979 H        1 ZINC000013985228    0.1200
37     H37     3.0433   -0.9501    3.8490 H        1 ZINC000013985228    0.1300
38     H38     2.2318   -0.6617    1.5421 H        1 ZINC000013985228    0.1300
@<TRIPOS>BOND
1     1     2     2
2     2     17    am
3     2     3     1
4     3     4     1
5     4     5     1
6     4     15    am
7     5     14    ar
8     5     6     ar
9     6     11    ar
10    6     7     ar
11    7     8     ar
12    7     25    1
13    8     9     ar
14    8     26    1
15    9     10    ar
16    9     27    1
17    10    11    ar
18    10    28    1
19    11    12    ar
20    12    13    ar
21    12    29    1
22    13    14    ar
23    13    30    1
24    14    31    1
25    15    16    2
26    15    17    am
27    17    18    1
28    18    19    1
29    18    32    1
30    18    33    1
31    19    24    ar
32    19    20    ar
33    20    21    ar
34    20    34    1
35    21    22    ar
36    21    35    1
37    22    23    ar
38    22    36    1
39    23    24    ar
40    23    37    1
41    24    38    1
@<TRIPOS>SUBSTRUCTURE
1   ZINC000013985228 1     RESIDUE    1   A     ZIN   1
