@<TRIPOS>MOLECULE
ZINC000253665308
57    60    1     0     0
SMALL
USER_CHARGES
@<TRIPOS>ATOM
1      C1     -0.2698    1.2480   -0.3152 C.3      1 ZINC000253665308   -0.1500
2      C2     -0.0507   -0.2532   -0.1358 C.3      1 ZINC000253665308   -0.1200
3      H3     -0.9998   -0.7803   -0.1052 H        1 ZINC000253665308    0.1000
4      C4      0.8405   -0.8059   -1.2704 C.3      1 ZINC000253665308   -0.1100
5      C5      1.4659   -2.0809   -0.6339 C.3      1 ZINC000253665308   -0.0700
6      H6      2.4057   -2.3575   -1.1304 H        1 ZINC000253665308    0.1000
7      C7      0.4232   -3.1885   -0.7608 C.3      1 ZINC000253665308   -0.0800
8      H8     -0.5501   -2.8164   -0.4393 H        1 ZINC000253665308    0.1100
9      C9      0.3294   -3.6427   -2.2253 C.3      1 ZINC000253665308   -0.1300
10     C10    -0.9812   -4.4282   -2.3430 C.3      1 ZINC000253665308   -0.0900
11     C11    -0.9932   -5.5264   -1.3108 C.2      1 ZINC000253665308   -0.0300
12     C12    -1.9261   -6.4901   -1.4644 C.2      1 ZINC000253665308   -0.2300
13     C13    -1.9426   -7.5714   -0.4473 C.2      1 ZINC000253665308    0.4100
14     O14    -2.2291   -8.7244   -0.7271 O.2      1 ZINC000253665308   -0.4500
15     C15    -1.5912   -7.1552    0.9340 C.2      1 ZINC000253665308   -0.2200
16     C16    -0.6532   -6.1956    1.0604 C.2      1 ZINC000253665308   -0.0600
17     C17    -0.0380   -5.6063   -0.1720 C.3      1 ZINC000253665308    0.0000
18     C18     0.9887   -6.6619   -0.6127 C.3      1 ZINC000253665308   -0.1600
19     C19     0.8123   -4.3907    0.0902 C.3      1 ZINC000253665308    0.0700
20     Cl20    2.5224   -4.8215   -0.2983 Cl       1 ZINC000253665308   -0.1600
21     C21     0.7519   -3.9563    1.5567 C.3      1 ZINC000253665308    0.1100
22     H22     1.0540   -4.8089    2.1856 H        1 ZINC000253665308    0.0700
23     O23    -0.5809   -3.5872    1.9058 O.3      1 ZINC000253665308   -0.5400
24     C24     1.7275   -2.8197    1.8047 C.3      1 ZINC000253665308   -0.1500
25     C25     1.7066   -1.6769    0.8299 C.3      1 ZINC000253665308   -0.0200
26     C26     3.1367   -1.0680    0.8700 C.3      1 ZINC000253665308   -0.1300
27     C27     0.7580   -0.5227    1.1533 C.3      1 ZINC000253665308    0.1100
28     O28     1.5347    0.6501    1.4604 O.3      1 ZINC000253665308   -0.5400
29     C29    -0.1736   -0.7988    2.2962 C.2      1 ZINC000253665308    0.3300
30     O30    -1.2824   -1.2262    2.0816 O.2      1 ZINC000253665308   -0.3900
31     C31     0.2744   -0.5428    3.7121 C.3      1 ZINC000253665308    0.0200
32     O32    -0.7813   -0.8803    4.6141 O.3      1 ZINC000253665308   -0.5600
33     H33     0.6949    1.7537   -0.3555 H        1 ZINC000253665308    0.0700
34     H34    -0.8132    1.4275   -1.2429 H        1 ZINC000253665308    0.0600
35     H35    -0.8475    1.6338    0.5247 H        1 ZINC000253665308    0.0500
36     H36     0.2371   -1.0591   -2.1411 H        1 ZINC000253665308    0.0800
37     H37     1.6134   -0.0856   -1.5358 H        1 ZINC000253665308    0.0800
38     H38     0.3040   -2.7799   -2.8864 H        1 ZINC000253665308    0.0800
39     H39     1.1719   -4.2829   -2.4734 H        1 ZINC000253665308    0.0800
40     H40    -1.8220   -3.7630   -2.1695 H        1 ZINC000253665308    0.0900
41     H41    -1.0504   -4.8690   -3.3345 H        1 ZINC000253665308    0.0900
42     H42    -2.6298   -6.4716   -2.2911 H        1 ZINC000253665308    0.1500
43     H43    -2.0665   -7.6009    1.8029 H        1 ZINC000253665308    0.1500
44     H44    -0.3517   -5.8790    2.0544 H        1 ZINC000253665308    0.1400
45     H45     0.4776   -7.6027   -0.8173 H        1 ZINC000253665308    0.0500
46     H46     1.4964   -6.3206   -1.5148 H        1 ZINC000253665308    0.0800
47     H47     1.7202   -6.8111    0.1816 H        1 ZINC000253665308    0.0800
48     H48    -0.7021   -3.3939    2.8455 H        1 ZINC000253665308    0.3800
49     H49     1.6316   -2.4636    2.8308 H        1 ZINC000253665308    0.0700
50     H50     2.7493   -3.2562    1.7626 H        1 ZINC000253665308    0.0900
51     H51     3.8617   -1.8230    0.5657 H        1 ZINC000253665308    0.0500
52     H52     3.1891   -0.2186    0.1890 H        1 ZINC000253665308    0.0700
53     H53     3.3618   -0.7357    1.8834 H        1 ZINC000253665308    0.0600
54     H54     1.0031    1.4283    1.6771 H        1 ZINC000253665308    0.3700
55     H55     1.1497   -1.1538    3.9324 H        1 ZINC000253665308    0.0800
56     H56     0.5283    0.5109    3.8280 H        1 ZINC000253665308    0.0800
57     H57    -0.5627   -0.7403    5.5456 H        1 ZINC000253665308    0.3900
@<TRIPOS>BOND
1     1     2     1
2     1     33    1
3     1     34    1
4     1     35    1
5     2     3     1
6     2     27    1
7     2     4     1
8     4     5     1
9     4     36    1
10    4     37    1
11    5     6     1
12    5     25    1
13    5     7     1
14    7     8     1
15    7     19    1
16    7     9     1
17    9     10    1
18    9     38    1
19    9     39    1
20    10    11    1
21    10    40    1
22    10    41    1
23    11    17    1
24    11    12    2
25    12    13    1
26    12    42    1
27    13    14    2
28    13    15    1
29    15    16    2
30    15    43    1
31    16    17    1
32    16    44    1
33    17    18    1
34    17    19    1
35    18    45    1
36    18    46    1
37    18    47    1
38    19    20    1
39    19    21    1
40    21    22    1
41    21    23    1
42    21    24    1
43    23    48    1
44    24    25    1
45    24    49    1
46    24    50    1
47    25    26    1
48    25    27    1
49    26    51    1
50    26    52    1
51    26    53    1
52    27    28    1
53    27    29    1
54    28    54    1
55    29    30    2
56    29    31    1
57    31    32    1
58    31    55    1
59    31    56    1
60    32    57    1
@<TRIPOS>SUBSTRUCTURE
1   ZINC000253665308 1     RESIDUE    1   A     ZIN   1
