@<TRIPOS>MOLECULE
ZINC000001533116
34    34    1     0     0
SMALL
USER_CHARGES
@<TRIPOS>ATOM
1      C1     -0.0184    1.5028    0.0103 C.3      1 ZINC000001533116   -0.1800
2      C2      0.0021   -0.0041    0.0020 C.2      1 ZINC000001533116    0.2800
3      O3      0.0203   -0.6163    1.0494 O.2      1 ZINC000001533116   -0.4900
4      S4     -0.0005   -0.8520   -1.4852 S.3      1 ZINC000001533116   -0.0400
5      C5      0.0285   -2.5560   -0.8756 C.3      1 ZINC000001533116   -0.0700
6      C6      0.0304   -3.5222   -2.0619 C.3      1 ZINC000001533116   -0.1500
7      H7     -0.8206   -3.3061   -2.7079 H        1 ZINC000001533116    0.0800
8      C8     -0.0709   -4.9600   -1.5488 C.3      1 ZINC000001533116   -0.1300
9      C9     -0.1927   -5.9031   -2.7179 C.2      1 ZINC000001533116    0.3900
10     O10    -0.1979   -5.4682   -3.8498 O.2      1 ZINC000001533116   -0.4000
11     C11    -0.3052   -7.3520   -2.4859 C.ar     1 ZINC000001533116   -0.1500
12     C12    -0.3053   -7.8571   -1.1817 C.ar     1 ZINC000001533116   -0.0800
13     C13    -0.4111   -9.2159   -0.9725 C.ar     1 ZINC000001533116   -0.1400
14     C14    -0.5165  -10.0793   -2.0491 C.ar     1 ZINC000001533116   -0.0700
15     C15    -0.6317  -11.5630   -1.8115 C.3      1 ZINC000001533116   -0.1100
16     C16    -0.5172   -9.5872   -3.3427 C.ar     1 ZINC000001533116   -0.1300
17     C17    -0.4184   -8.2305   -3.5682 C.ar     1 ZINC000001533116   -0.0600
18     C18     1.3086   -3.3563   -2.8428 C.2      1 ZINC000001533116    0.4900
19     O19     1.7837   -4.3052   -3.4432 O.co2    1 ZINC000001533116   -0.6800
20     O20     1.8677   -2.2733   -2.8741 O.co2    1 ZINC000001533116   -0.6800
21     H21     1.0042    1.8801    0.0026 H        1 ZINC000001533116    0.0900
22     H22    -0.5455    1.8639   -0.8728 H        1 ZINC000001533116    0.0900
23     H23    -0.5286    1.8543    0.9071 H        1 ZINC000001533116    0.0800
24     H24     0.9264   -2.7128   -0.2778 H        1 ZINC000001533116    0.0900
25     H25    -0.8533   -2.7370   -0.2610 H        1 ZINC000001533116    0.0800
26     H26     0.8234   -5.2052   -0.9759 H        1 ZINC000001533116    0.0900
27     H27    -0.9492   -5.0570   -0.9107 H        1 ZINC000001533116    0.0800
28     H28    -0.2224   -7.1846   -0.3407 H        1 ZINC000001533116    0.1300
29     H29    -0.4113   -9.6074    0.0340 H        1 ZINC000001533116    0.1200
30     H30    -1.6832  -11.8360   -1.7218 H        1 ZINC000001533116    0.0700
31     H31    -0.1868  -12.1007   -2.6487 H        1 ZINC000001533116    0.0700
32     H32    -0.1085  -11.8254   -0.8919 H        1 ZINC000001533116    0.0700
33     H33    -0.5998  -10.2673   -4.1776 H        1 ZINC000001533116    0.1200
34     H34    -0.4190   -7.8480   -4.5782 H        1 ZINC000001533116    0.1300
@<TRIPOS>BOND
1     1     2     1
2     1     21    1
3     1     22    1
4     1     23    1
5     2     3     2
6     2     4     1
7     4     5     1
8     5     6     1
9     5     24    1
10    5     25    1
11    6     7     1
12    6     8     1
13    6     18    1
14    8     9     1
15    8     26    1
16    8     27    1
17    9     10    2
18    9     11    1
19    11    17    ar
20    11    12    ar
21    12    13    ar
22    12    28    1
23    13    14    ar
24    13    29    1
25    14    15    1
26    14    16    ar
27    15    30    1
28    15    31    1
29    15    32    1
30    16    17    ar
31    16    33    1
32    17    34    1
33    18    19    ar
34    18    20    ar
@<TRIPOS>SUBSTRUCTURE
1   ZINC000001533116 1     RESIDUE    1   A     ZIN   1
