@<TRIPOS>MOLECULE
ZINC000003776874
  29   30    0    0    0
SMALL
USER_CHARGES
NO_NAME
@<TRIPOS>ATOM
    1 C1       -0.0184     1.5028     0.0103 C.3    1 <0>      -0.1500
    2 C2        0.0021    -0.0041     0.0020 C.2    1 <0>       0.4700
    3 O3        0.0203    -0.6138     1.0450 O.2    1 <0>      -0.4900
    4 O4        0.0001    -0.6689    -1.1641 O.3    1 <0>      -0.3600
    5 C5        0.0205    -2.1192    -1.0960 C.3    1 <0>       0.0600
    6 H6        0.5338    -2.4486    -0.1927 H      1 <0>       0.1300
    7 C7       -1.4170    -2.6786    -1.1311 C.3    1 <0>      -0.1600
    8 C8       -1.4704    -3.5537    -2.4045 C.3    1 <0>       0.0500
    9 H9       -2.4544    -3.5398    -2.8732 H      1 <0>       0.1600
   10 N10      -0.4189    -2.9805    -3.2862 N.4    1 <0>      -0.5100
   11 H11      -0.1416    -3.6489    -3.9894 H      1 <0>       0.4400
   12 H12      -0.7421    -2.1267    -3.7159 H      1 <0>       0.4300
   13 C13       0.7076    -2.7070    -2.3501 C.3    1 <0>       0.0400
   14 H14       1.4422    -2.0242    -2.7770 H      1 <0>       0.1700
   15 C15       1.3270    -4.0626    -1.9742 C.3    1 <0>      -0.1400
   16 C16       0.2874    -4.8880    -1.2107 C.3    1 <0>      -0.1800
   17 C17      -1.0340    -4.9756    -2.0165 C.3    1 <0>       0.0900
   18 H18      -1.7963    -5.4706    -1.4149 H      1 <0>       0.1100
   19 O19      -0.8142    -5.7191    -3.2168 O.3    1 <0>      -0.5700
   20 H20       1.0042     1.8801     0.0026 H      1 <0>       0.1100
   21 H21      -0.5455     1.8639    -0.8728 H      1 <0>       0.1000
   22 H22      -0.5286     1.8543     0.9071 H      1 <0>       0.1100
   23 H23      -1.6099    -3.2847    -0.2459 H      1 <0>       0.1300
   24 H24      -2.1391    -1.8650    -1.1995 H      1 <0>       0.1200
   25 H25       1.6210    -4.5933    -2.8798 H      1 <0>       0.1000
   26 H26       2.2010    -3.9022    -1.3430 H      1 <0>       0.1200
   27 H27       0.6797    -5.8890    -1.0313 H      1 <0>       0.1000
   28 H28       0.0726    -4.4072    -0.2563 H      1 <0>       0.0900
   29 H29      -0.5110    -6.6253    -3.0682 H      1 <0>       0.4100
@<TRIPOS>BOND
   1    1    2 1
   2    1   20 1
   3    1   21 1
   4    1   22 1
   5    2    3 2
   6    2    4 1
   7    4    5 1
   8    5    6 1
   9    5   13 1
  10    5    7 1
  11    7    8 1
  12    7   23 1
  13    7   24 1
  14    8    9 1
  15    8   17 1
  16    8   10 1
  17   10   11 1
  18   10   12 1
  19   10   13 1
  20   13   14 1
  21   13   15 1
  22   15   16 1
  23   15   25 1
  24   15   26 1
  25   16   17 1
  26   16   27 1
  27   16   28 1
  28   17   18 1
  29   17   19 1
  30   19   29 1
