@<TRIPOS>MOLECULE
ZINC000003777826
30    31    1     0     0
SMALL
USER_CHARGES
@<TRIPOS>ATOM
1      N1     -0.0166    1.3714    0.0096 N.pl3    1 ZINC000003777826   -0.8100
2      C2      0.0021   -0.0041    0.0020 C.2      1 ZINC000003777826    0.5000
3      N3     -1.1354   -0.6867    0.0037 N.2      1 ZINC000003777826   -0.6200
4      C4     -1.1293   -2.0185   -0.0041 C.2      1 ZINC000003777826    0.6600
5      O5     -2.1886   -2.6233   -0.0028 O.2      1 ZINC000003777826   -0.5300
6      N6      0.0264   -2.7078   -0.0137 N.am     1 ZINC000003777826   -0.5400
7      C7      0.0011   -4.1726   -0.0226 C.3      1 ZINC000003777826    0.3500
8      H8      1.0145   -4.5589   -0.1316 H        1 ZINC000003777826    0.1200
9      O9     -0.8178   -4.6393   -1.1077 O.3      1 ZINC000003777826   -0.3300
10     C10    -1.4642   -5.8453   -0.6440 C.3      1 ZINC000003777826    0.1000
11     H11    -0.7813   -6.6932   -0.6970 H        1 ZINC000003777826    0.1000
12     C12    -2.7329   -6.1238   -1.4525 C.3      1 ZINC000003777826    0.0900
13     O13    -2.3795   -6.4309   -2.8026 O.3      1 ZINC000003777826   -0.5700
14     C14    -1.8112   -5.5130    0.8293 C.3      1 ZINC000003777826    0.1200
15     H15    -2.7287   -4.9275    0.8889 H        1 ZINC000003777826    0.1000
16     O16    -1.9212   -6.7067    1.6072 O.3      1 ZINC000003777826   -0.5500
17     C17    -0.6081   -4.6841    1.2686 C.2      1 ZINC000003777826   -0.2600
18     C18    -0.1933   -4.4622    2.4944 C.2      1 ZINC000003777826    0.0900
19     F19    -0.8600   -4.9975    3.5405 F        1 ZINC000003777826   -0.1400
20     C20     1.2200   -2.0505   -0.0158 C.2      1 ZINC000003777826    0.1900
21     C21     1.2303   -0.6965   -0.0134 C.2      1 ZINC000003777826   -0.3000
22     H22     0.8168    1.8678    0.0043 H        1 ZINC000003777826    0.4200
23     H23    -0.8631    1.8449    0.0162 H        1 ZINC000003777826    0.4100
24     H24    -3.2644   -6.9688   -1.0149 H        1 ZINC000003777826    0.0700
25     H25    -3.3748   -5.2430   -1.4363 H        1 ZINC000003777826    0.0600
26     H26    -3.1364   -6.6189   -3.3743 H        1 ZINC000003777826    0.3800
27     H27    -2.1373   -6.5517    2.5369 H        1 ZINC000003777826    0.3900
28     H28     0.6808   -3.8517    2.6665 H        1 ZINC000003777826    0.1600
29     H29     2.1477   -2.6035   -0.0235 H        1 ZINC000003777826    0.1800
30     H30     2.1649   -0.1552   -0.0154 H        1 ZINC000003777826    0.1600
@<TRIPOS>BOND
1     1     2     1
2     1     22    1
3     1     23    1
4     2     21    1
5     2     3     2
6     3     4     1
7     4     5     2
8     4     6     am
9     6     7     1
10    6     20    1
11    7     8     1
12    7     17    1
13    7     9     1
14    9     10    1
15    10    11    1
16    10    12    1
17    10    14    1
18    12    13    1
19    12    24    1
20    12    25    1
21    13    26    1
22    14    15    1
23    14    16    1
24    14    17    1
25    16    27    1
26    17    18    2
27    18    19    1
28    18    28    1
29    20    21    2
30    20    29    1
31    21    30    1
@<TRIPOS>SUBSTRUCTURE
1   ZINC000003777826 1     RESIDUE    1   A     ZIN   1
