@<TRIPOS>MOLECULE
ZINC000006718723
65    69    1     0     0
SMALL
USER_CHARGES
@<TRIPOS>ATOM
1      C1     -0.0147    1.6952    0.8022 C.3      1 ZINC000006718723    0.0300
2      O2     -0.0987    0.3433    0.3471 O.3      1 ZINC000006718723   -0.3500
3      C3      0.6742   -0.5787    1.1182 C.3      1 ZINC000006718723    0.1200
4      H4      0.7396   -0.2261    2.1475 H        1 ZINC000006718723    0.0900
5      C5      0.0135   -1.9329    1.0921 C.2      1 ZINC000006718723    0.5500
6      O6     -0.9021   -2.1463    0.3260 O.2      1 ZINC000006718723   -0.5000
7      N7      0.4402   -2.9069    1.9203 N.am     1 ZINC000006718723   -0.6100
8      C8      1.4518   -2.7837    2.9761 C.3      1 ZINC000006718723    0.1700
9      C9      1.5896   -4.1346    3.6315 C.2      1 ZINC000006718723    0.0700
10     C10     0.7470   -5.0068    3.0400 C.2      1 ZINC000006718723   -0.2800
11     C11    -0.0189   -4.3004    1.9500 C.3      1 ZINC000006718723    0.1900
12     C12     0.9009   -6.2532    3.6739 C.2      1 ZINC000006718723    0.3400
13     N13     0.2074   -7.4285    3.3576 N.am     1 ZINC000006718723   -0.6400
14     C14     0.4510   -8.5609    4.0467 C.2      1 ZINC000006718723    0.5600
15     O15     1.2728   -8.5623    4.9431 O.2      1 ZINC000006718723   -0.4900
16     C16    -0.2792   -9.7984    3.7136 C.ar     1 ZINC000006718723   -0.1700
17     C17    -1.2202   -9.7999    2.6796 C.ar     1 ZINC000006718723   -0.0600
18     C18    -1.8998  -10.9560    2.3714 C.ar     1 ZINC000006718723   -0.1500
19     C19    -1.6514  -12.1234    3.0882 C.ar     1 ZINC000006718723    0.1500
20     N20    -2.3402  -13.2899    2.7746 N.3      1 ZINC000006718723   -0.4900
21     C21    -3.7928  -13.0794    2.8464 C.3      1 ZINC000006718723    0.0600
22     C22    -4.5130  -14.3602    2.4184 C.3      1 ZINC000006718723    0.0500
23     N23    -4.1003  -15.4668    3.2929 N.3      1 ZINC000006718723   -0.5500
24     C24    -4.8279  -16.6991    2.9615 C.3      1 ZINC000006718723    0.0200
25     C25    -2.6477  -15.6773    3.2211 C.3      1 ZINC000006718723    0.0500
26     C26    -1.9275  -14.3965    3.6491 C.3      1 ZINC000006718723    0.0500
27     C27    -0.7147  -12.1253    4.1181 C.ar     1 ZINC000006718723   -0.1800
28     C28    -0.0276  -10.9739    4.4275 C.ar     1 ZINC000006718723   -0.0200
29     N29     1.8075   -6.1224    4.6126 N.2      1 ZINC000006718723   -0.2500
30     N30     2.2559   -4.7960    4.6048 N.pl3    1 ZINC000006718723   -0.4400
31     C31     2.0595   -0.6842    0.5344 C.ar     1 ZINC000006718723   -0.1200
32     C32     2.2269   -0.7857   -0.8340 C.ar     1 ZINC000006718723   -0.0800
33     C33     3.4976   -0.8825   -1.3696 C.ar     1 ZINC000006718723   -0.1200
34     C34     4.6009   -0.8774   -0.5368 C.ar     1 ZINC000006718723   -0.1100
35     C35     4.4335   -0.7751    0.8316 C.ar     1 ZINC000006718723   -0.1200
36     C36     3.1630   -0.6739    1.3668 C.ar     1 ZINC000006718723   -0.1100
37     H37     1.0219    2.0295    0.7588 H        1 ZINC000006718723    0.0500
38     H38    -0.6287    2.3319    0.1652 H        1 ZINC000006718723    0.1000
39     H39    -0.3732    1.7556    1.8298 H        1 ZINC000006718723    0.0500
40     H40     2.4056   -2.4842    2.5417 H        1 ZINC000006718723    0.1000
41     H41     1.1309   -2.0464    3.7119 H        1 ZINC000006718723    0.0900
42     H42    -1.0871   -4.3394    2.1633 H        1 ZINC000006718723    0.0800
43     H43     0.1854   -4.7721    0.9888 H        1 ZINC000006718723    0.0800
44     H44    -0.4482   -7.4274    2.6426 H        1 ZINC000006718723    0.4200
45     H45    -1.4137   -8.8944    2.1237 H        1 ZINC000006718723    0.1300
46     H46    -2.6268  -10.9578    1.5728 H        1 ZINC000006718723    0.1300
47     H47    -4.0738  -12.8286    3.8693 H        1 ZINC000006718723    0.0600
48     H48    -4.0754  -12.2636    2.1810 H        1 ZINC000006718723    0.0900
49     H49    -5.5904  -14.2157    2.4986 H        1 ZINC000006718723    0.0900
50     H50    -4.2533  -14.5959    1.3864 H        1 ZINC000006718723    0.0500
51     H51    -4.6223  -16.9756    1.9274 H        1 ZINC000006718723    0.0300
52     H52    -4.5033  -17.5019    3.6236 H        1 ZINC000006718723    0.0700
53     H53    -5.8980  -16.5344    3.0877 H        1 ZINC000006718723    0.0700
54     H54    -2.3651  -16.4931    3.8865 H        1 ZINC000006718723    0.0900
55     H55    -2.3667  -15.9280    2.1982 H        1 ZINC000006718723    0.0500
56     H56    -0.8501  -14.5410    3.5689 H        1 ZINC000006718723    0.0900
57     H57    -2.1872  -14.1607    4.6811 H        1 ZINC000006718723    0.0600
58     H58    -0.5243  -13.0325    4.6724 H        1 ZINC000006718723    0.1400
59     H59     0.6989  -10.9761    5.2266 H        1 ZINC000006718723    0.1400
60     H60     2.9270   -4.4178    5.1943 H        1 ZINC000006718723    0.4500
61     H61     1.3649   -0.7897   -1.4847 H        1 ZINC000006718723    0.1300
62     H62     3.6284   -0.9625   -2.4387 H        1 ZINC000006718723    0.1300
63     H63     5.5936   -0.9538   -0.9551 H        1 ZINC000006718723    0.1300
64     H64     5.2955   -0.7714    1.4823 H        1 ZINC000006718723    0.1300
65     H65     3.0322   -0.5939    2.4359 H        1 ZINC000006718723    0.1200
@<TRIPOS>BOND
1     1     2     1
2     1     37    1
3     1     38    1
4     1     39    1
5     2     3     1
6     3     4     1
7     3     5     1
8     3     31    1
9     5     6     2
10    5     7     am
11    7     11    1
12    7     8     1
13    8     9     1
14    8     40    1
15    8     41    1
16    9     30    1
17    9     10    2
18    10    11    1
19    10    12    1
20    11    42    1
21    11    43    1
22    12    13    1
23    12    29    2
24    13    14    am
25    13    44    1
26    14    15    2
27    14    16    1
28    16    28    ar
29    16    17    ar
30    17    18    ar
31    17    45    1
32    18    19    ar
33    18    46    1
34    19    20    1
35    19    27    ar
36    20    26    1
37    20    21    1
38    21    22    1
39    21    47    1
40    21    48    1
41    22    23    1
42    22    49    1
43    22    50    1
44    23    24    1
45    23    25    1
46    24    51    1
47    24    52    1
48    24    53    1
49    25    26    1
50    25    54    1
51    25    55    1
52    26    56    1
53    26    57    1
54    27    28    ar
55    27    58    1
56    28    59    1
57    29    30    1
58    30    60    1
59    31    36    ar
60    31    32    ar
61    32    33    ar
62    32    61    1
63    33    34    ar
64    33    62    1
65    34    35    ar
66    34    63    1
67    35    36    ar
68    35    64    1
69    36    65    1
@<TRIPOS>SUBSTRUCTURE
1   ZINC000006718723 1     RESIDUE    1   A     ZIN   1
