@<TRIPOS>MOLECULE
ZINC000002039313
  26   26    0    0    0
SMALL
USER_CHARGES
NO_NAME
@<TRIPOS>ATOM
    1 C1       -0.0176     1.4478     0.0100 C.3    1 <0>       0.0300
    2 O2        0.0021    -0.0041     0.0020 O.3    1 <0>      -0.3600
    3 C3        0.6181    -0.6108     1.0287 C.2    1 <0>       0.4700
    4 O4        1.1242     0.0494     1.9050 O.2    1 <0>      -0.5000
    5 C5        0.6786    -2.1154     1.0883 C.3    1 <0>      -0.0800
    6 H6        1.1991    -2.4939     0.2086 H      1 <0>       0.1200
    7 C7        1.4289    -2.5472     2.3514 C.3    1 <0>      -0.1100
    8 C8        1.4336    -4.0761     2.4352 C.3    1 <0>      -0.1200
    9 C9       -0.0091    -4.5866     2.4336 C.3    1 <0>       0.0500
   10 N10      -0.6836    -4.1479     1.2052 N.3    1 <0>      -0.5400
   11 C11      -2.0265    -4.7348     1.1037 C.3    1 <0>       0.0200
   12 C12      -0.7422    -2.6828     1.1249 C.3    1 <0>       0.0700
   13 H13       1.0050     1.8251     0.0023 H      1 <0>       0.0600
   14 H14      -0.5448     1.8089    -0.8731 H      1 <0>       0.1000
   15 H15      -0.5278     1.7993     0.9068 H      1 <0>       0.0600
   16 H16       2.4549    -2.1816     2.3085 H      1 <0>       0.0800
   17 H17       0.9310    -2.1358     3.2294 H      1 <0>       0.0700
   18 H18       1.9656    -4.4860     1.5766 H      1 <0>       0.0800
   19 H19       1.9293    -4.3886     3.3543 H      1 <0>       0.0800
   20 H20      -0.0090    -5.6757     2.4788 H      1 <0>       0.0800
   21 H21      -0.5365    -4.1874     3.3000 H      1 <0>       0.0400
   22 H22      -2.6458    -4.3686     1.9225 H      1 <0>       0.0300
   23 H23      -2.4763    -4.4503     0.1525 H      1 <0>       0.0700
   24 H24      -1.9536    -5.8208     1.1607 H      1 <0>       0.0700
   25 H25      -1.2661    -2.2919     1.9971 H      1 <0>       0.0400
   26 H26      -1.2746    -2.3897     0.2200 H      1 <0>       0.0900
@<TRIPOS>BOND
   1    1    2 1
   2    1   13 1
   3    1   14 1
   4    1   15 1
   5    2    3 1
   6    3    4 2
   7    3    5 1
   8    5    6 1
   9    5   12 1
  10    5    7 1
  11    7    8 1
  12    7   16 1
  13    7   17 1
  14    8    9 1
  15    8   18 1
  16    8   19 1
  17    9   10 1
  18    9   20 1
  19    9   21 1
  20   10   11 1
  21   10   12 1
  22   11   22 1
  23   11   23 1
  24   11   24 1
  25   12   25 1
  26   12   26 1
