@<TRIPOS>MOLECULE
ZINC000034926229
24    24    1     0     0
SMALL
USER_CHARGES
@<TRIPOS>ATOM
1      C1     -0.0184    1.5028    0.0103 C.3      1 ZINC000034926229   -0.0800
2      C2      0.0021   -0.0041    0.0020 C.ar     1 ZINC000034926229    0.0200
3      N3      0.0055   -0.6500   -1.1470 N.ar     1 ZINC000034926229   -0.4400
4      C4      0.0235   -1.9675   -1.2031 C.ar     1 ZINC000034926229   -0.0100
5      C5      0.0397   -2.7266   -0.0482 C.ar     1 ZINC000034926229   -0.0800
6      C6      0.0608   -4.2315   -0.1255 C.3      1 ZINC000034926229    0.1200
7      O7      0.0602   -4.6382   -1.4954 O.3      1 ZINC000034926229   -0.5600
8      C8      0.0368   -2.0878    1.1815 C.ar     1 ZINC000034926229   -0.3100
9      C9      0.0546   -2.8803    2.4632 C.3      1 ZINC000034926229    0.0800
10     N10     1.4452   -3.1180    2.8726 N.4      1 ZINC000034926229   -0.6300
11     H11     1.4572   -3.6487    3.7307 H        1 ZINC000034926229    0.4200
12     H12     1.9247   -3.6350    2.1508 H        1 ZINC000034926229    0.4200
13     H13     1.9091   -2.2337    3.0175 H        1 ZINC000034926229    0.4400
14     C14     0.0229   -0.6970    1.2039 C.ar     1 ZINC000034926229    0.2600
15     O15     0.0195   -0.0267    2.3862 O.3      1 ZINC000034926229   -0.7000
16     H16     1.0042    1.8801    0.0026 H        1 ZINC000034926229    0.0600
17     H17    -0.5455    1.8639   -0.8728 H        1 ZINC000034926229    0.0600
18     H18    -0.5286    1.8543    0.9071 H        1 ZINC000034926229    0.0700
19     H19     0.0254   -2.4598   -2.1643 H        1 ZINC000034926229    0.1500
20     H20     0.9585   -4.6079    0.3649 H        1 ZINC000034926229    0.0400
21     H21    -0.8212   -4.6333    0.3732 H        1 ZINC000034926229    0.0600
22     H22     0.0733   -5.5969   -1.6210 H        1 ZINC000034926229    0.3800
23     H23    -0.4633   -2.3218    3.2429 H        1 ZINC000034926229    0.1300
24     H24    -0.4464   -3.8356    2.3066 H        1 ZINC000034926229    0.1100
@<TRIPOS>BOND
1     1     2     1
2     1     16    1
3     1     17    1
4     1     18    1
5     2     14    ar
6     2     3     ar
7     3     4     ar
8     4     5     ar
9     4     19    1
10    5     6     1
11    5     8     ar
12    6     7     1
13    6     20    1
14    6     21    1
15    7     22    1
16    8     9     1
17    8     14    ar
18    9     10    1
19    9     23    1
20    9     24    1
21    10    11    1
22    10    12    1
23    10    13    1
24    14    15    1
@<TRIPOS>SUBSTRUCTURE
1   ZINC000034926229 1     RESIDUE    1   A     ZIN   1
