@<TRIPOS>MOLECULE
ZINC000100029945
71    77    1     0     0
SMALL
USER_CHARGES
@<TRIPOS>ATOM
1      O1      0.1755    1.5115    0.1062 O.3      1 ZINC000100029945   -0.5400
2      C2      0.1171    0.0848    0.0498 C.3      1 ZINC000100029945    0.0900
3      H3     -0.9245   -0.2357    0.0310 H        1 ZINC000100029945    0.1300
4      C4      0.8244   -0.4049   -1.2155 C.3      1 ZINC000100029945    0.0300
5      O5      0.1094    0.0485   -2.3667 O.3      1 ZINC000100029945   -0.3000
6      C6      0.6081   -0.3024   -3.5797 C.ar     1 ZINC000100029945    0.1500
7      C7     -0.0381    0.1121   -4.7611 C.ar     1 ZINC000100029945   -0.1200
8      C8     -1.2063    0.8932   -4.7204 C.ar     1 ZINC000100029945   -0.0400
9      C9     -1.7793    1.2591   -5.9059 C.ar     1 ZINC000100029945   -0.1800
10     C10    -1.2038    0.8574   -7.1088 C.ar     1 ZINC000100029945    0.1500
11     N11    -0.1142    0.1290   -7.1429 N.ar     1 ZINC000100029945   -0.4800
12     C12     0.4958   -0.2625   -6.0189 C.ar     1 ZINC000100029945    0.1600
13     C13     1.6632   -1.0429   -6.0632 C.ar     1 ZINC000100029945   -0.1200
14     C14     2.2679   -1.4305   -4.9064 C.ar     1 ZINC000100029945   -0.0700
15     C15     1.7538   -1.0621   -3.6670 C.ar     1 ZINC000100029945   -0.2200
16     C16     0.8095   -0.5030    1.2810 C.3      1 ZINC000100029945   -0.0400
17     N17     0.0602   -0.1308    2.4885 N.4      1 ZINC000100029945   -0.3800
18     H18    -0.0420    0.8724    2.5248 H        1 ZINC000100029945    0.4200
19     C19     0.7884   -0.5918    3.6779 C.3      1 ZINC000100029945    0.0000
20     C20     0.0177   -0.1878    4.9366 C.3      1 ZINC000100029945   -0.0200
21     N21    -1.3238   -0.7870    4.8996 N.3      1 ZINC000100029945   -0.5200
22     C22    -2.0766   -0.4684    6.1201 C.3      1 ZINC000100029945    0.1700
23     H23    -1.3521   -0.5145    6.9332 H        1 ZINC000100029945    0.1100
24     C24    -2.4815    0.9416    6.0030 C.ar     1 ZINC000100029945   -0.0800
25     C25    -1.8103    1.6624    5.0009 C.ar     1 ZINC000100029945   -0.1900
26     C26    -2.0257    3.0034    4.8035 C.ar     1 ZINC000100029945   -0.1100
27     C27    -2.9202    3.6793    5.6126 C.ar     1 ZINC000100029945   -0.1000
28     C28    -3.6020    2.9783    6.5809 C.ar     1 ZINC000100029945   -0.0900
29     C29    -3.4102    1.6075    6.7550 C.ar     1 ZINC000100029945   -0.0300
30     C30    -4.3360    0.9532    7.7333 C.3      1 ZINC000100029945   -0.1000
31     H31    -5.2046    1.5659    7.9745 H        1 ZINC000100029945    0.1400
32     C32    -4.4735   -0.4864    8.0770 C.3      1 ZINC000100029945   -0.0900
33     H33    -5.3781   -0.7379    8.6306 H        1 ZINC000100029945    0.1400
34     C34    -4.0740   -1.6032    7.1858 C.ar     1 ZINC000100029945   -0.0500
35     C35    -4.8911   -2.7347    7.2246 C.ar     1 ZINC000100029945   -0.1100
36     C36    -4.6206   -3.8448    6.4589 C.ar     1 ZINC000100029945   -0.1100
37     C37    -3.5105   -3.8356    5.6347 C.ar     1 ZINC000100029945   -0.1200
38     C38    -2.7094   -2.7219    5.5901 C.ar     1 ZINC000100029945   -0.1100
39     C39    -3.0125   -1.5815    6.3338 C.ar     1 ZINC000100029945   -0.0600
40     C40    -3.5613    0.3361    8.9336 C.3      1 ZINC000100029945    0.2000
41     F41    -2.1832    0.1432    8.7884 F        1 ZINC000100029945   -0.1500
42     F42    -3.9960    0.6590   10.2236 F        1 ZINC000100029945   -0.1500
43     C43    -2.0560   -0.3541    3.7010 C.3      1 ZINC000100029945   -0.0300
44     C44    -1.2680   -0.7570    2.4526 C.3      1 ZINC000100029945   -0.0100
45     H45     1.0742    1.8679    0.1255 H        1 ZINC000100029945    0.3900
46     H46     1.8401   -0.0102   -1.2398 H        1 ZINC000100029945    0.0800
47     H47     0.8579   -1.4944   -1.2144 H        1 ZINC000100029945    0.0800
48     H48    -1.6392    1.1955   -3.7783 H        1 ZINC000100029945    0.1400
49     H49    -2.6775    1.8588   -5.9099 H        1 ZINC000100029945    0.1400
50     H50    -1.6675    1.1535   -8.0381 H        1 ZINC000100029945    0.1700
51     H51     2.0810   -1.3359   -7.0151 H        1 ZINC000100029945    0.1400
52     H52     3.1649   -2.0303   -4.9516 H        1 ZINC000100029945    0.1400
53     H53     2.2529   -1.3825   -2.7644 H        1 ZINC000100029945    0.1300
54     H54     0.8435   -1.5891    1.1949 H        1 ZINC000100029945    0.1500
55     H55     1.8246   -0.1119    1.3484 H        1 ZINC000100029945    0.1400
56     H56     0.8877   -1.6768    3.6452 H        1 ZINC000100029945    0.1400
57     H57     1.7788   -0.1368    3.6965 H        1 ZINC000100029945    0.1400
58     H58     0.5504   -0.5429    5.8188 H        1 ZINC000100029945    0.1300
59     H59    -0.0699    0.8979    4.9766 H        1 ZINC000100029945    0.1000
60     H60    -1.1041    1.1461    4.3676 H        1 ZINC000100029945    0.1500
61     H61    -1.4988    3.5281    4.0203 H        1 ZINC000100029945    0.1300
62     H62    -3.0810    4.7399    5.4869 H        1 ZINC000100029945    0.1400
63     H63    -4.2997    3.5001    7.2192 H        1 ZINC000100029945    0.1300
64     H64    -5.7560   -2.7385    7.8714 H        1 ZINC000100029945    0.1300
65     H65    -5.2651   -4.7104    6.5010 H        1 ZINC000100029945    0.1300
66     H66    -3.2751   -4.6992    5.0304 H        1 ZINC000100029945    0.1300
67     H67    -1.8440   -2.7250    4.9439 H        1 ZINC000100029945    0.1500
68     H68    -3.0363   -0.8303    3.6818 H        1 ZINC000100029945    0.1300
69     H69    -2.1778    0.7289    3.7207 H        1 ZINC000100029945    0.1200
70     H70    -1.8023   -0.4243    1.5627 H        1 ZINC000100029945    0.1400
71     H71    -1.1584   -1.8411    2.4264 H        1 ZINC000100029945    0.1400
@<TRIPOS>BOND
1     1     2     1
2     1     45    1
3     2     3     1
4     2     4     1
5     2     16    1
6     4     5     1
7     4     46    1
8     4     47    1
9     5     6     1
10    6     15    ar
11    6     7     ar
12    7     12    ar
13    7     8     ar
14    8     9     ar
15    8     48    1
16    9     10    ar
17    9     49    1
18    10    11    ar
19    10    50    1
20    11    12    ar
21    12    13    ar
22    13    14    ar
23    13    51    1
24    14    15    ar
25    14    52    1
26    15    53    1
27    16    17    1
28    16    54    1
29    16    55    1
30    17    18    1
31    17    44    1
32    17    19    1
33    19    20    1
34    19    56    1
35    19    57    1
36    20    21    1
37    20    58    1
38    20    59    1
39    21    22    1
40    21    43    1
41    22    23    1
42    22    39    1
43    22    24    1
44    24    29    ar
45    24    25    ar
46    25    26    ar
47    25    60    1
48    26    27    ar
49    26    61    1
50    27    28    ar
51    27    62    1
52    28    29    ar
53    28    63    1
54    29    30    1
55    30    31    1
56    30    40    1
57    30    32    1
58    32    33    1
59    32    34    1
60    32    40    1
61    34    39    ar
62    34    35    ar
63    35    36    ar
64    35    64    1
65    36    37    ar
66    36    65    1
67    37    38    ar
68    37    66    1
69    38    39    ar
70    38    67    1
71    40    41    1
72    40    42    1
73    43    44    1
74    43    68    1
75    43    69    1
76    44    70    1
77    44    71    1
@<TRIPOS>SUBSTRUCTURE
1   ZINC000100029945 1     RESIDUE    1   A     ZIN   1
