@<TRIPOS>MOLECULE
ZINC000001557006
24    23    1     0     0
SMALL
USER_CHARGES
@<TRIPOS>ATOM
1      C1     -0.0178    1.4608    0.0101 C.3      1 ZINC000001557006    0.1000
2      N2      0.0021   -0.0041    0.0020 N.am     1 ZINC000001557006   -0.7000
3      C3      0.5851   -0.6645   -1.0180 C.2      1 ZINC000001557006    0.5800
4      O4      1.0944   -0.0448   -1.9312 O.2      1 ZINC000001557006   -0.5400
5      O5      0.6033   -2.0085   -1.0254 O.3      1 ZINC000001557006   -0.0700
6      N6      1.1444   -2.5490   -1.9733 N.am     1 ZINC000001557006   -0.3900
7      C7      2.4600   -2.8374   -1.9238 C.2      1 ZINC000001557006    0.5100
8      C8      3.2616   -2.4911   -0.6956 C.3      1 ZINC000001557006   -0.1700
9      O9      2.9988   -3.3756   -2.8678 O.2      1 ZINC000001557006   -0.4400
10     C10     0.4275   -2.8586   -3.0718 C.2      1 ZINC000001557006    0.6800
11     O11     0.9676   -3.3981   -4.0180 O.2      1 ZINC000001557006   -0.5000
12     N12    -0.8881   -2.5702   -3.1213 N.am     1 ZINC000001557006   -0.7300
13     C13    -1.6674   -2.9068   -4.3153 C.3      1 ZINC000001557006    0.1000
14     H14     1.0048    1.8381    0.0023 H        1 ZINC000001557006    0.0700
15     H15    -0.5450    1.8219   -0.8730 H        1 ZINC000001557006    0.0700
16     H16    -0.5280    1.8123    0.9069 H        1 ZINC000001557006    0.0900
17     H17    -0.4044   -0.4986    0.7308 H        1 ZINC000001557006    0.4100
18     H18     2.6121   -2.0174    0.0405 H        1 ZINC000001557006    0.0800
19     H19     3.6883   -3.4003   -0.2720 H        1 ZINC000001557006    0.1100
20     H20     4.0641   -1.8053   -0.9669 H        1 ZINC000001557006    0.1100
21     H21    -1.3190   -2.1398   -2.3664 H        1 ZINC000001557006    0.4000
22     H22    -1.6272   -3.9829   -4.4840 H        1 ZINC000001557006    0.0700
23     H23    -2.7034   -2.6001   -4.1715 H        1 ZINC000001557006    0.0800
24     H24    -1.2514   -2.3879   -5.1789 H        1 ZINC000001557006    0.0700
@<TRIPOS>BOND
1     1     2     1
2     1     14    1
3     1     15    1
4     1     16    1
5     2     3     am
6     2     17    1
7     3     4     2
8     3     5     1
9     5     6     1
10    6     7     am
11    6     10    am
12    7     8     1
13    7     9     2
14    8     18    1
15    8     19    1
16    8     20    1
17    10    11    2
18    10    12    am
19    12    13    1
20    12    21    1
21    13    22    1
22    13    23    1
23    13    24    1
@<TRIPOS>SUBSTRUCTURE
1   ZINC000001557006 1     RESIDUE    1   A     ZIN   1
