@<TRIPOS>MOLECULE
ZINC000022442142
44    46    1     0     0
SMALL
USER_CHARGES
@<TRIPOS>ATOM
1      C1     -2.9000   -1.1242   -0.7829 C.3      1 ZINC000022442142   -0.1900
2      C2     -1.3959   -1.1064   -0.5030 C.3      1 ZINC000022442142   -0.0100
3      N3     -0.7016   -1.9258   -1.5052 N.4      1 ZINC000022442142   -0.5000
4      H4     -1.0413   -2.8747   -1.4578 H        1 ZINC000022442142    0.4300
5      H5     -0.8769   -1.5514   -2.4257 H        1 ZINC000022442142    0.4300
6      C6      0.7425   -1.9086   -1.2365 C.3      1 ZINC000022442142   -0.0200
7      H7      1.0886   -0.8768   -1.1759 H        1 ZINC000022442142    0.1400
8      C8      1.0231   -2.6193    0.0891 C.3      1 ZINC000022442142   -0.2000
9      C9      1.4803   -2.6284   -2.3672 C.3      1 ZINC000022442142    0.0400
10     N10     2.8816   -2.1885   -2.3956 N.3      1 ZINC000022442142   -0.5100
11     C11     3.5110   -2.3470   -1.0744 C.3      1 ZINC000022442142    0.0300
12     C12     5.0249   -2.2073   -1.2422 C.3      1 ZINC000022442142   -0.0900
13     C13     5.3428   -0.9662   -2.0303 C.2      1 ZINC000022442142    0.0500
14     C14     4.4129   -0.3212   -2.7675 C.2      1 ZINC000022442142   -0.2300
15     C15     2.9863   -0.7962   -2.8432 C.3      1 ZINC000022442142    0.1100
16     C16     4.7827    0.8387   -3.4931 C.2      1 ZINC000022442142    0.5200
17     O17     3.9406    1.4111   -4.1610 O.2      1 ZINC000022442142   -0.4600
18     O18     6.0314    1.3245   -3.4657 O.3      1 ZINC000022442142   -0.2600
19     C19     7.0037    0.7283   -2.7434 C.ar     1 ZINC000022442142    0.1400
20     C20     8.2928    1.2434   -2.7224 C.ar     1 ZINC000022442142   -0.1300
21     C21     9.2716    0.6176   -1.9786 C.ar     1 ZINC000022442142   -0.0600
22     C22     8.9830   -0.5257   -1.2476 C.ar     1 ZINC000022442142   -0.1400
23     C23     7.7111   -1.0532   -1.2539 C.ar     1 ZINC000022442142   -0.0600
24     C24     6.7092   -0.4291   -2.0030 C.ar     1 ZINC000022442142   -0.1600
25     H25    -3.0894   -0.7198   -1.7772 H        1 ZINC000022442142    0.0800
26     H26    -3.2670   -2.1493   -0.7316 H        1 ZINC000022442142    0.0800
27     H27    -3.4152   -0.5162   -0.0392 H        1 ZINC000022442142    0.1100
28     H28    -1.0289   -0.0813   -0.5543 H        1 ZINC000022442142    0.1300
29     H29    -1.2066   -1.5108    0.4914 H        1 ZINC000022442142    0.1300
30     H30     2.0613   -2.4544    0.3771 H        1 ZINC000022442142    0.1200
31     H31     0.3643   -2.2216    0.8611 H        1 ZINC000022442142    0.0800
32     H32     0.8435   -3.6882   -0.0266 H        1 ZINC000022442142    0.0900
33     H33     1.4406   -3.7047   -2.1995 H        1 ZINC000022442142    0.1100
34     H34     1.0057   -2.3914   -3.3194 H        1 ZINC000022442142    0.1000
35     H35     3.1438   -1.5754   -0.3978 H        1 ZINC000022442142    0.0600
36     H36     3.2756   -3.3320   -0.6712 H        1 ZINC000022442142    0.1000
37     H37     5.4932   -2.1421   -0.2601 H        1 ZINC000022442142    0.1000
38     H38     5.4125   -3.0794   -1.7688 H        1 ZINC000022442142    0.1100
39     H39     2.6371   -0.7223   -3.8731 H        1 ZINC000022442142    0.1100
40     H40     2.3637   -0.1668   -2.2073 H        1 ZINC000022442142    0.0500
41     H41     8.5291    2.1326   -3.2878 H        1 ZINC000022442142    0.1500
42     H42    10.2731    1.0216   -1.9655 H        1 ZINC000022442142    0.1500
43     H43     9.7602   -1.0047   -0.6707 H        1 ZINC000022442142    0.1400
44     H44     7.4891   -1.9435   -0.6842 H        1 ZINC000022442142    0.1400
@<TRIPOS>BOND
1     1     2     1
2     1     25    1
3     1     26    1
4     1     27    1
5     2     3     1
6     2     28    1
7     2     29    1
8     3     4     1
9     3     5     1
10    3     6     1
11    6     7     1
12    6     8     1
13    6     9     1
14    8     30    1
15    8     31    1
16    8     32    1
17    9     10    1
18    9     33    1
19    9     34    1
20    10    15    1
21    10    11    1
22    11    12    1
23    11    35    1
24    11    36    1
25    12    13    1
26    12    37    1
27    12    38    1
28    13    24    1
29    13    14    2
30    14    15    1
31    14    16    1
32    15    39    1
33    15    40    1
34    16    17    2
35    16    18    1
36    18    19    1
37    19    24    ar
38    19    20    ar
39    20    21    ar
40    20    41    1
41    21    22    ar
42    21    42    1
43    22    23    ar
44    22    43    1
45    23    24    ar
46    23    44    1
@<TRIPOS>SUBSTRUCTURE
1   ZINC000022442142 1     RESIDUE    1   A     ZIN   1
