@<TRIPOS>MOLECULE
ZINC000003831947
72    76    1     0     0
SMALL
USER_CHARGES
@<TRIPOS>ATOM
1      C1     -0.0178    1.4608    0.0101 C.3      1 ZINC000003831947    0.0900
2      N2      0.0021   -0.0041    0.0020 N.pl3    1 ZINC000003831947   -0.6400
3      C3      0.0241   -0.7433    1.2666 C.3      1 ZINC000003831947    0.0900
4      C4     -0.0000   -0.6959   -1.2114 C.ar     1 ZINC000003831947    0.2200
5      C5      0.0130   -2.0849   -1.2208 C.ar     1 ZINC000003831947   -0.2000
6      C6      0.0104   -2.7658   -2.4223 C.ar     1 ZINC000003831947   -0.0700
7      C7     -0.0046   -2.0664   -3.6151 C.ar     1 ZINC000003831947   -0.1300
8      C8     -0.0074   -2.8128   -4.9243 C.3      1 ZINC000003831947   -0.0100
9      H9      0.0037   -3.8869   -4.7392 H        1 ZINC000003831947    0.0900
10     C10    -1.2512   -2.4357   -5.7381 C.3      1 ZINC000003831947   -0.1000
11     C11    -1.2492   -3.1970   -7.0573 C.3      1 ZINC000003831947   -0.0400
12     C12    -1.3812   -4.6968   -6.7849 C.3      1 ZINC000003831947   -0.1300
13     C13     0.0259   -2.9431   -7.8634 C.3      1 ZINC000003831947   -0.0700
14     H14     0.5447   -3.8856   -8.0384 H        1 ZINC000003831947    0.0800
15     C15    -0.4157   -2.3327   -9.2114 C.3      1 ZINC000003831947   -0.1200
16     C16    -1.7962   -1.7002   -8.9038 C.3      1 ZINC000003831947   -0.1500
17     C17    -2.4311   -2.7229   -7.9286 C.3      1 ZINC000003831947    0.1400
18     O18    -2.9924   -3.8209   -8.6506 O.3      1 ZINC000003831947   -0.5500
19     C19    -3.4973   -2.0477   -7.0636 C.3      1 ZINC000003831947   -0.1400
20     C20    -4.6113   -1.5031   -7.9598 C.3      1 ZINC000003831947   -0.1200
21     C21    -5.6775   -0.8278   -7.0948 C.3      1 ZINC000003831947    0.0800
22     O22    -6.7180   -0.3192   -7.9319 O.3      1 ZINC000003831947   -0.5800
23     C23     0.9645   -1.9591   -7.1604 C.3      1 ZINC000003831947   -0.0400
24     H24     0.4828   -0.9820   -7.1239 H        1 ZINC000003831947    0.0800
25     C25     2.2446   -1.8428   -7.9757 C.3      1 ZINC000003831947   -0.1100
26     C26     3.3750   -1.2051   -7.1713 C.3      1 ZINC000003831947   -0.1000
27     C27     3.5894   -2.0278   -5.9264 C.2      1 ZINC000003831947    0.0300
28     C28     4.8265   -2.3368   -5.4810 C.2      1 ZINC000003831947   -0.2500
29     C29     4.9985   -3.1760   -4.3668 C.2      1 ZINC000003831947    0.3900
30     O30     6.1083   -3.3206   -3.8946 O.2      1 ZINC000003831947   -0.4700
31     C31     3.8320   -3.8983   -3.7480 C.3      1 ZINC000003831947   -0.1700
32     C32     2.5862   -3.0085   -3.7893 C.3      1 ZINC000003831947   -0.0700
33     C33     2.4070   -2.4858   -5.1940 C.2      1 ZINC000003831947   -0.1200
34     C34     1.2052   -2.4172   -5.7479 C.2      1 ZINC000003831947   -0.0500
35     C35    -0.0176   -0.6836   -3.6094 C.ar     1 ZINC000003831947   -0.0600
36     C36    -0.0209    0.0035   -2.4114 C.ar     1 ZINC000003831947   -0.2000
37     H37     1.0048    1.8381    0.0023 H        1 ZINC000003831947    0.0500
38     H38    -0.5450    1.8219   -0.8730 H        1 ZINC000003831947    0.0700
39     H39    -0.5280    1.8123    0.9069 H        1 ZINC000003831947    0.0700
40     H40    -0.9979   -0.9406    1.5900 H        1 ZINC000003831947    0.0500
41     H41     0.5496   -1.6879    1.1262 H        1 ZINC000003831947    0.0700
42     H42     0.5371   -0.1514    2.0246 H        1 ZINC000003831947    0.0700
43     H43     0.0255   -2.6317   -0.2895 H        1 ZINC000003831947    0.1200
44     H44     0.0205   -3.8457   -2.4303 H        1 ZINC000003831947    0.1200
45     H45    -2.1467   -2.6925   -5.1723 H        1 ZINC000003831947    0.0700
46     H46    -1.2432   -1.3641   -5.9376 H        1 ZINC000003831947    0.0700
47     H47    -2.3093   -4.8879   -6.2462 H        1 ZINC000003831947    0.0500
48     H48    -1.3920   -5.2383   -7.7308 H        1 ZINC000003831947    0.0700
49     H49    -0.5363   -5.0326   -6.1837 H        1 ZINC000003831947    0.0500
50     H50     0.2912   -1.5684   -9.5344 H        1 ZINC000003831947    0.0700
51     H51    -0.5120   -3.1101   -9.9693 H        1 ZINC000003831947    0.0700
52     H52    -1.6777   -0.7295   -8.4224 H        1 ZINC000003831947    0.0700
53     H53    -2.3917   -1.6118   -9.8125 H        1 ZINC000003831947    0.0700
54     H54    -3.7013   -3.5704   -9.2588 H        1 ZINC000003831947    0.3700
55     H55    -3.9142   -2.7750   -6.3670 H        1 ZINC000003831947    0.0700
56     H56    -3.0462   -1.2272   -6.5054 H        1 ZINC000003831947    0.0800
57     H57    -4.1944   -0.7757   -8.6564 H        1 ZINC000003831947    0.0700
58     H58    -5.0623   -2.3235   -8.5180 H        1 ZINC000003831947    0.0700
59     H59    -6.0944   -1.5552   -6.3983 H        1 ZINC000003831947    0.0500
60     H60    -5.2265   -0.0074   -6.5367 H        1 ZINC000003831947    0.0400
61     H61    -7.4299    0.1232   -7.4496 H        1 ZINC000003831947    0.3800
62     H62     2.5539   -2.8381   -8.2948 H        1 ZINC000003831947    0.0700
63     H63     2.0493   -1.2334   -8.8581 H        1 ZINC000003831947    0.0800
64     H64     4.2884   -1.1932   -7.7661 H        1 ZINC000003831947    0.0800
65     H65     3.1014   -0.1864   -6.8963 H        1 ZINC000003831947    0.0900
66     H66     5.6923   -1.9352   -5.9864 H        1 ZINC000003831947    0.1300
67     H67     3.6394   -4.8168   -4.3025 H        1 ZINC000003831947    0.1000
68     H68     4.0668   -4.1446   -2.7125 H        1 ZINC000003831947    0.0900
69     H69     1.7112   -3.5917   -3.5022 H        1 ZINC000003831947    0.0900
70     H70     2.7118   -2.1722   -3.1016 H        1 ZINC000003831947    0.0800
71     H71    -0.0293   -0.1404   -4.5428 H        1 ZINC000003831947    0.1200
72     H72    -0.0313    1.0835   -2.4076 H        1 ZINC000003831947    0.1200
@<TRIPOS>BOND
1     1     2     1
2     1     37    1
3     1     38    1
4     1     39    1
5     2     3     1
6     2     4     1
7     3     40    1
8     3     41    1
9     3     42    1
10    4     36    ar
11    4     5     ar
12    5     6     ar
13    5     43    1
14    6     7     ar
15    6     44    1
16    7     8     1
17    7     35    ar
18    8     9     1
19    8     34    1
20    8     10    1
21    10    11    1
22    10    45    1
23    10    46    1
24    11    17    1
25    11    12    1
26    11    13    1
27    12    47    1
28    12    48    1
29    12    49    1
30    13    14    1
31    13    15    1
32    13    23    1
33    15    16    1
34    15    50    1
35    15    51    1
36    16    17    1
37    16    52    1
38    16    53    1
39    17    18    1
40    17    19    1
41    18    54    1
42    19    20    1
43    19    55    1
44    19    56    1
45    20    21    1
46    20    57    1
47    20    58    1
48    21    22    1
49    21    59    1
50    21    60    1
51    22    61    1
52    23    24    1
53    23    34    1
54    23    25    1
55    25    26    1
56    25    62    1
57    25    63    1
58    26    27    1
59    26    64    1
60    26    65    1
61    27    33    1
62    27    28    2
63    28    29    1
64    28    66    1
65    29    30    2
66    29    31    1
67    31    32    1
68    31    67    1
69    31    68    1
70    32    33    1
71    32    69    1
72    32    70    1
73    33    34    2
74    35    36    ar
75    35    71    1
76    36    72    1
@<TRIPOS>SUBSTRUCTURE
1   ZINC000003831947 1     RESIDUE    1   A     ZIN   1
