@<TRIPOS>MOLECULE
ZINC000005420970
29    31    1     0     0
SMALL
USER_CHARGES
@<TRIPOS>ATOM
1      N1     -0.0166    1.3696    0.0096 N.pl3    1 ZINC000005420970   -0.8300
2      C2      0.0021   -0.0041    0.0020 C.2      1 ZINC000005420970    0.6200
3      N3     -1.1357   -0.6570    0.0040 N.2      1 ZINC000005420970   -0.5600
4      C4     -1.1615   -2.0045   -0.0032 C.2      1 ZINC000005420970    0.1700
5      C5      0.0427   -2.7180   -0.0129 C.2      1 ZINC000005420970   -0.1400
6      N6     -0.2764   -4.0594   -0.0187 N.pl3    1 ZINC000005420970   -0.5200
7      C7     -1.6318   -4.1866   -0.0128 C.2      1 ZINC000005420970    0.0800
8      C8     -2.1983   -2.9631   -0.0033 C.2      1 ZINC000005420970   -0.1700
9      C9     -3.6766   -2.6705    0.0059 C.3      1 ZINC000005420970    0.0000
10     C10    -4.1526   -2.4434   -1.4058 C.ar     1 ZINC000005420970   -0.1200
11     C11    -4.1370   -1.1709   -1.9557 C.ar     1 ZINC000005420970   -0.0600
12     C12    -4.5838   -1.0093   -3.2584 C.ar     1 ZINC000005420970   -0.1700
13     C13    -5.0266   -2.1142   -3.9603 C.ar     1 ZINC000005420970    0.0900
14     N14    -5.0273   -3.3104   -3.4050 N.ar     1 ZINC000005420970   -0.4900
15     C15    -4.6048   -3.5021   -2.1708 C.ar     1 ZINC000005420970    0.1000
16     C16     1.2535   -2.0007   -0.0142 C.2      1 ZINC000005420970    0.5800
17     O17     2.3244   -2.5848   -0.0230 O.2      1 ZINC000005420970   -0.5400
18     N18     1.2032   -0.6506   -0.0129 N.am     1 ZINC000005420970   -0.6500
19     H19     0.8168    1.8659    0.0043 H        1 ZINC000005420970    0.4100
20     H20    -0.8631    1.8431    0.0162 H        1 ZINC000005420970    0.4300
21     H21     0.3598   -4.7916   -0.0260 H        1 ZINC000005420970    0.4300
22     H22    -2.1701   -5.1229   -0.0155 H        1 ZINC000005420970    0.1800
23     H23    -4.2117   -3.5160    0.4381 H        1 ZINC000005420970    0.0800
24     H24    -3.8665   -1.7775    0.6014 H        1 ZINC000005420970    0.0900
25     H25    -3.7856   -0.3254   -1.3829 H        1 ZINC000005420970    0.1400
26     H26    -4.5861   -0.0322   -3.7185 H        1 ZINC000005420970    0.1300
27     H27    -5.3766   -1.9967   -4.9753 H        1 ZINC000005420970    0.1500
28     H28    -4.6202   -4.4966   -1.7497 H        1 ZINC000005420970    0.1500
29     H29     2.0265   -0.1378   -0.0138 H        1 ZINC000005420970    0.4200
@<TRIPOS>BOND
1     1     2     1
2     1     19    1
3     1     20    1
4     2     18    1
5     2     3     2
6     3     4     1
7     4     8     1
8     4     5     2
9     5     6     1
10    5     16    1
11    6     7     1
12    6     21    1
13    7     8     2
14    7     22    1
15    8     9     1
16    9     10    1
17    9     23    1
18    9     24    1
19    10    15    ar
20    10    11    ar
21    11    12    ar
22    11    25    1
23    12    13    ar
24    12    26    1
25    13    14    ar
26    13    27    1
27    14    15    ar
28    15    28    1
29    16    17    2
30    16    18    am
31    18    29    1
@<TRIPOS>SUBSTRUCTURE
1   ZINC000005420970 1     RESIDUE    1   A     ZIN   1
