@<TRIPOS>MOLECULE
ZINC000001534528
  34   36    0    0    0
SMALL
USER_CHARGES
NO_NAME
@<TRIPOS>ATOM
    1 C1        0.2670     1.2062    -1.3544 C.ar   1 <0>      -0.0900
    2 C2        1.1428     2.0276    -0.6747 C.ar   1 <0>      -0.1000
    3 C3        2.0563     1.4977     0.2287 C.ar   1 <0>      -0.0400
    4 C4        2.0877     0.1407     0.4502 C.ar   1 <0>      -0.0700
    5 C5        3.0438    -0.5013     1.4209 C.3    1 <0>      -0.0800
    6 C6        4.1933     0.4487     1.7508 C.3    1 <0>      -0.1200
    7 C7        3.5998     1.8006     2.1642 C.3    1 <0>      -0.1200
    8 C8        2.9855     2.4550     0.9284 C.3    1 <0>      -0.0900
    9 C9        1.2045    -0.6915    -0.2387 C.ar   1 <0>       0.1000
   10 N10       1.2366    -2.0731    -0.0194 N.pl3  1 <0>      -0.6300
   11 C11       0.0663    -2.7769     0.0885 C.cat  1 <0>       0.7200
   12 N12       0.0321    -4.0957     0.1886 N.pl3  1 <0>      -0.6700
   13 H13       0.8073    -4.6787     0.1957 H      1 <0>       0.4600
   14 C14      -1.3676    -4.5382     0.2878 C.3    1 <0>       0.0800
   15 C15      -2.1658    -3.2202     0.2272 C.3    1 <0>       0.0700
   16 N16      -1.1203    -2.1920     0.1067 N.pl3  1 <0>      -0.6700
   17 C17       0.2961    -0.1580    -1.1390 C.ar   1 <0>      -0.1600
   18 H18      -0.4426     1.6293    -2.0500 H      1 <0>       0.1400
   19 H19       1.1185     3.0935    -0.8468 H      1 <0>       0.1400
   20 H20       2.5106    -0.7523     2.3378 H      1 <0>       0.0800
   21 H21       3.4464    -1.4128     0.9791 H      1 <0>       0.0700
   22 H22       4.7831     0.0403     2.5714 H      1 <0>       0.0800
   23 H23       4.8258     0.5786     0.8726 H      1 <0>       0.0700
   24 H24       2.8293     1.6476     2.9199 H      1 <0>       0.0700
   25 H25       4.3864     2.4397     2.5653 H      1 <0>       0.0800
   26 H26       3.7814     2.7482     0.2439 H      1 <0>       0.0900
   27 H27       2.4277     3.3412     1.2308 H      1 <0>       0.0900
   28 H28       2.0875    -2.5326     0.0561 H      1 <0>       0.4400
   29 H29      -1.6268    -5.1831    -0.5519 H      1 <0>       0.1200
   30 H30      -1.5423    -5.0497     1.2344 H      1 <0>       0.1200
   31 H31      -2.8225    -3.2087    -0.6426 H      1 <0>       0.1200
   32 H32      -2.7380    -3.0753     1.1436 H      1 <0>       0.1200
   33 H33      -1.2765    -1.2367     0.0445 H      1 <0>       0.4600
   34 H34      -0.3864    -0.8056    -1.6691 H      1 <0>       0.1300
@<TRIPOS>BOND
   1    1   17 ar
   2    1    2 ar
   3    1   18 1
   4    2    3 ar
   5    2   19 1
   6    3    8 1
   7    3    4 ar
   8    4    5 1
   9    4    9 ar
  10    5    6 1
  11    5   20 1
  12    5   21 1
  13    6    7 1
  14    6   22 1
  15    6   23 1
  16    7    8 1
  17    7   24 1
  18    7   25 1
  19    8   26 1
  20    8   27 1
  21    9   10 1
  22    9   17 ar
  23   10   11 ar
  24   10   28 1
  25   11   16 ar
  26   11   12 ar
  27   12   13 1
  28   12   14 1
  29   14   15 1
  30   14   29 1
  31   14   30 1
  32   15   16 1
  33   15   31 1
  34   15   32 1
  35   16   33 1
  36   17   34 1
