@<TRIPOS>MOLECULE
ZINC000003871503
66    66    1     0     0
SMALL
USER_CHARGES
@<TRIPOS>ATOM
1      C1      0.3882    2.0414    2.9124 C.3      1 ZINC000003871503   -0.1500
2      C2      0.2332    0.5266    3.0619 C.3      1 ZINC000003871503   -0.1300
3      C3      1.4348   -0.0364    3.8235 C.3      1 ZINC000003871503   -0.1200
4      C4      1.2797   -1.5511    3.9731 C.3      1 ZINC000003871503   -0.1100
5      C5      2.4814   -2.1141    4.7347 C.3      1 ZINC000003871503   -0.1000
6      C6      2.3287   -3.6061    4.8820 C.2      1 ZINC000003871503   -0.1600
7      C7      3.2994   -4.4037    4.5109 C.2      1 ZINC000003871503   -0.1500
8      C8      4.6316   -3.8298    4.1025 C.3      1 ZINC000003871503   -0.0800
9      C9      5.7274   -4.4840    4.9039 C.2      1 ZINC000003871503   -0.1500
10     C10     6.7558   -5.0184    4.2932 C.2      1 ZINC000003871503   -0.1500
11     C11     6.9333   -4.8276    2.8089 C.3      1 ZINC000003871503   -0.0800
12     C12     8.3089   -4.2768    2.5342 C.2      1 ZINC000003871503   -0.1500
13     C13     9.0986   -4.8820    1.6819 C.2      1 ZINC000003871503   -0.1500
14     C14     8.5738   -6.0211    0.8463 C.3      1 ZINC000003871503   -0.0800
15     C15     8.8482   -5.7442   -0.6094 C.2      1 ZINC000003871503   -0.1500
16     C16     9.4793   -6.6319   -1.3373 C.2      1 ZINC000003871503   -0.1600
17     C17     9.7758   -7.9969   -0.7718 C.3      1 ZINC000003871503   -0.1000
18     C18     9.2663   -9.0701   -1.7360 C.3      1 ZINC000003871503   -0.1000
19     C19     9.5673  -10.4559   -1.1618 C.3      1 ZINC000003871503   -0.1400
20     C20     9.0655  -11.5130   -2.1115 C.2      1 ZINC000003871503    0.5100
21     O21     8.5206  -11.1896   -3.1458 O.2      1 ZINC000003871503   -0.5200
22     N22     9.2220  -12.8175   -1.8115 N.am     1 ZINC000003871503   -0.6800
23     C23     8.8489  -13.7993   -2.7388 C.ar     1 ZINC000003871503    0.1400
24     C24     8.3544  -15.0193   -2.2975 C.ar     1 ZINC000003871503   -0.1300
25     C25     7.9863  -15.9863   -3.2121 C.ar     1 ZINC000003871503   -0.1200
26     C26     8.1109  -15.7391   -4.5714 C.ar     1 ZINC000003871503    0.0900
27     O27     7.7488  -16.6919   -5.4713 O.3      1 ZINC000003871503   -0.5000
28     C28     8.6045  -14.5202   -5.0130 C.ar     1 ZINC000003871503   -0.1200
29     C29     8.9680  -13.5504   -4.0996 C.ar     1 ZINC000003871503   -0.1100
30     H30     1.3028    2.2603    2.3612 H        1 ZINC000003871503    0.0500
31     H31    -0.4678    2.4424    2.3698 H        1 ZINC000003871503    0.0500
32     H32     0.4402    2.5005    3.8996 H        1 ZINC000003871503    0.0500
33     H33    -0.6814    0.3076    3.6131 H        1 ZINC000003871503    0.0600
34     H34     0.1812    0.0675    2.0747 H        1 ZINC000003871503    0.0600
35     H35     2.3493    0.1826    3.2724 H        1 ZINC000003871503    0.0600
36     H36     1.4868    0.4228    4.8108 H        1 ZINC000003871503    0.0600
37     H37     0.3652   -1.7701    4.5242 H        1 ZINC000003871503    0.0600
38     H38     1.2277   -2.0102    2.9858 H        1 ZINC000003871503    0.0600
39     H39     3.3959   -1.8951    4.1835 H        1 ZINC000003871503    0.0800
40     H40     2.5334   -1.6550    5.7219 H        1 ZINC000003871503    0.0700
41     H41     1.4189   -4.0178    5.2934 H        1 ZINC000003871503    0.1100
42     H42     3.1449   -5.4725    4.4978 H        1 ZINC000003871503    0.1100
43     H43     4.7972   -4.0155    3.0412 H        1 ZINC000003871503    0.0800
44     H44     4.6371   -2.7558    4.2886 H        1 ZINC000003871503    0.0800
45     H45     5.6648   -4.5124    5.9817 H        1 ZINC000003871503    0.1100
46     H46     7.4765   -5.5956    4.8535 H        1 ZINC000003871503    0.1100
47     H47     6.8181   -5.7862    2.3030 H        1 ZINC000003871503    0.0800
48     H48     6.1820   -4.1294    2.4399 H        1 ZINC000003871503    0.0800
49     H49     8.6437   -3.3833    3.0400 H        1 ZINC000003871503    0.1100
50     H50    10.1256   -4.5645    1.5780 H        1 ZINC000003871503    0.1100
51     H51     9.0703   -6.9459    1.1401 H        1 ZINC000003871503    0.0800
52     H52     7.4995   -6.1204    1.0011 H        1 ZINC000003871503    0.0800
53     H53     8.5245   -4.8140   -1.0525 H        1 ZINC000003871503    0.1100
54     H54     9.7871   -6.3854   -2.3428 H        1 ZINC000003871503    0.1100
55     H55    10.8518   -8.1092   -0.6388 H        1 ZINC000003871503    0.0700
56     H56     9.2772   -8.1074    0.1912 H        1 ZINC000003871503    0.0800
57     H57     8.1903   -8.9577   -1.8690 H        1 ZINC000003871503    0.0700
58     H58     9.7649   -8.9596   -2.6989 H        1 ZINC000003871503    0.0700
59     H59    10.6433  -10.5682   -1.0288 H        1 ZINC000003871503    0.1000
60     H60     9.0687  -10.5664   -0.1988 H        1 ZINC000003871503    0.1000
61     H61     9.5931  -13.0768   -0.9536 H        1 ZINC000003871503    0.4100
62     H62     8.2579  -15.2122   -1.2393 H        1 ZINC000003871503    0.1300
63     H63     7.6017  -16.9354   -2.8689 H        1 ZINC000003871503    0.1300
64     H64     6.8234  -16.6406   -5.7474 H        1 ZINC000003871503    0.3900
65     H65     8.7013  -14.3284   -6.0714 H        1 ZINC000003871503    0.1300
66     H66     9.3519  -12.6013   -4.4435 H        1 ZINC000003871503    0.1400
@<TRIPOS>BOND
1     1     2     1
2     1     30    1
3     1     31    1
4     1     32    1
5     2     3     1
6     2     33    1
7     2     34    1
8     3     4     1
9     3     35    1
10    3     36    1
11    4     5     1
12    4     37    1
13    4     38    1
14    5     6     1
15    5     39    1
16    5     40    1
17    6     7     2
18    6     41    1
19    7     8     1
20    7     42    1
21    8     9     1
22    8     43    1
23    8     44    1
24    9     10    2
25    9     45    1
26    10    11    1
27    10    46    1
28    11    12    1
29    11    47    1
30    11    48    1
31    12    13    2
32    12    49    1
33    13    14    1
34    13    50    1
35    14    15    1
36    14    51    1
37    14    52    1
38    15    16    2
39    15    53    1
40    16    17    1
41    16    54    1
42    17    18    1
43    17    55    1
44    17    56    1
45    18    19    1
46    18    57    1
47    18    58    1
48    19    20    1
49    19    59    1
50    19    60    1
51    20    21    2
52    20    22    am
53    22    23    1
54    22    61    1
55    23    29    ar
56    23    24    ar
57    24    25    ar
58    24    62    1
59    25    26    ar
60    25    63    1
61    26    27    1
62    26    28    ar
63    27    64    1
64    28    29    ar
65    28    65    1
66    29    66    1
@<TRIPOS>SUBSTRUCTURE
1   ZINC000003871503 1     RESIDUE    1   A     ZIN   1
