@<TRIPOS>MOLECULE
ZINC000117040414
75    77    1     0     0
SMALL
USER_CHARGES
@<TRIPOS>ATOM
1      C1     -0.3712    1.4725    0.0309 C.3      1 ZINC000117040414   -0.1200
2      C2     -0.2659   -0.0307    0.0145 C.ar     1 ZINC000117040414   -0.0200
3      C3     -0.1666   -0.7026   -1.1857 C.ar     1 ZINC000117040414   -0.2300
4      C4     -0.0695   -2.0875   -1.2016 C.ar     1 ZINC000117040414    0.1400
5      O5      0.0278   -2.7468   -2.3856 O.3      1 ZINC000117040414   -0.3000
6      C6     -0.0998   -1.9657   -3.5755 C.3      1 ZINC000117040414    0.1300
7      H7     -0.6091   -1.0304   -3.3433 H        1 ZINC000117040414    0.0900
8      C8      1.2903   -1.6633   -4.1385 C.3      1 ZINC000117040414   -0.1400
9      C9      2.0579   -0.7787   -3.1541 C.3      1 ZINC000117040414   -0.1700
10     C10     3.4480   -0.4763   -3.7172 C.3      1 ZINC000117040414    0.4500
11     F11     3.3207    0.1896   -4.9409 F        1 ZINC000117040414   -0.1800
12     F12     4.1499    0.3326   -2.8170 F        1 ZINC000117040414   -0.1800
13     F13     4.1445   -1.6744   -3.9084 F        1 ZINC000117040414   -0.1800
14     C14    -0.8994   -2.7330   -4.5967 C.ar     1 ZINC000117040414   -0.0800
15     C15    -0.7805   -4.1095   -4.6720 C.ar     1 ZINC000117040414   -0.1000
16     C16    -1.5092   -4.8179   -5.6048 C.ar     1 ZINC000117040414   -0.0600
17     C17    -2.3683   -4.1430   -6.4736 C.ar     1 ZINC000117040414   -0.1200
18     C18    -3.1528   -4.8958   -7.4755 C.2      1 ZINC000117040414    0.5500
19     O19    -3.0503   -6.1051   -7.5439 O.2      1 ZINC000117040414   -0.5400
20     N20    -3.9815   -4.2412   -8.3129 N.am     1 ZINC000117040414   -0.7200
21     C21    -4.7588   -4.9872   -9.3057 C.3      1 ZINC000117040414    0.1400
22     C22    -5.6116   -4.0139  -10.1219 C.3      1 ZINC000117040414   -0.2000
23     C23    -6.4112   -4.7812  -11.1431 C.2      1 ZINC000117040414    0.5000
24     O24    -6.3085   -5.9941  -11.2117 O.co2    1 ZINC000117040414   -0.6900
25     O25    -7.1608   -4.1890  -11.9007 O.co2    1 ZINC000117040414   -0.7000
26     C26    -2.4840   -2.7544   -6.3921 C.ar     1 ZINC000117040414   -0.0900
27     C27    -1.7534   -2.0586   -5.4511 C.ar     1 ZINC000117040414   -0.1100
28     C28    -0.0713   -2.7999   -0.0100 C.ar     1 ZINC000117040414   -0.1600
29     C29    -0.1700   -2.1335    1.1933 C.ar     1 ZINC000117040414   -0.0200
30     C30    -0.1714   -2.9076    2.4863 C.3      1 ZINC000117040414   -0.1200
31     C31    -0.2631   -0.7429    1.2126 C.ar     1 ZINC000117040414   -0.0900
32     C32    -0.3689   -0.0230    2.5055 C.ar     1 ZINC000117040414   -0.0300
33     C33    -1.4868   -0.2044    3.3175 C.ar     1 ZINC000117040414   -0.1100
34     C34    -1.5799    0.4679    4.5192 C.ar     1 ZINC000117040414   -0.1100
35     C35    -0.5664    1.3205    4.9181 C.ar     1 ZINC000117040414   -0.0700
36     C36    -0.6738    2.0519    6.2313 C.3      1 ZINC000117040414   -0.0300
37     C37    -0.7770    1.0381    7.3727 C.3      1 ZINC000117040414   -0.1400
38     C38     0.5679    2.9226    6.4333 C.3      1 ZINC000117040414   -0.1400
39     C39    -1.9215    2.9373    6.2214 C.3      1 ZINC000117040414   -0.1400
40     C40     0.5457    1.5040    4.1162 C.ar     1 ZINC000117040414   -0.1200
41     C41     0.6518    0.8328    2.9150 C.ar     1 ZINC000117040414   -0.1000
42     H42     0.6278    1.9062    0.0749 H        1 ZINC000117040414    0.0700
43     H43    -0.8749    1.8113   -0.8743 H        1 ZINC000117040414    0.0700
44     H44    -0.9427    1.7872    0.9042 H        1 ZINC000117040414    0.0700
45     H45    -0.1646   -0.1510   -2.1142 H        1 ZINC000117040414    0.1300
46     H46     1.8330   -2.5968   -4.2875 H        1 ZINC000117040414    0.0900
47     H47     1.1911   -1.1445   -5.0920 H        1 ZINC000117040414    0.1000
48     H48     1.5153    0.1548   -3.0051 H        1 ZINC000117040414    0.1100
49     H49     2.1571   -1.2975   -2.2006 H        1 ZINC000117040414    0.1100
50     H50    -0.1154   -4.6304   -3.9992 H        1 ZINC000117040414    0.1300
51     H51    -1.4150   -5.8922   -5.6630 H        1 ZINC000117040414    0.1400
52     H52    -4.0632   -3.2762   -8.2583 H        1 ZINC000117040414    0.3900
53     H53    -4.0808   -5.5220   -9.9708 H        1 ZINC000117040414    0.0700
54     H54    -5.4075   -5.7008   -8.7977 H        1 ZINC000117040414    0.0700
55     H55    -6.2896   -3.4790   -9.4567 H        1 ZINC000117040414    0.0600
56     H56    -4.9629   -3.3003  -10.6298 H        1 ZINC000117040414    0.0600
57     H57    -3.1467   -2.2263   -7.0616 H        1 ZINC000117040414    0.1300
58     H58    -1.8422   -0.9842   -5.3868 H        1 ZINC000117040414    0.1300
59     H59     0.0043   -3.8772   -0.0255 H        1 ZINC000117040414    0.1300
60     H60     0.8524   -3.0223    2.8422 H        1 ZINC000117040414    0.0700
61     H61    -0.7569   -2.3691    3.2315 H        1 ZINC000117040414    0.0800
62     H62    -0.6108   -3.8912    2.3204 H        1 ZINC000117040414    0.0700
63     H63    -2.2789   -0.8696    3.0069 H        1 ZINC000117040414    0.1200
64     H64    -2.4460    0.3284    5.1492 H        1 ZINC000117040414    0.1200
65     H65     0.1119    0.4073    7.3798 H        1 ZINC000117040414    0.0600
66     H66    -0.8547    1.5671    8.3225 H        1 ZINC000117040414    0.0600
67     H67    -1.6616    0.4178    7.2288 H        1 ZINC000117040414    0.0600
68     H68     0.6414    3.6448    5.6202 H        1 ZINC000117040414    0.0600
69     H69     0.4902    3.4516    7.3831 H        1 ZINC000117040414    0.0600
70     H70     1.4568    2.2918    6.4404 H        1 ZINC000117040414    0.0600
71     H71    -2.8062    2.3170    6.0775 H        1 ZINC000117040414    0.0600
72     H72    -1.9993    3.4663    7.1712 H        1 ZINC000117040414    0.0600
73     H73    -1.8480    3.6595    5.4083 H        1 ZINC000117040414    0.0600
74     H74     1.3343    2.1706    4.4327 H        1 ZINC000117040414    0.1300
75     H75     1.5206    0.9767    2.2897 H        1 ZINC000117040414    0.1200
@<TRIPOS>BOND
1     1     2     1
2     1     42    1
3     1     43    1
4     1     44    1
5     2     31    ar
6     2     3     ar
7     3     4     ar
8     3     45    1
9     4     5     1
10    4     28    ar
11    5     6     1
12    6     7     1
13    6     8     1
14    6     14    1
15    8     9     1
16    8     46    1
17    8     47    1
18    9     10    1
19    9     48    1
20    9     49    1
21    10    11    1
22    10    12    1
23    10    13    1
24    14    27    ar
25    14    15    ar
26    15    16    ar
27    15    50    1
28    16    17    ar
29    16    51    1
30    17    18    1
31    17    26    ar
32    18    19    2
33    18    20    am
34    20    21    1
35    20    52    1
36    21    22    1
37    21    53    1
38    21    54    1
39    22    23    1
40    22    55    1
41    22    56    1
42    23    24    ar
43    23    25    ar
44    26    27    ar
45    26    57    1
46    27    58    1
47    28    29    ar
48    28    59    1
49    29    30    1
50    29    31    ar
51    30    60    1
52    30    61    1
53    30    62    1
54    31    32    1
55    32    41    ar
56    32    33    ar
57    33    34    ar
58    33    63    1
59    34    35    ar
60    34    64    1
61    35    36    1
62    35    40    ar
63    36    37    1
64    36    38    1
65    36    39    1
66    37    65    1
67    37    66    1
68    37    67    1
69    38    68    1
70    38    69    1
71    38    70    1
72    39    71    1
73    39    72    1
74    39    73    1
75    40    41    ar
76    40    74    1
77    41    75    1
@<TRIPOS>SUBSTRUCTURE
1   ZINC000117040414 1     RESIDUE    1   A     ZIN   1
