@<TRIPOS>MOLECULE
ZINC000145814743
51    54    1     0     0
SMALL
USER_CHARGES
@<TRIPOS>ATOM
1      C1      0.1555    1.7129   -0.7658 C.3      1 ZINC000145814743   -0.0800
2      C2      0.1082    0.2579   -0.3759 C.2      1 ZINC000145814743    0.0100
3      C3     -0.9811   -0.4352    0.0258 C.2      1 ZINC000145814743   -0.2100
4      C4     -2.3944    0.0643    0.1806 C.3      1 ZINC000145814743    0.1500
5      O5     -3.0608    0.0071   -1.0822 O.3      1 ZINC000145814743   -0.3000
6      C6     -4.3496    0.4241   -1.1171 C.ar     1 ZINC000145814743    0.3500
7      C7     -5.0504    0.3856   -2.3184 C.ar     1 ZINC000145814743   -0.1900
8      C8     -6.3626    0.8115   -2.3478 C.ar     1 ZINC000145814743   -0.0200
9      C9     -6.9411    1.2697   -1.1553 C.ar     1 ZINC000145814743   -0.2300
10     C10    -8.3416    1.7358   -1.1327 C.2      1 ZINC000145814743    0.5800
11     O11    -9.0771    1.4071   -0.2221 O.2      1 ZINC000145814743   -0.5100
12     N12    -8.8049    2.5259   -2.1214 N.am     1 ZINC000145814743   -0.6200
13     C13    -7.9451    2.8362   -3.2649 C.3      1 ZINC000145814743    0.0900
14     C14    -8.5551    2.2441   -4.5392 C.3      1 ZINC000145814743   -0.6400
15     S15   -10.2223    2.9285   -4.7683 S.o2     1 ZINC000145814743    2.4200
16     O16   -10.1245    4.3434   -4.8566 O.2      1 ZINC000145814743   -0.9300
17     O17   -10.8694    2.2100   -5.8095 O.2      1 ZINC000145814743   -0.9300
18     C18   -11.0071    2.4979   -3.1875 C.3      1 ZINC000145814743   -0.6200
19     C19   -10.1653    3.0610   -2.0451 C.3      1 ZINC000145814743    0.1200
20     C20    -6.1730    1.2779    0.0099 C.ar     1 ZINC000145814743    0.2100
21     N21    -4.9257    0.8574   -0.0061 N.ar     1 ZINC000145814743   -0.5400
22     C22    -0.4832   -1.7461    0.2677 C.2      1 ZINC000145814743    0.0800
23     C23    -1.2587   -2.9231    0.7319 C.ar     1 ZINC000145814743   -0.0400
24     C24    -2.5277   -3.1726    0.2131 C.ar     1 ZINC000145814743   -0.0600
25     C25    -3.2453   -4.2679    0.6474 C.ar     1 ZINC000145814743   -0.1500
26     C26    -2.7058   -5.1194    1.5981 C.ar     1 ZINC000145814743    0.1100
27     F27    -3.4117   -6.1912    2.0204 F        1 ZINC000145814743   -0.1300
28     C28    -1.4443   -4.8751    2.1166 C.ar     1 ZINC000145814743   -0.1500
29     C29    -0.7176   -3.7853    1.6836 C.ar     1 ZINC000145814743   -0.0600
30     N30     0.7980   -1.7042   -0.0026 N.2      1 ZINC000145814743   -0.3500
31     O31     1.1369   -0.6018   -0.3656 O.3      1 ZINC000145814743    0.1100
32     H32     1.1739    1.9807   -1.0473 H        1 ZINC000145814743    0.0900
33     H33    -0.5120    1.8846   -1.6102 H        1 ZINC000145814743    0.1000
34     H34    -0.1611    2.3257    0.0782 H        1 ZINC000145814743    0.1000
35     H35    -2.9241   -0.5608    0.8995 H        1 ZINC000145814743    0.0900
36     H36    -2.3788    1.0943    0.5368 H        1 ZINC000145814743    0.0900
37     H37    -4.5725    0.0267   -3.2180 H        1 ZINC000145814743    0.1500
38     H38    -6.9300    0.7928   -3.2666 H        1 ZINC000145814743    0.1500
39     H39    -7.8593    3.9176   -3.3719 H        1 ZINC000145814743    0.1000
40     H40    -6.9561    2.4077   -3.1026 H        1 ZINC000145814743    0.1200
41     H41    -7.9333    2.5035   -5.3960 H        1 ZINC000145814743    0.1500
42     H42    -8.6155    1.1598   -4.4451 H        1 ZINC000145814743    0.1400
43     H43   -12.0091    2.9254   -3.1492 H        1 ZINC000145814743    0.1500
44     H44   -11.0675    1.4137   -3.0934 H        1 ZINC000145814743    0.1400
45     H45   -10.6130    2.7807   -1.0916 H        1 ZINC000145814743    0.1200
46     H46   -10.1275    4.1475   -2.1230 H        1 ZINC000145814743    0.1000
47     H47    -6.6074    1.6285    0.9345 H        1 ZINC000145814743    0.1700
48     H48    -2.9490   -2.5092   -0.5277 H        1 ZINC000145814743    0.1400
49     H49    -4.2290   -4.4617    0.2461 H        1 ZINC000145814743    0.1400
50     H50    -1.0276   -5.5411    2.8578 H        1 ZINC000145814743    0.1400
51     H51     0.2656   -3.5955    2.0882 H        1 ZINC000145814743    0.1400
@<TRIPOS>BOND
1     1     2     1
2     1     32    1
3     1     33    1
4     1     34    1
5     2     31    1
6     2     3     2
7     3     4     1
8     3     22    1
9     4     5     1
10    4     35    1
11    4     36    1
12    5     6     1
13    6     21    ar
14    6     7     ar
15    7     8     ar
16    7     37    1
17    8     9     ar
18    8     38    1
19    9     10    1
20    9     20    ar
21    10    11    2
22    10    12    am
23    12    19    1
24    12    13    1
25    13    14    1
26    13    39    1
27    13    40    1
28    14    15    1
29    14    41    1
30    14    42    1
31    15    16    2
32    15    17    2
33    15    18    1
34    18    19    1
35    18    43    1
36    18    44    1
37    19    45    1
38    19    46    1
39    20    21    ar
40    20    47    1
41    22    23    1
42    22    30    2
43    23    29    ar
44    23    24    ar
45    24    25    ar
46    24    48    1
47    25    26    ar
48    25    49    1
49    26    27    1
50    26    28    ar
51    28    29    ar
52    28    50    1
53    29    51    1
54    30    31    1
@<TRIPOS>SUBSTRUCTURE
1   ZINC000145814743 1     RESIDUE    1   A     ZIN   1
