@<TRIPOS>MOLECULE
ZINC000049037032
41    45    1     0     0
SMALL
USER_CHARGES
@<TRIPOS>ATOM
1      C1     -0.0187    1.5258    0.0104 C.3      1 ZINC000049037032   -0.1800
2      C2      0.0021   -0.0041    0.0020 C.3      1 ZINC000049037032    0.0100
3      H3     -1.0207   -0.3809    0.0098 H        1 ZINC000049037032    0.1600
4      C4      0.7191   -0.4984   -1.2618 C.3      1 ZINC000049037032   -0.0700
5      C5      0.9451   -1.9823   -1.1207 C.2      1 ZINC000049037032   -0.1300
6      C6      0.8487   -2.6358    0.0618 C.2      1 ZINC000049037032    0.0400
7      N7      1.1045   -3.9668   -0.1249 N.pl3    1 ZINC000049037032   -0.5500
8      C8      1.3734   -4.2058   -1.4441 C.ar     1 ZINC000049037032    0.1200
9      C9      1.6891   -5.3746   -2.1322 C.ar     1 ZINC000049037032   -0.0900
10     C10     1.9051   -5.2654   -3.4960 C.ar     1 ZINC000049037032   -0.0400
11     Cl11    2.2999   -6.6938   -4.4000 Cl       1 ZINC000049037032   -0.0200
12     C12     1.8169   -4.0518   -4.1637 C.ar     1 ZINC000049037032    0.1000
13     F13     2.0401   -4.0181   -5.4957 F        1 ZINC000049037032   -0.1200
14     C14     1.5071   -2.8748   -3.5037 C.ar     1 ZINC000049037032   -0.0800
15     C15     1.2835   -2.9639   -2.1259 C.ar     1 ZINC000049037032   -0.0700
16     C16     0.5090   -1.9338    1.3497 C.3      1 ZINC000049037032    0.1700
17     N17     0.7116   -0.4903    1.1936 N.4      1 ZINC000049037032   -0.4800
18     H18     1.6977   -0.2996    1.0974 H        1 ZINC000049037032    0.4400
19     H19     0.3568   -0.0129    2.0087 H        1 ZINC000049037032    0.4400
20     C20    -0.9262   -2.2219    1.7337 C.2      1 ZINC000049037032    0.5200
21     O21    -1.9151   -1.9470    1.0874 O.2      1 ZINC000049037032   -0.4300
22     N22    -0.8970   -2.8433    2.9312 N.am     1 ZINC000049037032   -0.6400
23     C23     0.3953   -3.0068    3.3996 C.ar     1 ZINC000049037032    0.1700
24     C24     0.8406   -3.5953    4.5836 C.ar     1 ZINC000049037032   -0.1100
25     C25     2.2092   -3.6225    4.8032 C.ar     1 ZINC000049037032   -0.0400
26     C26     3.1055   -3.0930    3.8966 C.ar     1 ZINC000049037032   -0.0600
27     Cl27    4.8054   -3.1629    4.2418 Cl       1 ZINC000049037032   -0.0300
28     C28     2.6742   -2.5036    2.7115 C.ar     1 ZINC000049037032   -0.0200
29     C29     1.3151   -2.4743    2.4869 C.ar     1 ZINC000049037032   -0.2100
30     H30     1.0039    1.9031    0.0027 H        1 ZINC000049037032    0.0900
31     H31    -0.5459    1.8868   -0.8726 H        1 ZINC000049037032    0.1200
32     H32    -0.5289    1.8773    0.9072 H        1 ZINC000049037032    0.0900
33     H33     0.1001   -0.3017   -2.1371 H        1 ZINC000049037032    0.1300
34     H34     1.6768    0.0118   -1.3651 H        1 ZINC000049037032    0.1100
35     H35     1.0968   -4.6397    0.5737 H        1 ZINC000049037032    0.4300
36     H36     1.7626   -6.3250   -1.6245 H        1 ZINC000049037032    0.1600
37     H37     1.4413   -1.9328   -4.0278 H        1 ZINC000049037032    0.1600
38     H38    -1.6881   -3.1400    3.4076 H        1 ZINC000049037032    0.4400
39     H39     0.1478   -4.0121    5.2996 H        1 ZINC000049037032    0.1600
40     H40     2.5854   -4.0711    5.7107 H        1 ZINC000049037032    0.1600
41     H41     3.3731   -2.0882    2.0005 H        1 ZINC000049037032    0.1600
@<TRIPOS>BOND
1     1     2     1
2     1     30    1
3     1     31    1
4     1     32    1
5     2     3     1
6     2     17    1
7     2     4     1
8     4     5     1
9     4     33    1
10    4     34    1
11    5     15    1
12    5     6     2
13    6     7     1
14    6     16    1
15    7     8     1
16    7     35    1
17    8     15    ar
18    8     9     ar
19    9     10    ar
20    9     36    1
21    10    11    1
22    10    12    ar
23    12    13    1
24    12    14    ar
25    14    15    ar
26    14    37    1
27    16    29    1
28    16    17    1
29    16    20    1
30    17    18    1
31    17    19    1
32    20    21    2
33    20    22    am
34    22    23    1
35    22    38    1
36    23    29    ar
37    23    24    ar
38    24    25    ar
39    24    39    1
40    25    26    ar
41    25    40    1
42    26    27    1
43    26    28    ar
44    28    29    ar
45    28    41    1
@<TRIPOS>SUBSTRUCTURE
1   ZINC000049037032 1     RESIDUE    1   A     ZIN   1
