@<TRIPOS>MOLECULE
ZINC000000008767
27    29    1     0     0
SMALL
USER_CHARGES
@<TRIPOS>ATOM
1      C1      1.2370   -0.3705   -1.1581 C.3      1 ZINC000000008767   -0.1200
2      C2      0.1131   -0.1470   -0.1443 C.3      1 ZINC000000008767    0.1200
3      N3     -1.2257   -0.5437   -0.5875 N.pl3    1 ZINC000000008767   -0.6700
4      C4     -1.8135    0.0934   -1.6553 C.2      1 ZINC000000008767    0.7300
5      N5     -1.1648    1.0984   -2.1443 N.am     1 ZINC000000008767   -0.9600
6      S6     -1.7648    1.9614   -3.4336 S.o2     1 ZINC000000008767    2.6600
7      O7     -1.8241    3.3217   -3.0271 O.2      1 ZINC000000008767   -0.9400
8      O8     -1.0663    1.5162   -4.5882 O.2      1 ZINC000000008767   -0.9500
9      C9     -3.4341    1.4008   -3.5937 C.2      1 ZINC000000008767   -0.8500
10     C10    -3.8834    0.3105   -2.9220 C.2      1 ZINC000000008767    0.2600
11     C11    -5.2196    0.0246   -3.1718 C.2      1 ZINC000000008767   -0.1500
12     C12    -5.8369    0.8514   -4.0177 C.2      1 ZINC000000008767   -0.1100
13     Cl13   -7.4990    0.7258   -4.5027 Cl       1 ZINC000000008767    0.0200
14     S14    -4.7130    2.0888   -4.5665 S.3      1 ZINC000000008767    0.3400
15     N15    -3.0052   -0.4142   -2.0726 N.pl3    1 ZINC000000008767   -0.6700
16     C16     0.4508   -0.3305    1.3366 C.3      1 ZINC000000008767   -0.1700
17     C17     0.2211    1.0731    0.7725 C.3      1 ZINC000000008767   -0.1600
18     H18     2.1875   -0.4624   -0.6325 H        1 ZINC000000008767    0.0700
19     H19     1.0429   -1.2840   -1.7202 H        1 ZINC000000008767    0.0600
20     H20     1.2813    0.4756   -1.8439 H        1 ZINC000000008767    0.0800
21     H21    -1.6977   -1.2556   -0.1278 H        1 ZINC000000008767    0.4100
22     H22    -5.7252   -0.8117   -2.7120 H        1 ZINC000000008767    0.1700
23     H23    -3.2676   -1.2992   -1.7747 H        1 ZINC000000008767    0.4300
24     H24    -0.3233   -0.7465    1.9815 H        1 ZINC000000008767    0.1000
25     H25     1.4736   -0.6104    1.5887 H        1 ZINC000000008767    0.1100
26     H26     1.0929    1.7165    0.6535 H        1 ZINC000000008767    0.1100
27     H27    -0.7040    1.5804    1.0463 H        1 ZINC000000008767    0.1000
@<TRIPOS>BOND
1     1     2     1
2     1     18    1
3     1     19    1
4     1     20    1
5     2     17    1
6     2     3     1
7     2     16    1
8     3     4     1
9     3     21    1
10    4     15    1
11    4     5     2
12    5     6     am
13    6     7     2
14    6     8     2
15    6     9     1
16    9     14    1
17    9     10    2
18    10    11    1
19    10    15    1
20    11    12    2
21    11    22    1
22    12    13    1
23    12    14    1
24    15    23    1
25    16    17    1
26    16    24    1
27    16    25    1
28    17    26    1
29    17    27    1
@<TRIPOS>SUBSTRUCTURE
1   ZINC000000008767 1     RESIDUE    1   A     ZIN   1
