@<TRIPOS>MOLECULE
ZINC000006716615
92    94    1     0     0
SMALL
USER_CHARGES
@<TRIPOS>ATOM
1      C1      3.6328    0.8378   -0.9505 C.3      1 ZINC000006716615   -0.1600
2      C2      2.9505   -0.5314   -0.9733 C.3      1 ZINC000006716615    0.0800
3      O3      3.4880   -1.3218   -2.0663 O.3      1 ZINC000006716615   -0.3700
4      C4      2.9899   -2.5624   -2.2262 C.2      1 ZINC000006716615    0.6500
5      O5      2.1295   -2.9734   -1.4729 O.2      1 ZINC000006716615   -0.5700
6      N6      3.4455   -3.3484   -3.2217 N.am     1 ZINC000006716615   -0.6000
7      C7      4.4901   -2.8669   -4.1365 C.3      1 ZINC000006716615    0.1000
8      C8      5.6549   -3.8645   -4.1188 C.3      1 ZINC000006716615    0.1000
9      N9      5.1164   -5.2186   -4.3087 N.am     1 ZINC000006716615   -0.6100
10     C10     5.5726   -6.0050   -5.3037 C.2      1 ZINC000006716615    0.5100
11     O11     6.4246   -5.5914   -6.0612 O.2      1 ZINC000006716615   -0.5100
12     C12     5.0241   -7.3981   -5.4748 C.3      1 ZINC000006716615    0.1400
13     H13     3.9348   -7.3652   -5.4508 H        1 ZINC000006716615    0.1200
14     C14     5.5325   -8.2895   -4.3400 C.3      1 ZINC000006716615   -0.1000
15     C15     4.8636   -9.6374   -4.4217 C.ar     1 ZINC000006716615   -0.0700
16     C16     3.6707   -9.8573   -3.7571 C.ar     1 ZINC000006716615   -0.0500
17     C17     3.0508  -11.0923   -3.8270 C.ar     1 ZINC000006716615   -0.1000
18     C18     3.6200  -12.1124   -4.5611 C.ar     1 ZINC000006716615   -0.0500
19     C19     4.8225  -11.8966   -5.2339 C.ar     1 ZINC000006716615   -0.1400
20     C20     5.4384  -12.9872   -6.0240 C.cat    1 ZINC000006716615    0.6100
21     N21     6.1617  -12.7054   -7.0697 N.pl3    1 ZINC000006716615   -0.7200
22     H22     6.5652  -13.4198   -7.5872 H        1 ZINC000006716615    0.4400
23     H23     6.2970  -11.7811   -7.3310 H        1 ZINC000006716615    0.4400
24     N24     5.2463  -14.3001   -5.6528 N.pl3    1 ZINC000006716615   -0.5400
25     O25     5.8352  -15.3430   -6.4082 O.3      1 ZINC000006716615   -0.3100
26     C26     5.4396  -10.6481   -5.1642 C.ar     1 ZINC000006716615   -0.0500
27     N27     5.4679   -7.9432   -6.7602 N.am     1 ZINC000006716615   -1.1000
28     S28     4.3617   -8.5770   -7.8171 S.o2     1 ZINC000006716615    2.6800
29     O29     5.0852   -8.9410   -8.9847 O.2      1 ZINC000006716615   -0.9500
30     O30     3.5756   -9.4966   -7.0716 O.2      1 ZINC000006716615   -0.9400
31     C31     3.2816   -7.2674   -8.2892 C.ar     1 ZINC000006716615   -0.6900
32     C32     2.0891   -7.0784   -7.6160 C.ar     1 ZINC000006716615    0.0300
33     C33     1.7130   -7.9924   -6.4784 C.3      1 ZINC000006716615   -0.0800
34     C34     0.8576   -7.2244   -5.4687 C.3      1 ZINC000006716615   -0.1600
35     C35     0.9173   -9.1812   -7.0210 C.3      1 ZINC000006716615   -0.1300
36     C36     1.2419   -6.0507   -7.9860 C.ar     1 ZINC000006716615   -0.1500
37     C37     1.5869   -5.2123   -9.0296 C.ar     1 ZINC000006716615    0.0000
38     C38     0.6631   -4.0922   -9.4333 C.3      1 ZINC000006716615   -0.0700
39     C39     1.3885   -2.7536   -9.2832 C.3      1 ZINC000006716615   -0.1500
40     C40     0.2386   -4.2816  -10.8910 C.3      1 ZINC000006716615   -0.1500
41     C41     2.7796   -5.4011   -9.7025 C.ar     1 ZINC000006716615   -0.1400
42     C42     3.6292   -6.4256   -9.3290 C.ar     1 ZINC000006716615    0.0400
43     C43     4.9295   -6.6313  -10.0626 C.3      1 ZINC000006716615   -0.0900
44     C44     4.6522   -7.2818  -11.4194 C.3      1 ZINC000006716615   -0.1300
45     C45     5.6144   -5.2799  -10.2754 C.3      1 ZINC000006716615   -0.1500
46     C46     4.0718   -5.7002   -3.3939 C.3      1 ZINC000006716615    0.0800
47     C47     2.9109   -4.7047   -3.4081 C.3      1 ZINC000006716615    0.1100
48     H48     4.7059    0.7068   -0.8107 H        1 ZINC000006716615    0.0700
49     H49     3.4493    1.3510   -1.8944 H        1 ZINC000006716615    0.0700
50     H50     3.2294    1.4311   -0.1299 H        1 ZINC000006716615    0.0900
51     H51     3.1340   -1.0446   -0.0293 H        1 ZINC000006716615    0.0700
52     H52     1.8775   -0.4004   -1.1130 H        1 ZINC000006716615    0.0700
53     H53     4.0865   -2.7935   -5.1464 H        1 ZINC000006716615    0.0800
54     H54     4.8412   -1.8886   -3.8082 H        1 ZINC000006716615    0.1100
55     H55     6.3492   -3.6304   -4.9258 H        1 ZINC000006716615    0.1100
56     H56     6.1711   -3.8071   -3.1605 H        1 ZINC000006716615    0.0800
57     H57     6.6117   -8.4133   -4.4309 H        1 ZINC000006716615    0.1000
58     H58     5.2995   -7.8257   -3.3815 H        1 ZINC000006716615    0.1100
59     H59     3.2215   -9.0620   -3.1809 H        1 ZINC000006716615    0.1400
60     H60     2.1196  -11.2582   -3.3056 H        1 ZINC000006716615    0.1500
61     H61     3.1355  -13.0762   -4.6144 H        1 ZINC000006716615    0.1400
62     H62     4.7075  -14.5100   -4.8739 H        1 ZINC000006716615    0.4500
63     H63     5.6444  -16.2290   -6.0711 H        1 ZINC000006716615    0.4300
64     H64     6.3707  -10.4750   -5.6834 H        1 ZINC000006716615    0.1300
65     H65     6.4097   -7.9328   -6.9922 H        1 ZINC000006716615    0.4300
66     H66     2.6171   -8.3535   -5.9883 H        1 ZINC000006716615    0.1000
67     H67    -0.0914   -6.9511   -5.9300 H        1 ZINC000006716615    0.0600
68     H68     0.6706   -7.8533   -4.5982 H        1 ZINC000006716615    0.0700
69     H69     1.3841   -6.3219   -5.1585 H        1 ZINC000006716615    0.0600
70     H70     1.5267   -9.7283   -7.7403 H        1 ZINC000006716615    0.0600
71     H71     0.6453   -9.8423   -6.1981 H        1 ZINC000006716615    0.0600
72     H72     0.0132   -8.8201   -7.5111 H        1 ZINC000006716615    0.0500
73     H73     0.3102   -5.9030   -7.4601 H        1 ZINC000006716615    0.1300
74     H74    -0.2196   -4.1009   -8.7938 H        1 ZINC000006716615    0.0800
75     H75     2.2712   -2.7449   -9.9227 H        1 ZINC000006716615    0.0600
76     H76     0.7203   -1.9434   -9.5752 H        1 ZINC000006716615    0.0700
77     H77     1.6909   -2.6187   -8.2447 H        1 ZINC000006716615    0.0600
78     H78    -0.2782   -5.2353  -10.9980 H        1 ZINC000006716615    0.0600
79     H79    -0.4296   -3.4715  -11.1831 H        1 ZINC000006716615    0.0700
80     H80     1.1213   -4.2730  -11.5305 H        1 ZINC000006716615    0.0600
81     H81     3.0493   -4.7458  -10.5175 H        1 ZINC000006716615    0.1300
82     H82     5.5795   -7.2796   -9.4749 H        1 ZINC000006716615    0.1000
83     H83     4.0021   -6.6335  -12.0070 H        1 ZINC000006716615    0.0500
84     H84     5.5926   -7.4306  -11.9499 H        1 ZINC000006716615    0.0700
85     H85     4.1642   -8.2446  -11.2678 H        1 ZINC000006716615    0.0600
86     H86     5.8120   -4.8165   -9.3087 H        1 ZINC000006716615    0.0600
87     H87     6.5549   -5.4287  -10.8059 H        1 ZINC000006716615    0.0700
88     H88     4.9644   -4.6316  -10.8630 H        1 ZINC000006716615    0.0600
89     H89     3.7206   -6.6785   -3.7222 H        1 ZINC000006716615    0.1000
90     H90     4.4753   -5.7735   -2.3840 H        1 ZINC000006716615    0.0900
91     H91     2.2174   -4.9399   -2.6008 H        1 ZINC000006716615    0.1200
92     H92     2.3935   -4.7598   -4.3659 H        1 ZINC000006716615    0.0800
@<TRIPOS>BOND
1     1     2     1
2     1     48    1
3     1     49    1
4     1     50    1
5     2     3     1
6     2     51    1
7     2     52    1
8     3     4     1
9     4     5     2
10    4     6     am
11    6     47    1
12    6     7     1
13    7     8     1
14    7     53    1
15    7     54    1
16    8     9     1
17    8     55    1
18    8     56    1
19    9     10    am
20    9     46    1
21    10    11    2
22    10    12    1
23    12    13    1
24    12    14    1
25    12    27    1
26    14    15    1
27    14    57    1
28    14    58    1
29    15    26    ar
30    15    16    ar
31    16    17    ar
32    16    59    1
33    17    18    ar
34    17    60    1
35    18    19    ar
36    18    61    1
37    19    20    1
38    19    26    ar
39    20    21    ar
40    20    24    ar
41    21    22    1
42    21    23    1
43    24    25    1
44    24    62    1
45    25    63    1
46    26    64    1
47    27    28    am
48    27    65    1
49    28    29    2
50    28    30    2
51    28    31    1
52    31    42    ar
53    31    32    ar
54    32    33    1
55    32    36    ar
56    33    34    1
57    33    35    1
58    33    66    1
59    34    67    1
60    34    68    1
61    34    69    1
62    35    70    1
63    35    71    1
64    35    72    1
65    36    37    ar
66    36    73    1
67    37    38    1
68    37    41    ar
69    38    39    1
70    38    40    1
71    38    74    1
72    39    75    1
73    39    76    1
74    39    77    1
75    40    78    1
76    40    79    1
77    40    80    1
78    41    42    ar
79    41    81    1
80    42    43    1
81    43    44    1
82    43    45    1
83    43    82    1
84    44    83    1
85    44    84    1
86    44    85    1
87    45    86    1
88    45    87    1
89    45    88    1
90    46    47    1
91    46    89    1
92    46    90    1
93    47    91    1
94    47    92    1
@<TRIPOS>SUBSTRUCTURE
1   ZINC000006716615 1     RESIDUE    1   A     ZIN   1
