@<TRIPOS>MOLECULE
ZINC000253497436
101   106   1     0     0
SMALL
USER_CHARGES
@<TRIPOS>ATOM
1      C1     -0.8154    1.1411   -1.6085 C.3      1 ZINC000253497436   -0.1600
2      C2     -0.5014   -0.2986   -1.2928 C.2      1 ZINC000253497436    0.4600
3      O3     -0.6418   -0.7148   -0.1672 O.2      1 ZINC000253497436   -0.4900
4      O4     -0.0659   -1.1186   -2.2622 O.3      1 ZINC000253497436   -0.3600
5      C5      0.1001   -2.5189   -1.9158 C.3      1 ZINC000253497436    0.0700
6      H6     -0.3325   -2.7168   -0.9351 H        1 ZINC000253497436    0.1300
7      C7      1.5959   -2.8946   -1.9227 C.3      1 ZINC000253497436    0.0200
8      H8      1.8921   -3.2678   -0.9424 H        1 ZINC000253497436    0.1400
9      N9      2.4077   -1.7242   -2.2821 N.4      1 ZINC000253497436   -0.2500
10     C10     3.8314   -2.0820   -2.2268 C.3      1 ZINC000253497436   -0.0600
11     C11     2.0669   -1.2935   -3.6433 C.3      1 ZINC000253497436   -0.0400
12     C12     2.9663   -0.1253   -4.0529 C.3      1 ZINC000253497436   -0.1500
13     C13     2.7567    1.0387   -3.0800 C.3      1 ZINC000253497436   -0.1400
14     C14     3.0433    0.5576   -1.6546 C.3      1 ZINC000253497436   -0.1500
15     C15     2.1410   -0.6359   -1.3339 C.3      1 ZINC000253497436   -0.0500
16     C16     1.7641   -4.0034   -2.9845 C.3      1 ZINC000253497436   -0.1500
17     C17     0.3482   -4.6454   -3.0808 C.3      1 ZINC000253497436   -0.0700
18     H18     0.2010   -5.1884   -4.0143 H        1 ZINC000253497436    0.1100
19     C19     0.1971   -5.5524   -1.8564 C.3      1 ZINC000253497436   -0.0800
20     H20     0.5652   -5.0297   -0.9736 H        1 ZINC000253497436    0.0700
21     C21     1.0231   -6.8230   -2.0725 C.3      1 ZINC000253497436   -0.1200
22     C22     0.9013   -7.7295   -0.8466 C.3      1 ZINC000253497436   -0.1200
23     C23    -0.5671   -8.1080   -0.6408 C.3      1 ZINC000253497436   -0.0800
24     H24    -0.9364   -8.6271   -1.5252 H        1 ZINC000253497436    0.0900
25     C25    -0.6912   -9.0243    0.5782 C.3      1 ZINC000253497436   -0.1300
26     C26    -2.1599   -9.3992    0.7869 C.3      1 ZINC000253497436    0.0700
27     H27    -2.2484  -10.0520    1.6553 H        1 ZINC000253497436    0.1100
28     O28    -2.6551  -10.0899   -0.3904 O.3      1 ZINC000253497436   -0.3500
29     C29    -2.5287  -11.4261   -0.4112 C.2      1 ZINC000253497436    0.4500
30     C30    -3.0199  -12.2110   -1.6002 C.3      1 ZINC000253497436   -0.1500
31     O31    -2.0210  -11.9995    0.5233 O.2      1 ZINC000253497436   -0.4900
32     C32    -2.9824   -8.1297    1.0171 C.3      1 ZINC000253497436    0.0300
33     H33    -2.6106   -7.6112    1.9008 H        1 ZINC000253497436    0.1500
34     N34    -4.3925   -8.4895    1.2176 N.4      1 ZINC000253497436   -0.2600
35     C35    -5.1466   -7.2979    1.6291 C.3      1 ZINC000253497436   -0.0600
36     C36    -4.9474   -9.0063   -0.0392 C.3      1 ZINC000253497436   -0.0300
37     C37    -6.4369   -9.3066    0.1419 C.3      1 ZINC000253497436   -0.1500
38     C38    -6.6105  -10.3528    1.2467 C.3      1 ZINC000253497436   -0.1400
39     C39    -5.9623   -9.8341    2.5336 C.3      1 ZINC000253497436   -0.1400
40     C40    -4.4905   -9.5142    2.2639 C.3      1 ZINC000253497436   -0.0100
41     C41    -2.8581   -7.2135   -0.2018 C.3      1 ZINC000253497436   -0.1300
42     C42    -1.3898   -6.8387   -0.4131 C.3      1 ZINC000253497436   -0.0400
43     C43    -0.8661   -6.1108    0.8266 C.3      1 ZINC000253497436   -0.1600
44     C44    -1.2652   -5.9353   -1.6424 C.3      1 ZINC000253497436   -0.0700
45     H45    -1.6618   -6.4503   -2.5174 H        1 ZINC000253497436    0.0900
46     C46    -2.0622   -4.6485   -1.3963 C.3      1 ZINC000253497436   -0.1300
47     C47    -1.9895   -3.7853   -2.6551 C.3      1 ZINC000253497436   -0.1100
48     C48    -0.5630   -3.4082   -2.9758 C.3      1 ZINC000253497436   -0.0500
49     C49    -0.5336   -2.6615   -4.3109 C.3      1 ZINC000253497436   -0.1600
50     H50     0.0794    1.7474   -1.4678 H        1 ZINC000253497436    0.1100
51     H51    -1.1500    1.2217   -2.6427 H        1 ZINC000253497436    0.1100
52     H52    -1.6028    1.4956   -0.9433 H        1 ZINC000253497436    0.1200
53     H53     4.0248   -2.9095   -2.9094 H        1 ZINC000253497436    0.1200
54     H54     4.4337   -1.2218   -2.5189 H        1 ZINC000253497436    0.1300
55     H55     4.0920   -2.3801   -1.2113 H        1 ZINC000253497436    0.1200
56     H56     2.2134   -2.1239   -4.3340 H        1 ZINC000253497436    0.1300
57     H57     1.0243   -0.9768   -3.6733 H        1 ZINC000253497436    0.1600
58     H58     4.0091   -0.4410   -4.0234 H        1 ZINC000253497436    0.0900
59     H59     2.7104    0.1942   -5.0631 H        1 ZINC000253497436    0.1100
60     H60     3.4360    1.8525   -3.3335 H        1 ZINC000253497436    0.1000
61     H61     1.7264    1.3883   -3.1465 H        1 ZINC000253497436    0.0800
62     H62     4.0877    0.2560   -1.5754 H        1 ZINC000253497436    0.0900
63     H63     2.8425    1.3652   -0.9506 H        1 ZINC000253497436    0.1100
64     H64     1.0969   -0.3332   -1.4132 H        1 ZINC000253497436    0.1400
65     H65     2.3424   -0.9808   -0.3197 H        1 ZINC000253497436    0.1200
66     H66     2.0555   -3.5742   -3.9431 H        1 ZINC000253497436    0.1000
67     H67     2.4968   -4.7403   -2.6555 H        1 ZINC000253497436    0.1100
68     H68     0.6541   -7.3505   -2.9520 H        1 ZINC000253497436    0.0700
69     H69     2.0688   -6.5547   -2.2229 H        1 ZINC000253497436    0.0700
70     H70     1.4914   -8.6327   -1.0019 H        1 ZINC000253497436    0.0700
71     H71     1.2678   -7.2019    0.0339 H        1 ZINC000253497436    0.0700
72     H72    -0.1052   -9.9286    0.4141 H        1 ZINC000253497436    0.0900
73     H73    -0.3195   -8.5058    1.4619 H        1 ZINC000253497436    0.0900
74     H74    -2.2160  -12.3060   -2.3301 H        1 ZINC000253497436    0.1200
75     H75    -3.3353  -13.2026   -1.2758 H        1 ZINC000253497436    0.1100
76     H76    -3.8639  -11.6920   -2.0546 H        1 ZINC000253497436    0.1000
77     H77    -5.0723   -6.5353    0.8539 H        1 ZINC000253497436    0.1200
78     H78    -6.1931   -7.5638    1.7781 H        1 ZINC000253497436    0.1300
79     H79    -4.7339   -6.9105    2.5606 H        1 ZINC000253497436    0.1200
80     H80    -4.8203   -8.2619   -0.8252 H        1 ZINC000253497436    0.1300
81     H81    -4.4241   -9.9209   -0.3180 H        1 ZINC000253497436    0.1500
82     H82    -6.9613   -8.3926    0.4205 H        1 ZINC000253497436    0.0900
83     H83    -6.8467   -9.6919   -0.7918 H        1 ZINC000253497436    0.1100
84     H84    -7.6724  -10.5286    1.4186 H        1 ZINC000253497436    0.1000
85     H85    -6.1297  -11.2836    0.9460 H        1 ZINC000253497436    0.0800
86     H86    -6.4769   -8.9310    2.8619 H        1 ZINC000253497436    0.0900
87     H87    -6.0329  -10.5964    3.3095 H        1 ZINC000253497436    0.1100
88     H88    -3.9769  -10.4180    1.9360 H        1 ZINC000253497436    0.1200
89     H89    -4.0259   -9.1449    3.1782 H        1 ZINC000253497436    0.1300
90     H90    -3.2301   -7.7320   -1.0855 H        1 ZINC000253497436    0.1000
91     H91    -3.4440   -6.3091   -0.0378 H        1 ZINC000253497436    0.0900
92     H92    -0.9533   -6.7637    1.6951 H        1 ZINC000253497436    0.0600
93     H93     0.1799   -5.8437    0.6763 H        1 ZINC000253497436    0.0700
94     H94    -1.4520   -5.2066    0.9916 H        1 ZINC000253497436    0.0600
95     H95    -3.1017   -4.8969   -1.1820 H        1 ZINC000253497436    0.0700
96     H96    -1.6313   -4.1061   -0.5548 H        1 ZINC000253497436    0.0700
97     H97    -2.4346   -4.3298   -3.4879 H        1 ZINC000253497436    0.0800
98     H98    -2.5503   -2.8653   -2.4904 H        1 ZINC000253497436    0.0700
99     H99    -1.1542   -1.7682   -4.2413 H        1 ZINC000253497436    0.0700
100    H100    0.4917   -2.3745   -4.5442 H        1 ZINC000253497436    0.0600
101    H101   -0.9174   -3.3101   -5.0984 H        1 ZINC000253497436    0.0700
@<TRIPOS>BOND
1     1     2     1
2     1     50    1
3     1     51    1
4     1     52    1
5     2     3     2
6     2     4     1
7     4     5     1
8     5     6     1
9     5     48    1
10    5     7     1
11    7     8     1
12    7     9     1
13    7     16    1
14    9     15    1
15    9     10    1
16    9     11    1
17    10    53    1
18    10    54    1
19    10    55    1
20    11    12    1
21    11    56    1
22    11    57    1
23    12    13    1
24    12    58    1
25    12    59    1
26    13    14    1
27    13    60    1
28    13    61    1
29    14    15    1
30    14    62    1
31    14    63    1
32    15    64    1
33    15    65    1
34    16    17    1
35    16    66    1
36    16    67    1
37    17    18    1
38    17    48    1
39    17    19    1
40    19    20    1
41    19    44    1
42    19    21    1
43    21    22    1
44    21    68    1
45    21    69    1
46    22    23    1
47    22    70    1
48    22    71    1
49    23    24    1
50    23    42    1
51    23    25    1
52    25    26    1
53    25    72    1
54    25    73    1
55    26    27    1
56    26    28    1
57    26    32    1
58    28    29    1
59    29    30    1
60    29    31    2
61    30    74    1
62    30    75    1
63    30    76    1
64    32    33    1
65    32    34    1
66    32    41    1
67    34    40    1
68    34    35    1
69    34    36    1
70    35    77    1
71    35    78    1
72    35    79    1
73    36    37    1
74    36    80    1
75    36    81    1
76    37    38    1
77    37    82    1
78    37    83    1
79    38    39    1
80    38    84    1
81    38    85    1
82    39    40    1
83    39    86    1
84    39    87    1
85    40    88    1
86    40    89    1
87    41    42    1
88    41    90    1
89    41    91    1
90    42    43    1
91    42    44    1
92    43    92    1
93    43    93    1
94    43    94    1
95    44    45    1
96    44    46    1
97    46    47    1
98    46    95    1
99    46    96    1
100   47    48    1
101   47    97    1
102   47    98    1
103   48    49    1
104   49    99    1
105   49    100   1
106   49    101   1
@<TRIPOS>SUBSTRUCTURE
1   ZINC000253497436 1     RESIDUE    1   A     ZIN   1
