@<TRIPOS>MOLECULE
ZINC000028363953
  49   52    0    0    0
SMALL
USER_CHARGES
NO_NAME
@<TRIPOS>ATOM
    1 O1        0.0440    -0.0337    -0.0334 O.2    1 <0>      -0.4900
    2 C2       -0.0158     1.1782     0.0017 C.2    1 <0>       0.5200
    3 N3        1.1167     1.9085     0.0218 N.am   1 <0>      -0.6400
    4 C4        2.3587     1.2707     0.1003 C.ar   1 <0>       0.1500
    5 C5        2.5551     0.0534    -0.5419 C.ar   1 <0>      -0.0900
    6 C6        3.7798    -0.5794    -0.4673 C.ar   1 <0>      -0.0800
    7 C7        4.8151     0.0004     0.2494 C.ar   1 <0>       0.0600
    8 N8        6.1331    -0.3818     0.5055 N.am   1 <0>      -0.6500
    9 C9        6.6910     0.5769     1.2709 C.2    1 <0>       0.6400
   10 O10       7.8352     0.5692     1.6826 O.2    1 <0>      -0.4800
   11 O11       5.7887     1.5419     1.5081 O.3    1 <0>      -0.2300
   12 C12       4.6223     1.2221     0.8956 C.ar   1 <0>       0.0600
   13 C13       3.3944     1.8572     0.8146 C.ar   1 <0>      -0.1000
   14 C14      -1.3443     1.8600     0.0166 C.2    1 <0>       0.5100
   15 O15      -1.4067     3.0693    -0.0653 O.2    1 <0>      -0.5200
   16 N16      -2.4741     1.1325     0.1209 N.am   1 <0>      -0.5700
   17 C17      -2.4210    -0.3358     0.1274 C.3    1 <0>       0.0400
   18 C18      -3.1582    -0.8503     1.3677 C.3    1 <0>      -0.1300
   19 C19      -4.5751    -0.2725     1.3904 C.3    1 <0>      -0.0900
   20 C20      -5.3260    -0.8116     2.6095 C.3    1 <0>      -0.0800
   21 C21      -6.7572    -0.3416     2.5663 C.ar   1 <0>      -0.0900
   22 C22      -7.1092     0.8557     3.1611 C.ar   1 <0>      -0.0900
   23 C23      -8.4213     1.2878     3.1221 C.ar   1 <0>      -0.1500
   24 C24      -9.3835     0.5212     2.4866 C.ar   1 <0>       0.0900
   25 F25     -10.6664     0.9428     2.4475 F      1 <0>      -0.1400
   26 C26      -9.0296    -0.6776     1.8909 C.ar   1 <0>      -0.1500
   27 C27      -7.7160    -1.1053     1.9270 C.ar   1 <0>      -0.0900
   28 C28      -4.5041     1.2542     1.4694 C.3    1 <0>      -0.1300
   29 C29      -3.7816     1.7926     0.2363 C.3    1 <0>       0.1100
   30 H30       1.0703     2.8766    -0.0183 H      1 <0>       0.4300
   31 H31       1.7481    -0.3981    -1.0999 H      1 <0>       0.1600
   32 H32       3.9311    -1.5252    -0.9663 H      1 <0>       0.1500
   33 H33       6.5677    -1.1897     0.1904 H      1 <0>       0.4500
   34 H34       3.2420     2.8055     1.3086 H      1 <0>       0.1500
   35 H35      -2.9024    -0.7228    -0.7707 H      1 <0>       0.0700
   36 H36      -1.3819    -0.6637     0.1576 H      1 <0>       0.1600
   37 H37      -3.2096    -1.9386     1.3350 H      1 <0>       0.0800
   38 H38      -2.6234    -0.5377     2.2646 H      1 <0>       0.0700
   39 H39      -5.1011    -0.5648     0.4815 H      1 <0>       0.0800
   40 H40      -5.3010    -1.9013     2.5991 H      1 <0>       0.0800
   41 H41      -4.8509    -0.4460     3.5198 H      1 <0>       0.0800
   42 H42      -6.3586     1.4535     3.6566 H      1 <0>       0.1300
   43 H43      -8.6962     2.2228     3.5874 H      1 <0>       0.1400
   44 H44      -9.7793    -1.2765     1.3953 H      1 <0>       0.1400
   45 H45      -7.4397    -2.0401     1.4621 H      1 <0>       0.1300
   46 H46      -5.5134     1.6638     1.5090 H      1 <0>       0.0800
   47 H47      -3.9567     1.5470     2.3653 H      1 <0>       0.0700
   48 H48      -3.6415     2.8690     0.3359 H      1 <0>       0.1000
   49 H49      -4.3718     1.5798    -0.6550 H      1 <0>       0.0800
@<TRIPOS>BOND
   1    1    2 2
   2    2    3 am
   3    2   14 1
   4    3    4 1
   5    3   30 1
   6    4   13 ar
   7    4    5 ar
   8    5    6 ar
   9    5   31 1
  10    6    7 ar
  11    6   32 1
  12    7   12 ar
  13    7    8 1
  14    8    9 am
  15    8   33 1
  16    9   10 2
  17    9   11 1
  18   11   12 1
  19   12   13 ar
  20   13   34 1
  21   14   15 2
  22   14   16 am
  23   16   29 1
  24   16   17 1
  25   17   18 1
  26   17   35 1
  27   17   36 1
  28   18   19 1
  29   18   37 1
  30   18   38 1
  31   19   20 1
  32   19   28 1
  33   19   39 1
  34   20   21 1
  35   20   40 1
  36   20   41 1
  37   21   27 ar
  38   21   22 ar
  39   22   23 ar
  40   22   42 1
  41   23   24 ar
  42   23   43 1
  43   24   25 1
  44   24   26 ar
  45   26   27 ar
  46   26   44 1
  47   27   45 1
  48   28   29 1
  49   28   46 1
  50   28   47 1
  51   29   48 1
  52   29   49 1
