@<TRIPOS>MOLECULE
ZINC000028713464
102   108   1     0     0
SMALL
USER_CHARGES
@<TRIPOS>ATOM
1      C1     -0.0187    1.5258    0.0104 C.3      1 ZINC000028713464   -0.1600
2      C2      0.0021   -0.0041    0.0020 C.3      1 ZINC000028713464    0.1900
3      H3     -1.0205   -0.3814    0.0098 H        1 ZINC000028713464    0.1000
4      N4      0.6878   -0.4765   -1.2033 N.am     1 ZINC000028713464   -0.7300
5      C5      0.0062   -0.6081   -2.3585 C.2      1 ZINC000028713464    0.4900
6      O6     -1.1748   -0.3355   -2.4003 O.2      1 ZINC000028713464   -0.4600
7      C7      0.7116   -1.0941   -3.5984 C.3      1 ZINC000028713464    0.1800
8      H8      1.5220   -0.4092   -3.8474 H        1 ZINC000028713464    0.1200
9      C9      1.2835   -2.4905   -3.3456 C.3      1 ZINC000028713464   -0.1600
10     C10     2.0926   -2.9258   -4.5401 C.2      1 ZINC000028713464    0.5300
11     O11     2.2010   -2.1916   -5.4993 O.2      1 ZINC000028713464   -0.5100
12     N12     2.6956   -4.1312   -4.5426 N.am     1 ZINC000028713464   -0.6200
13     C13     2.5684   -5.0342   -3.3906 C.3      1 ZINC000028713464    0.1100
14     C14     2.0644   -6.3943   -3.8835 C.3      1 ZINC000028713464   -0.1600
15     C15     2.9927   -6.9088   -4.9860 C.3      1 ZINC000028713464    0.0300
16     N16     2.5314   -8.2282   -5.4381 N.4      1 ZINC000028713464   -0.3800
17     H17     1.5920   -8.1498   -5.7979 H        1 ZINC000028713464    0.4200
18     C18     2.5438   -9.1633   -4.3067 C.3      1 ZINC000028713464   -0.0100
19     C19     1.9876  -10.5172   -4.7530 C.3      1 ZINC000028713464   -0.1500
20     C20     2.8568  -11.0718   -5.8853 C.3      1 ZINC000028713464   -0.1400
21     C21     2.8968  -10.0551   -7.0297 C.3      1 ZINC000028713464   -0.1500
22     C22     3.4203   -8.7191   -6.4979 C.3      1 ZINC000028713464   -0.0100
23     C23     2.9783   -5.9324   -6.1644 C.3      1 ZINC000028713464   -0.1600
24     C24     3.4876   -4.5696   -5.6998 C.3      1 ZINC000028713464    0.1200
25     N25    -0.2397   -1.1502   -4.7112 N.am     1 ZINC000028713464   -0.5900
26     C26    -1.3924   -1.8070   -4.9384 C.2      1 ZINC000028713464    0.5300
27     O27    -2.0250   -2.5893   -4.2611 O.2      1 ZINC000028713464   -0.5000
28     C28    -1.6341   -1.2458   -6.3145 C.3      1 ZINC000028713464    0.1400
29     H29    -1.5725   -1.9805   -7.1172 H        1 ZINC000028713464    0.1500
30     N30    -2.8058   -0.3720   -6.4140 N.am     1 ZINC000028713464   -0.6000
31     C31    -3.1762    0.5413   -5.5060 C.2      1 ZINC000028713464    0.6300
32     O32    -2.5593    0.7431   -4.4788 O.2      1 ZINC000028713464   -0.4500
33     O33    -4.2868    1.2109   -5.8342 O.3      1 ZINC000028713464   -0.3200
34     C34    -4.7792    0.7346   -7.1201 C.3      1 ZINC000028713464    0.0500
35     C35    -3.7639   -0.3496   -7.5299 C.3      1 ZINC000028713464    0.1400
36     H36    -3.2685   -0.0776   -8.4619 H        1 ZINC000028713464    0.1100
37     C37    -4.4438   -1.6878   -7.6644 C.ar     1 ZINC000028713464   -0.1200
38     C38    -4.7510   -2.4236   -6.5352 C.ar     1 ZINC000028713464   -0.0900
39     C39    -5.3746   -3.6511   -6.6586 C.ar     1 ZINC000028713464   -0.1200
40     C40    -5.6915   -4.1426   -7.9112 C.ar     1 ZINC000028713464   -0.1100
41     C41    -5.3851   -3.4064   -9.0404 C.ar     1 ZINC000028713464   -0.1200
42     C42    -4.7653   -2.1769   -8.9167 C.ar     1 ZINC000028713464   -0.1000
43     C43    -0.3258   -0.5099   -6.0244 C.3      1 ZINC000028713464    0.1600
44     H44     0.4850   -0.8015   -6.6920 H        1 ZINC000028713464    0.1200
45     C45    -0.4950    0.9855   -5.9449 C.2      1 ZINC000028713464   -0.1700
46     C46    -0.0921    1.6417   -4.8658 C.2      1 ZINC000028713464   -0.0600
47     C47    -0.2580    3.1084   -4.7878 C.ar     1 ZINC000028713464   -0.0500
48     C48    -0.8437    3.8045   -5.8458 C.ar     1 ZINC000028713464   -0.1100
49     C49    -0.9957    5.1735   -5.7668 C.ar     1 ZINC000028713464   -0.1200
50     C50    -0.5685    5.8562   -4.6419 C.ar     1 ZINC000028713464   -0.1200
51     C51     0.0133    5.1720   -3.5896 C.ar     1 ZINC000028713464   -0.1200
52     C52     0.1651    3.8020   -3.6534 C.ar     1 ZINC000028713464   -0.1000
53     C53     0.7309   -0.5033    1.2229 C.ar     1 ZINC000028713464   -0.0900
54     C54     2.1131   -0.5138    1.2466 C.ar     1 ZINC000028713464   -0.1200
55     C55     2.7816   -0.9717    2.3665 C.ar     1 ZINC000028713464   -0.1200
56     C56     2.0681   -1.4187    3.4629 C.ar     1 ZINC000028713464   -0.1200
57     C57     0.6860   -1.4074    3.4395 C.ar     1 ZINC000028713464   -0.1100
58     C58     0.0174   -0.9454    2.3212 C.ar     1 ZINC000028713464   -0.1100
59     H59     1.0039    1.9031    0.0027 H        1 ZINC000028713464    0.0600
60     H60    -0.5459    1.8868   -0.8726 H        1 ZINC000028713464    0.0700
61     H61    -0.5289    1.8773    0.9072 H        1 ZINC000028713464    0.0700
62     H62     1.6324   -0.6946   -1.1699 H        1 ZINC000028713464    0.3900
63     H63     1.9227   -2.4670   -2.4629 H        1 ZINC000028713464    0.1100
64     H64     0.4667   -3.1939   -3.1840 H        1 ZINC000028713464    0.1100
65     H65     3.5405   -5.1560   -2.9128 H        1 ZINC000028713464    0.0900
66     H66     1.8576   -4.6179   -2.6767 H        1 ZINC000028713464    0.1100
67     H67     2.0571   -7.1018   -3.0544 H        1 ZINC000028713464    0.1000
68     H68     1.0545   -6.2864   -4.2792 H        1 ZINC000028713464    0.0900
69     H69     4.0073   -6.9927   -4.5966 H        1 ZINC000028713464    0.1400
70     H70     3.5666   -9.2902   -3.9521 H        1 ZINC000028713464    0.1300
71     H71     1.9274   -8.7657   -3.5005 H        1 ZINC000028713464    0.1300
72     H72     1.9994  -11.2106   -3.9120 H        1 ZINC000028713464    0.1100
73     H73     0.9646  -10.3914   -5.1076 H        1 ZINC000028713464    0.0900
74     H74     3.8678  -11.2459   -5.5169 H        1 ZINC000028713464    0.0800
75     H75     2.4323  -12.0091   -6.2450 H        1 ZINC000028713464    0.0900
76     H76     3.5585  -10.4181   -7.8162 H        1 ZINC000028713464    0.1100
77     H77     1.8927   -9.9197   -7.4316 H        1 ZINC000028713464    0.0900
78     H78     3.4507   -7.9922   -7.3096 H        1 ZINC000028713464    0.1300
79     H79     4.4245   -8.8566   -6.0968 H        1 ZINC000028713464    0.1300
80     H80     3.6215   -6.3112   -6.9587 H        1 ZINC000028713464    0.1000
81     H81     1.9598   -5.8288   -6.5386 H        1 ZINC000028713464    0.0900
82     H82     3.3861   -3.8463   -6.5089 H        1 ZINC000028713464    0.1100
83     H83     4.5349   -4.6507   -5.4088 H        1 ZINC000028713464    0.0800
84     H84    -5.7767    0.3084   -7.0131 H        1 ZINC000028713464    0.1100
85     H85    -4.7845    1.5435   -7.8506 H        1 ZINC000028713464    0.1100
86     H86    -4.5034   -2.0396   -5.5566 H        1 ZINC000028713464    0.1200
87     H87    -5.6140   -4.2263   -5.7764 H        1 ZINC000028713464    0.1200
88     H88    -6.1781   -5.1019   -8.0076 H        1 ZINC000028713464    0.1200
89     H89    -5.6323   -3.7905  -10.0190 H        1 ZINC000028713464    0.1300
90     H90    -4.5259   -1.6017   -9.7989 H        1 ZINC000028713464    0.1300
91     H91    -0.9446    1.5226   -6.7670 H        1 ZINC000028713464    0.1200
92     H92     0.3575    1.1046   -4.0437 H        1 ZINC000028713464    0.1100
93     H93    -1.1770    3.2728   -6.7248 H        1 ZINC000028713464    0.1200
94     H94    -1.4488    5.7135   -6.5850 H        1 ZINC000028713464    0.1200
95     H95    -0.6894    6.9279   -4.5850 H        1 ZINC000028713464    0.1200
96     H96     0.3454    5.7107   -2.7145 H        1 ZINC000028713464    0.1200
97     H97     0.6191    3.2690   -2.8311 H        1 ZINC000028713464    0.1200
98     H98     2.6705   -0.1645    0.3901 H        1 ZINC000028713464    0.1200
99     H99     3.8614   -0.9806    2.3848 H        1 ZINC000028713464    0.1200
100    H100    2.5905   -1.7771    4.3376 H        1 ZINC000028713464    0.1200
101    H101    0.1286   -1.7569    4.2959 H        1 ZINC000028713464    0.1300
102    H102   -1.0624   -0.9366    2.3030 H        1 ZINC000028713464    0.1200
@<TRIPOS>BOND
1     1     2     1
2     1     59    1
3     1     60    1
4     1     61    1
5     2     3     1
6     2     4     1
7     2     53    1
8     4     5     am
9     4     62    1
10    5     6     2
11    5     7     1
12    7     8     1
13    7     9     1
14    7     25    1
15    9     10    1
16    9     63    1
17    9     64    1
18    10    11    2
19    10    12    am
20    12    24    1
21    12    13    1
22    13    14    1
23    13    65    1
24    13    66    1
25    14    15    1
26    14    67    1
27    14    68    1
28    15    16    1
29    15    23    1
30    15    69    1
31    16    17    1
32    16    22    1
33    16    18    1
34    18    19    1
35    18    70    1
36    18    71    1
37    19    20    1
38    19    72    1
39    19    73    1
40    20    21    1
41    20    74    1
42    20    75    1
43    21    22    1
44    21    76    1
45    21    77    1
46    22    78    1
47    22    79    1
48    23    24    1
49    23    80    1
50    23    81    1
51    24    82    1
52    24    83    1
53    25    43    1
54    25    26    am
55    26    27    2
56    26    28    1
57    28    29    1
58    28    30    1
59    28    43    1
60    30    35    1
61    30    31    am
62    31    32    2
63    31    33    1
64    33    34    1
65    34    35    1
66    34    84    1
67    34    85    1
68    35    36    1
69    35    37    1
70    37    42    ar
71    37    38    ar
72    38    39    ar
73    38    86    1
74    39    40    ar
75    39    87    1
76    40    41    ar
77    40    88    1
78    41    42    ar
79    41    89    1
80    42    90    1
81    43    44    1
82    43    45    1
83    45    46    2
84    45    91    1
85    46    47    1
86    46    92    1
87    47    52    ar
88    47    48    ar
89    48    49    ar
90    48    93    1
91    49    50    ar
92    49    94    1
93    50    51    ar
94    50    95    1
95    51    52    ar
96    51    96    1
97    52    97    1
98    53    58    ar
99    53    54    ar
100   54    55    ar
101   54    98    1
102   55    56    ar
103   55    99    1
104   56    57    ar
105   56    100   1
106   57    58    ar
107   57    101   1
108   58    102   1
@<TRIPOS>SUBSTRUCTURE
1   ZINC000028713464 1     RESIDUE    1   A     ZIN   1
