@<TRIPOS>MOLECULE
ZINC000022058279
67    71    1     0     0
SMALL
USER_CHARGES
@<TRIPOS>ATOM
1      C1      6.4771    1.0923   -1.5750 C.ar     1 ZINC000022058279   -0.1200
2      C2      6.3979    0.9435   -0.2030 C.ar     1 ZINC000022058279   -0.1200
3      C3      5.3869    0.1816    0.3524 C.ar     1 ZINC000022058279   -0.1100
4      C4      4.4549   -0.4310   -0.4642 C.ar     1 ZINC000022058279   -0.0800
5      C5      3.3530   -1.2619    0.1412 C.3      1 ZINC000022058279    0.1700
6      C6      2.0760   -0.4620    0.1654 C.ar     1 ZINC000022058279   -0.0800
7      C7      1.3771   -0.2403   -1.0065 C.ar     1 ZINC000022058279   -0.0900
8      C8      0.2057    0.4935   -0.9843 C.ar     1 ZINC000022058279   -0.1200
9      C9     -0.2669    1.0051    0.2097 C.ar     1 ZINC000022058279   -0.1200
10     C10     0.4316    0.7825    1.3817 C.ar     1 ZINC000022058279   -0.1200
11     C11     1.6007    0.0452    1.3602 C.ar     1 ZINC000022058279   -0.1100
12     N12     3.1558   -2.4749   -0.6636 N.3      1 ZINC000022058279   -0.5300
13     C13     1.9985   -3.2429   -0.1837 C.3      1 ZINC000022058279    0.0600
14     C14     1.7795   -4.4532   -1.0947 C.3      1 ZINC000022058279    0.0600
15     N15     2.9923   -5.2832   -1.1021 N.3      1 ZINC000022058279   -0.5400
16     C16     2.7951   -6.4962   -1.9069 C.3      1 ZINC000022058279    0.0600
17     C17     3.9736   -7.4479   -1.6921 C.3      1 ZINC000022058279   -0.1100
18     C18     3.7683   -8.7113   -2.5303 C.3      1 ZINC000022058279   -0.1300
19     C19     5.0060   -9.6038   -2.4192 C.3      1 ZINC000022058279    0.3000
20     C20     5.2138  -10.0046   -0.9814 C.ar     1 ZINC000022058279   -0.1000
21     C21     5.9872   -9.2171   -0.1493 C.ar     1 ZINC000022058279   -0.0900
22     C22     6.1778   -9.5848    1.1696 C.ar     1 ZINC000022058279   -0.1200
23     C23     5.5945  -10.7396    1.6564 C.ar     1 ZINC000022058279   -0.1100
24     C24     4.8203  -11.5266    0.8245 C.ar     1 ZINC000022058279   -0.1300
25     C25     4.6262  -11.1567   -0.4933 C.ar     1 ZINC000022058279   -0.0900
26     O26     4.8265  -10.7809   -3.2246 O.3      1 ZINC000022058279   -0.3700
27     C27     5.4742  -10.4715   -4.4820 C.3      1 ZINC000022058279    0.0200
28     C28     6.6865   -9.6289   -4.0126 C.3      1 ZINC000022058279    0.0200
29     O29     6.1572   -8.8919   -2.8920 O.3      1 ZINC000022058279   -0.3700
30     C30     4.1496   -4.5151   -1.5820 C.3      1 ZINC000022058279    0.0600
31     C31     4.3686   -3.3049   -0.6710 C.3      1 ZINC000022058279    0.0600
32     C32     4.5332   -0.2810   -1.8362 C.ar     1 ZINC000022058279   -0.0900
33     C33     5.5453    0.4793   -2.3917 C.ar     1 ZINC000022058279   -0.1200
34     H34     7.2643    1.6912   -2.0087 H        1 ZINC000022058279    0.1200
35     H35     7.1261    1.4221    0.4350 H        1 ZINC000022058279    0.1200
36     H36     5.3255    0.0648    1.4243 H        1 ZINC000022058279    0.1200
37     H37     3.6260   -1.5414    1.1588 H        1 ZINC000022058279    0.0600
38     H38     1.7463   -0.6400   -1.9394 H        1 ZINC000022058279    0.1300
39     H39    -0.3400    0.6673   -1.8999 H        1 ZINC000022058279    0.1200
40     H40    -1.1817    1.5789    0.2270 H        1 ZINC000022058279    0.1200
41     H41     0.0625    1.1826    2.3146 H        1 ZINC000022058279    0.1200
42     H42     2.1464   -0.1287    2.2758 H        1 ZINC000022058279    0.1200
43     H43     2.1849   -3.5834    0.8348 H        1 ZINC000022058279    0.0400
44     H44     1.1107   -2.6107   -0.1994 H        1 ZINC000022058279    0.0800
45     H45     0.9394   -5.0403   -0.7237 H        1 ZINC000022058279    0.0800
46     H46     1.5661   -4.1120   -2.1076 H        1 ZINC000022058279    0.0400
47     H47     1.8710   -6.9878   -1.6027 H        1 ZINC000022058279    0.0700
48     H48     2.7332   -6.2266   -2.9612 H        1 ZINC000022058279    0.0300
49     H49     4.8977   -6.9563   -1.9962 H        1 ZINC000022058279    0.0700
50     H50     4.0355   -7.7174   -0.6378 H        1 ZINC000022058279    0.0800
51     H51     2.8960   -9.2525   -2.1639 H        1 ZINC000022058279    0.0800
52     H52     3.6125   -8.4342   -3.5729 H        1 ZINC000022058279    0.0700
53     H53     6.4430   -8.3149   -0.5296 H        1 ZINC000022058279    0.1300
54     H54     6.7827   -8.9699    1.8196 H        1 ZINC000022058279    0.1200
55     H55     5.7440  -11.0272    2.6866 H        1 ZINC000022058279    0.1200
56     H56     4.3648  -12.4290    1.2047 H        1 ZINC000022058279    0.1200
57     H57     4.0213  -11.7715   -1.1433 H        1 ZINC000022058279    0.1300
58     H58     5.8025  -11.3806   -4.9859 H        1 ZINC000022058279    0.1100
59     H59     4.8177   -9.8858   -5.1255 H        1 ZINC000022058279    0.0800
60     H60     7.5054  -10.2751   -3.6964 H        1 ZINC000022058279    0.0800
61     H61     7.0122   -8.9502   -4.8008 H        1 ZINC000022058279    0.1000
62     H62     5.0374   -5.1474   -1.5663 H        1 ZINC000022058279    0.0800
63     H63     3.9632   -4.1747   -2.6005 H        1 ZINC000022058279    0.0400
64     H64     5.2087   -2.7178   -1.0420 H        1 ZINC000022058279    0.0800
65     H65     4.5820   -3.6460    0.3420 H        1 ZINC000022058279    0.0400
66     H66     3.8050   -0.7596   -2.4742 H        1 ZINC000022058279    0.1300
67     H67     5.6063    0.5967   -3.4635 H        1 ZINC000022058279    0.1200
@<TRIPOS>BOND
1     1     33    ar
2     1     2     ar
3     1     34    1
4     2     3     ar
5     2     35    1
6     3     4     ar
7     3     36    1
8     4     5     1
9     4     32    ar
10    5     6     1
11    5     12    1
12    5     37    1
13    6     11    ar
14    6     7     ar
15    7     8     ar
16    7     38    1
17    8     9     ar
18    8     39    1
19    9     10    ar
20    9     40    1
21    10    11    ar
22    10    41    1
23    11    42    1
24    12    31    1
25    12    13    1
26    13    14    1
27    13    43    1
28    13    44    1
29    14    15    1
30    14    45    1
31    14    46    1
32    15    16    1
33    15    30    1
34    16    17    1
35    16    47    1
36    16    48    1
37    17    18    1
38    17    49    1
39    17    50    1
40    18    19    1
41    18    51    1
42    18    52    1
43    19    29    1
44    19    20    1
45    19    26    1
46    20    25    ar
47    20    21    ar
48    21    22    ar
49    21    53    1
50    22    23    ar
51    22    54    1
52    23    24    ar
53    23    55    1
54    24    25    ar
55    24    56    1
56    25    57    1
57    26    27    1
58    27    28    1
59    27    58    1
60    27    59    1
61    28    29    1
62    28    60    1
63    28    61    1
64    30    31    1
65    30    62    1
66    30    63    1
67    31    64    1
68    31    65    1
69    32    33    ar
70    32    66    1
71    33    67    1
@<TRIPOS>SUBSTRUCTURE
1   ZINC000022058279 1     RESIDUE    1   A     ZIN   1
