@<TRIPOS>MOLECULE
ZINC000004216113
  27   28    0    0    0
SMALL
USER_CHARGES
NO_NAME
@<TRIPOS>ATOM
    1 O1        0.0021    -0.0041     0.0020 O.2    1 <0>      -0.5800
    2 C2       -0.0144     1.2136     0.0087 C.2    1 <0>       0.5200
    3 N3       -1.1875     1.8781     0.0291 N.pl3  1 <0>      -0.6800
    4 C4       -1.2050     3.2239     0.0370 C.2    1 <0>       0.6600
    5 O5       -2.2705     3.8093     0.0554 O.2    1 <0>      -0.5900
    6 N6       -0.0602     3.9306     0.0252 N.am   1 <0>      -0.5400
    7 C7       -0.1111     5.3947     0.0346 C.3    1 <0>       0.2700
    8 H8        0.8968     5.7999     0.1248 H      1 <0>       0.1000
    9 O9       -0.9203     5.8485     1.1326 O.3    1 <0>      -0.3300
   10 C10      -1.5932     7.0479     0.6928 C.3    1 <0>       0.1000
   11 H11      -0.9172     7.9022     0.7285 H      1 <0>       0.0900
   12 C12      -2.8369     7.3109     1.5442 C.3    1 <0>       0.0900
   13 O13      -2.4416     7.6189     2.8824 O.3    1 <0>      -0.5700
   14 C14      -1.9878     6.7250    -0.7709 C.3    1 <0>       0.0600
   15 H15      -2.8989     6.1276    -0.8054 H      1 <0>       0.1100
   16 O16      -2.1374     7.9234    -1.5349 O.3    1 <0>      -0.5500
   17 C17      -0.7667     5.9046    -1.2634 C.3    1 <0>       0.0300
   18 H18      -0.0775     6.5417    -1.8177 H      1 <0>       0.1100
   19 F19      -1.1857     4.8314    -2.0571 F      1 <0>      -0.1800
   20 C20       1.1517     3.2945     0.0048 C.2    1 <0>       0.1700
   21 C21       1.1983     1.9448     0.0011 C.2    1 <0>      -0.2800
   22 I22       3.0398     0.9463    -0.0299 I      1 <0>      -0.0500
   23 H23      -3.3919     8.1511     1.1268 H      1 <0>       0.0600
   24 H24      -3.4694     6.4233     1.5473 H      1 <0>       0.0700
   25 H25      -3.1809     7.7975     3.4797 H      1 <0>       0.3800
   26 H26      -2.3840     7.7732    -2.4578 H      1 <0>       0.3900
   27 H27       2.0661     3.8691    -0.0045 H      1 <0>       0.1400
@<TRIPOS>BOND
   1    1    2 2
   2    2   21 1
   3    2    3 1
   4    3    4 1
   5    4    5 2
   6    4    6 am
   7    6    7 1
   8    6   20 1
   9    7    8 1
  10    7   17 1
  11    7    9 1
  12    9   10 1
  13   10   11 1
  14   10   12 1
  15   10   14 1
  16   12   13 1
  17   12   23 1
  18   12   24 1
  19   13   25 1
  20   14   15 1
  21   14   16 1
  22   14   17 1
  23   16   26 1
  24   17   18 1
  25   17   19 1
  26   20   21 2
  27   20   27 1
  28   21   22 1
