@<TRIPOS>MOLECULE
ZINC000053098495
  51   55    0    0    0
SMALL
USER_CHARGES
NO_NAME
@<TRIPOS>ATOM
    1 F1        0.0021    -0.0041     0.0020 F      1 <0>      -0.1300
    2 C2       -0.0162     1.3468     0.0094 C.ar   1 <0>       0.1200
    3 C3       -1.2269     2.0207     0.0304 C.ar   1 <0>      -0.1400
    4 C4       -1.2513     3.3998     0.0385 C.ar   1 <0>      -0.0600
    5 C5       -0.0538     4.1164     0.0256 C.ar   1 <0>      -0.0500
    6 C6       -0.0739     5.5950     0.0347 C.2    1 <0>       0.1100
    7 C7       -1.1857     6.3817     0.0613 C.2    1 <0>      -0.1800
    8 C8       -0.7532     7.7180     0.0606 C.2    1 <0>      -0.1300
    9 C9        0.5970     7.7122     0.0339 C.2    1 <0>      -0.0700
   10 C10       1.4829     8.9313     0.0244 C.3    1 <0>       0.0800
   11 N11       1.8951     9.2479     1.3983 N.4    1 <0>      -0.3800
   12 H12       1.0762     9.3494     1.9789 H      1 <0>       0.4200
   13 C13       2.6546    10.5045     1.4023 C.3    1 <0>      -0.0200
   14 C14       2.9864    10.8950     2.8464 C.3    1 <0>       0.1200
   15 N15       3.6776     9.7658     3.4877 N.pl3  1 <0>      -0.6700
   16 C16       4.8829     9.9549     4.1709 C.ar   1 <0>       0.1500
   17 C17       6.0962     9.8493     3.4908 C.ar   1 <0>       0.0500
   18 O18       6.4200     9.5830     2.2086 O.3    1 <0>      -0.2000
   19 C19       7.7535     9.5920     2.0398 C.2    1 <0>       0.0000
   20 C20       8.3635     9.8642     3.2015 C.2    1 <0>      -0.2000
   21 C21       7.2956    10.0421     4.1927 C.ar   1 <0>      -0.1300
   22 C22       7.2712    10.3364     5.5567 C.ar   1 <0>      -0.0600
   23 C23       6.0641    10.4370     6.2125 C.ar   1 <0>      -0.1300
   24 C24       4.8750    10.2531     5.5232 C.ar   1 <0>      -0.0800
   25 C25       3.0644     8.4321     3.3903 C.3    1 <0>       0.1200
   26 C26       2.7307     8.1589     1.9199 C.3    1 <0>      -0.0300
   27 N27       1.0235     6.4172     0.0239 N.pl3  1 <0>      -0.5500
   28 C28       1.1627     3.4327     0.0045 C.ar   1 <0>      -0.0900
   29 C29       1.1757     2.0534     0.0019 C.ar   1 <0>      -0.1500
   30 H30      -2.1530     1.4651     0.0400 H      1 <0>       0.1500
   31 H31      -2.1954     3.9240     0.0545 H      1 <0>       0.1400
   32 H32      -2.2104     6.0409     0.0792 H      1 <0>       0.1500
   33 H33      -1.3864     8.5928     0.0780 H      1 <0>       0.1500
   34 H34       2.3658     8.7341    -0.5836 H      1 <0>       0.1300
   35 H35       0.9348     9.7755    -0.3941 H      1 <0>       0.1500
   36 H36       3.5789    10.3724     0.8400 H      1 <0>       0.1300
   37 H37       2.0578    11.2914     0.9411 H      1 <0>       0.1400
   38 H38       3.6352    11.7709     2.8491 H      1 <0>       0.1200
   39 H39       2.0659    11.1158     3.3868 H      1 <0>       0.0800
   40 H40       8.2597     9.4069     1.1039 H      1 <0>       0.2100
   41 H41       9.4271     9.9376     3.3740 H      1 <0>       0.1600
   42 H42       8.1951    10.4843     6.0960 H      1 <0>       0.1400
   43 H43       6.0435    10.6643     7.2681 H      1 <0>       0.1400
   44 H44       3.9344    10.3343     6.0477 H      1 <0>       0.1400
   45 H45       3.7649     7.6797     3.7527 H      1 <0>       0.1100
   46 H46       2.1519     8.4042     3.9857 H      1 <0>       0.0800
   47 H47       2.1886     7.2167     1.8392 H      1 <0>       0.1300
   48 H48       3.6535     8.0979     1.3430 H      1 <0>       0.1300
   49 H49       1.9487     6.1261     0.0055 H      1 <0>       0.4200
   50 H50       2.0922     3.9825    -0.0060 H      1 <0>       0.1200
   51 H51       2.1165     1.5233    -0.0145 H      1 <0>       0.1400
@<TRIPOS>BOND
   1    1    2 1
   2    2   29 ar
   3    2    3 ar
   4    3    4 ar
   5    3   30 1
   6    4    5 ar
   7    4   31 1
   8    5    6 1
   9    5   28 ar
  10    6   27 1
  11    6    7 2
  12    7    8 1
  13    7   32 1
  14    8    9 2
  15    8   33 1
  16    9   10 1
  17    9   27 1
  18   10   11 1
  19   10   34 1
  20   10   35 1
  21   11   12 1
  22   11   26 1
  23   11   13 1
  24   13   14 1
  25   13   36 1
  26   13   37 1
  27   14   15 1
  28   14   38 1
  29   14   39 1
  30   15   16 1
  31   15   25 1
  32   16   24 ar
  33   16   17 ar
  34   17   21 ar
  35   17   18 1
  36   18   19 1
  37   19   20 2
  38   19   40 1
  39   20   21 1
  40   20   41 1
  41   21   22 ar
  42   22   23 ar
  43   22   42 1
  44   23   24 ar
  45   23   43 1
  46   24   44 1
  47   25   26 1
  48   25   45 1
  49   25   46 1
  50   26   47 1
  51   26   48 1
  52   27   49 1
  53   28   29 ar
  54   28   50 1
  55   29   51 1
