@<TRIPOS>MOLECULE
ZINC000000002139
47    48    1     0     0
SMALL
USER_CHARGES
@<TRIPOS>ATOM
1      C1      0.1308    1.4503    0.2088 C.3      1 ZINC000000002139   -0.1900
2      C2      0.0188   -0.0656    0.0344 C.3      1 ZINC000000002139   -0.0200
3      N3      0.5763   -0.4511   -1.2689 N.4      1 ZINC000000002139   -0.3900
4      H4      0.1245    0.0799   -1.9983 H        1 ZINC000000002139    0.4300
5      C5      2.0192   -0.1759   -1.2850 C.3      1 ZINC000000002139   -0.0100
6      C6      2.5730   -0.4396   -2.6866 C.3      1 ZINC000000002139   -0.1900
7      C7      0.3486   -1.8847   -1.4942 C.3      1 ZINC000000002139   -0.0100
8      C8     -1.1541   -2.1518   -1.6017 C.3      1 ZINC000000002139    0.0300
9      O9     -1.6718   -1.4997   -2.7631 O.3      1 ZINC000000002139   -0.3300
10     C10    -3.0016   -1.6377   -3.0069 C.ar     1 ZINC000000002139    0.1100
11     C11    -3.7930   -2.3806   -2.1429 C.ar     1 ZINC000000002139   -0.2000
12     C12    -5.1446   -2.5190   -2.3926 C.ar     1 ZINC000000002139   -0.0700
13     C13    -5.7087   -1.9182   -3.5029 C.ar     1 ZINC000000002139   -0.0900
14     C14    -7.1834   -2.0712   -3.7732 C.3      1 ZINC000000002139   -0.0400
15     C15    -7.9364   -0.9539   -3.0982 C.ar     1 ZINC000000002139   -0.0800
16     C16    -8.3880   -1.1096   -1.8010 C.ar     1 ZINC000000002139   -0.1200
17     C17    -9.0787   -0.0847   -1.1819 C.ar     1 ZINC000000002139   -0.1200
18     C18    -9.3175    1.0961   -1.8598 C.ar     1 ZINC000000002139   -0.1200
19     C19    -8.8651    1.2522   -3.1567 C.ar     1 ZINC000000002139   -0.1200
20     C20    -8.1706    0.2289   -3.7743 C.ar     1 ZINC000000002139   -0.1200
21     C21    -4.9223   -1.1769   -4.3653 C.ar     1 ZINC000000002139   -0.0700
22     C22    -3.5711   -1.0312   -4.1170 C.ar     1 ZINC000000002139   -0.1400
23     H23     1.1818    1.7320    0.2723 H        1 ZINC000000002139    0.0800
24     H24    -0.3281    1.9491   -0.6448 H        1 ZINC000000002139    0.0800
25     H25    -0.3815    1.7496    1.1232 H        1 ZINC000000002139    0.1100
26     H26     0.5736   -0.5647    0.8289 H        1 ZINC000000002139    0.1300
27     H27    -1.0295   -0.3604    0.0827 H        1 ZINC000000002139    0.1300
28     H28     2.1935    0.8657   -1.0154 H        1 ZINC000000002139    0.1300
29     H29     2.5210   -0.8256   -0.5679 H        1 ZINC000000002139    0.1300
30     H30     2.4989   -1.5034   -2.9124 H        1 ZINC000000002139    0.0800
31     H31     1.9971    0.1280   -3.4175 H        1 ZINC000000002139    0.0800
32     H32     3.6177   -0.1312   -2.7284 H        1 ZINC000000002139    0.1100
33     H33     0.8389   -2.1896   -2.4187 H        1 ZINC000000002139    0.1400
34     H34     0.7599   -2.4534   -0.6601 H        1 ZINC000000002139    0.1500
35     H35    -1.3277   -3.2250   -1.6799 H        1 ZINC000000002139    0.1100
36     H36    -1.6561   -1.7662   -0.7144 H        1 ZINC000000002139    0.0900
37     H37    -3.3527   -2.8506   -1.2759 H        1 ZINC000000002139    0.1300
38     H38    -5.7611   -3.0972   -1.7203 H        1 ZINC000000002139    0.1300
39     H39    -7.3617   -2.0323   -4.8478 H        1 ZINC000000002139    0.0900
40     H40    -7.5270   -3.0289   -3.3823 H        1 ZINC000000002139    0.0900
41     H41    -8.2014   -2.0321   -1.2714 H        1 ZINC000000002139    0.1200
42     H42    -9.4321   -0.2066   -0.1687 H        1 ZINC000000002139    0.1200
43     H43    -9.8577    1.8966   -1.3764 H        1 ZINC000000002139    0.1200
44     H44    -9.0519    2.1746   -3.6865 H        1 ZINC000000002139    0.1200
45     H45    -7.8172    0.3508   -4.7876 H        1 ZINC000000002139    0.1200
46     H46    -5.3653   -0.7084   -5.2316 H        1 ZINC000000002139    0.1300
47     H47    -2.9572   -0.4521   -4.7909 H        1 ZINC000000002139    0.1300
@<TRIPOS>BOND
1     1     2     1
2     1     23    1
3     1     24    1
4     1     25    1
5     2     3     1
6     2     26    1
7     2     27    1
8     3     4     1
9     3     5     1
10    3     7     1
11    5     6     1
12    5     28    1
13    5     29    1
14    6     30    1
15    6     31    1
16    6     32    1
17    7     8     1
18    7     33    1
19    7     34    1
20    8     9     1
21    8     35    1
22    8     36    1
23    9     10    1
24    10    22    ar
25    10    11    ar
26    11    12    ar
27    11    37    1
28    12    13    ar
29    12    38    1
30    13    14    1
31    13    21    ar
32    14    15    1
33    14    39    1
34    14    40    1
35    15    20    ar
36    15    16    ar
37    16    17    ar
38    16    41    1
39    17    18    ar
40    17    42    1
41    18    19    ar
42    18    43    1
43    19    20    ar
44    19    44    1
45    20    45    1
46    21    22    ar
47    21    46    1
48    22    47    1
@<TRIPOS>SUBSTRUCTURE
1   ZINC000000002139 1     RESIDUE    1   A     ZIN   1
