@<TRIPOS>MOLECULE
ZINC000000001799
  15   15    0    0    0
SMALL
USER_CHARGES
NO_NAME
@<TRIPOS>ATOM
    1 O1       -0.0173     1.4248     0.0099 O.3    1 <0>      -0.5700
    2 C2        0.0021    -0.0041     0.0020 C.3    1 <0>       0.1200
    3 C3       -1.4117    -0.5257     0.0127 C.ar   1 <0>      -0.1500
    4 C4       -2.0608    -0.7696     1.2131 C.ar   1 <0>      -0.0600
    5 C5       -3.3616    -1.2488     1.1746 C.ar   1 <0>      -0.1800
    6 C6       -3.9632    -1.4657    -0.0503 C.ar   1 <0>       0.1000
    7 N7       -3.3151    -1.2225    -1.1728 N.ar   1 <0>      -0.4900
    8 C8       -2.0797    -0.7615    -1.1742 C.ar   1 <0>       0.1200
    9 H9        0.8606     1.8301     0.0037 H      1 <0>       0.3800
   10 H10       0.5123    -0.3556    -0.8948 H      1 <0>       0.0600
   11 H11       0.5293    -0.3651     0.8851 H      1 <0>       0.0600
   12 H12      -1.5652    -0.5910     2.1559 H      1 <0>       0.1400
   13 H13      -3.8974    -1.4503     2.0904 H      1 <0>       0.1400
   14 H14      -4.9759    -1.8392    -0.0888 H      1 <0>       0.1600
   15 H15      -1.5810    -0.5743    -2.1137 H      1 <0>       0.1600
@<TRIPOS>BOND
   1    1    2 1
   2    1    9 1
   3    2    3 1
   4    2   10 1
   5    2   11 1
   6    3    8 ar
   7    3    4 ar
   8    4    5 ar
   9    4   12 1
  10    5    6 ar
  11    5   13 1
  12    6    7 ar
  13    6   14 1
  14    7    8 ar
  15    8   15 1
