@<TRIPOS>MOLECULE
ZINC000002020500
  59   61    0    0    0
SMALL
USER_CHARGES
NO_NAME
@<TRIPOS>ATOM
    1 C1       -0.5527     1.6271    -0.6681 C.3    1 <0>      -0.1200
    2 C2       -0.4969     0.1279    -0.5257 C.ar   1 <0>      -0.1200
    3 C3       -0.2935    -0.6614    -1.6373 C.ar   1 <0>      -0.0700
    4 C4       -0.2419    -2.0522    -1.5034 C.ar   1 <0>      -0.0400
    5 C5       -0.0250    -2.8991    -2.6837 C.2    1 <0>      -0.0800
    6 C6        1.1291    -2.8128    -3.3415 C.2    1 <0>      -0.0600
    7 C7        2.1266    -1.8545    -2.8500 C.2    1 <0>      -0.0900
    8 C8        2.5573    -1.9279    -1.5915 C.2    1 <0>      -0.1600
    9 C9        3.5944    -0.9552    -1.0921 C.3    1 <0>       0.1500
   10 H10       4.5098    -1.4933    -0.8460 H      1 <0>       0.1000
   11 C11       3.0682    -0.2428     0.1569 C.3    1 <0>      -0.1400
   12 C12       4.1030     0.7825     0.6305 C.3    1 <0>       0.1000
   13 H13       3.7298     1.2945     1.5175 H      1 <0>       0.0800
   14 O14       5.3282     0.1165     0.9425 O.3    1 <0>      -0.5600
   15 C15       4.3417     1.8032    -0.4889 C.3    1 <0>      -0.2000
   16 C16       4.6778     1.0505    -1.7574 C.2    1 <0>       0.5000
   17 O17       5.6405     1.3520    -2.4225 O.2    1 <0>      -0.4500
   18 O18       3.8730     0.0314    -2.1250 O.3    1 <0>      -0.3700
   19 C19       1.4763    -3.6385    -4.5408 C.3    1 <0>      -0.0100
   20 C20       1.9692    -2.7148    -5.6632 C.3    1 <0>      -0.1400
   21 C21       2.6450    -4.5665    -4.1558 C.3    1 <0>      -0.1400
   22 C22       0.3309    -4.4985    -5.0473 C.3    1 <0>      -0.1000
   23 C23      -1.0501    -4.0026    -4.6390 C.3    1 <0>      -0.0600
   24 C24      -1.3871    -2.6775    -5.3250 C.3    1 <0>      -0.1400
   25 C25      -2.0991    -5.0474    -5.0570 C.3    1 <0>      -0.1500
   26 C26      -1.1186    -3.8310    -3.1197 C.3    1 <0>      -0.0700
   27 C27      -0.3972    -2.6332    -0.2416 C.ar   1 <0>      -0.0900
   28 C28      -0.6001    -1.8326     0.8624 C.ar   1 <0>      -0.1500
   29 C29      -0.6445    -0.4542     0.7239 C.ar   1 <0>       0.0900
   30 F30      -0.8431     0.3248     1.8096 F      1 <0>      -0.1400
   31 H31       0.4500     2.0401    -0.5584 H      1 <0>       0.0700
   32 H32      -0.9459     1.8843    -1.6517 H      1 <0>       0.0700
   33 H33      -1.2026     2.0413     0.1027 H      1 <0>       0.0700
   34 H34      -0.1746    -0.2065    -2.6096 H      1 <0>       0.1300
   35 H35       2.5113    -1.0899    -3.5087 H      1 <0>       0.1300
   36 H36       2.1632    -2.6845    -0.9292 H      1 <0>       0.1300
   37 H37       2.1342     0.2663    -0.0811 H      1 <0>       0.1000
   38 H38       2.8932    -0.9740     0.9461 H      1 <0>       0.1000
   39 H39       6.0296     0.7070     1.2497 H      1 <0>       0.3900
   40 H40       3.4407     2.3972    -0.6424 H      1 <0>       0.1200
   41 H41       5.1712     2.4567    -0.2191 H      1 <0>       0.1100
   42 H42       2.9034    -2.2417    -5.3605 H      1 <0>       0.0600
   43 H43       2.1346    -3.2992    -6.5683 H      1 <0>       0.0600
   44 H44       1.2198    -1.9477    -5.8579 H      1 <0>       0.0600
   45 H45       2.3412    -5.2100    -3.3301 H      1 <0>       0.0500
   46 H46       2.9189    -5.1809    -5.0135 H      1 <0>       0.0600
   47 H47       3.5016    -3.9650    -3.8514 H      1 <0>       0.0600
   48 H48       0.3811    -4.5490    -6.1456 H      1 <0>       0.0700
   49 H49       0.4645    -5.5261    -4.6770 H      1 <0>       0.0600
   50 H50      -1.3724    -2.8141    -6.4063 H      1 <0>       0.0500
   51 H51      -2.3788    -2.3491    -5.0137 H      1 <0>       0.0500
   52 H52      -0.6503    -1.9251    -5.0437 H      1 <0>       0.0600
   53 H53      -1.8865    -5.9944    -4.5610 H      1 <0>       0.0500
   54 H54      -3.0917    -4.7011    -4.7688 H      1 <0>       0.0600
   55 H55      -2.0625    -5.1869    -6.1375 H      1 <0>       0.0600
   56 H56      -0.9894    -4.7977    -2.6369 H      1 <0>       0.0800
   57 H57      -2.0849    -3.4096    -2.8458 H      1 <0>       0.0700
   58 H58      -0.3587    -3.7069    -0.1318 H      1 <0>       0.1300
   59 H59      -0.7202    -2.2803     1.8379 H      1 <0>       0.1300
@<TRIPOS>BOND
   1    1    2 1
   2    1   31 1
   3    1   32 1
   4    1   33 1
   5    2   29 ar
   6    2    3 ar
   7    3    4 ar
   8    3   34 1
   9    4    5 1
  10    4   27 ar
  11    5   26 1
  12    5    6 2
  13    6    7 1
  14    6   19 1
  15    7    8 2
  16    7   35 1
  17    8    9 1
  18    8   36 1
  19    9   10 1
  20    9   18 1
  21    9   11 1
  22   11   12 1
  23   11   37 1
  24   11   38 1
  25   12   13 1
  26   12   14 1
  27   12   15 1
  28   14   39 1
  29   15   16 1
  30   15   40 1
  31   15   41 1
  32   16   17 2
  33   16   18 1
  34   19   20 1
  35   19   21 1
  36   19   22 1
  37   20   42 1
  38   20   43 1
  39   20   44 1
  40   21   45 1
  41   21   46 1
  42   21   47 1
  43   22   23 1
  44   22   48 1
  45   22   49 1
  46   23   24 1
  47   23   25 1
  48   23   26 1
  49   24   50 1
  50   24   51 1
  51   24   52 1
  52   25   53 1
  53   25   54 1
  54   25   55 1
  55   26   56 1
  56   26   57 1
  57   27   28 ar
  58   27   58 1
  59   28   29 ar
  60   28   59 1
  61   29   30 1
