@<TRIPOS>MOLECULE
ZINC000004557060
  26   25    0    0    0
SMALL
USER_CHARGES
NO_NAME
@<TRIPOS>ATOM
    1 C1       -0.0184     1.5028     0.0103 C.3    1 <0>      -0.1000
    2 C2        0.0021    -0.0041     0.0020 C.2    1 <0>       0.0500
    3 C3        0.0225    -0.6880     1.1720 C.2    1 <0>       0.1800
    4 N4        0.0245    -0.0152     2.3520 N.2    1 <0>      -0.2200
    5 N5        0.0432    -0.6409     3.4224 N.2    1 <0>      -0.1300
    6 C6        0.0453     0.0847     4.6951 C.3    1 <0>       0.3900
    7 N7       -1.1418    -0.2906     5.4748 N.3    1 <0>      -0.8200
    8 N8        1.2568    -0.2580     5.4520 N.3    1 <0>      -0.8600
    9 N9        0.0001    -0.6695    -1.1651 N.2    1 <0>      -0.0800
   10 N10       0.0176    -1.9593    -1.1722 N.2    1 <0>      -0.3300
   11 C11       0.0155    -2.6352    -2.3576 C.cat  1 <0>       0.7000
   12 N12      -0.0045    -1.9625    -3.5085 N.pl3  1 <0>      -0.7700
   13 N13       0.0336    -3.9682    -2.3650 N.pl3  1 <0>      -0.7400
   14 H14       0.0322    -4.4487    -3.2076 H      1 <0>       0.4400
   15 H15       0.0482    -4.4577    -1.5276 H      1 <0>       0.4500
   16 H16       1.0042     1.8801     0.0026 H      1 <0>       0.0900
   17 H17      -0.5455     1.8639    -0.8728 H      1 <0>       0.0900
   18 H18      -0.5286     1.8543     0.9071 H      1 <0>       0.1000
   19 H19       0.0371    -1.7679     1.1661 H      1 <0>       0.1500
   20 H20       0.0289     1.1573     4.5018 H      1 <0>       0.0700
   21 H21      -1.1498    -1.2811     5.6671 H      1 <0>       0.3600
   22 H22      -1.1974     0.2440     6.3287 H      1 <0>       0.3700
   23 H23       2.0870    -0.0690     4.9106 H      1 <0>       0.3500
   24 H24       1.2818     0.2302     6.3347 H      1 <0>       0.3700
   25 H25      -0.0177    -0.9926    -3.5031 H      1 <0>       0.4500
   26 H26      -0.0060    -2.4429    -4.3511 H      1 <0>       0.4300
@<TRIPOS>BOND
   1    1    2 1
   2    1   16 1
   3    1   17 1
   4    1   18 1
   5    2    3 2
   6    2    9 1
   7    3    4 1
   8    3   19 1
   9    4    5 2
  10    5    6 1
  11    6    7 1
  12    6    8 1
  13    6   20 1
  14    7   21 1
  15    7   22 1
  16    8   23 1
  17    8   24 1
  18    9   10 2
  19   10   11 1
  20   11   12 ar
  21   11   13 ar
  22   12   25 1
  23   12   26 1
  24   13   14 1
  25   13   15 1
