@<TRIPOS>MOLECULE
ZINC000031343420
  31   32    0    0    0
SMALL
USER_CHARGES
NO_NAME
@<TRIPOS>ATOM
    1 N1       -0.0164     1.3599     0.0095 N.pl3  1 <0>      -0.8100
    2 C2        0.0021    -0.0041     0.0020 C.2    1 <0>       0.6900
    3 N3       -1.1295    -0.6888     0.0037 N.2    1 <0>      -0.6500
    4 C4       -1.1292    -2.0251     0.0266 C.2    1 <0>       0.7000
    5 O5       -2.1714    -2.6246    -0.1681 O.2    1 <0>      -0.5400
    6 N6       -0.0019    -2.7226     0.2597 N.am   1 <0>      -0.6500
    7 C7       -0.0083    -4.1842     0.1603 C.3    1 <0>       0.3300
    8 H8        1.0002    -4.5803     0.2794 H      1 <0>       0.1000
    9 O9       -0.5745    -4.6057    -1.0992 O.3    1 <0>      -0.3500
   10 C10      -1.0128    -5.9640    -0.9287 C.3    1 <0>       0.0600
   11 H11      -0.2230    -6.6496    -1.2355 H      1 <0>       0.0900
   12 C12      -2.2709    -6.2133    -1.7630 C.3    1 <0>       0.0800
   13 O13      -1.9460    -6.1282    -3.1520 O.3    1 <0>      -0.5600
   14 C14      -1.3251    -6.1602     0.5675 C.3    1 <0>       0.0400
   15 H15      -2.3823    -6.3838     0.7105 H      1 <0>       0.0800
   16 O16      -0.5160    -7.2033     1.1147 O.3    1 <0>      -0.5400
   17 C17      -0.9640    -4.7988     1.2144 C.3    1 <0>       0.0800
   18 H18      -1.8523    -4.1793     1.3383 H      1 <0>       0.1000
   19 O19      -0.2992    -4.9888     2.4649 O.3    1 <0>      -0.5400
   20 C20       1.2345    -2.0138     0.6135 C.3    1 <0>       0.3600
   21 N21       1.1928    -0.6811    -0.0130 N.pl3  1 <0>      -0.7700
   22 H22       0.8169     1.8563     0.0042 H      1 <0>       0.4100
   23 H23      -0.8630     1.8335     0.0161 H      1 <0>       0.4300
   24 H24      -2.6629    -7.2060    -1.5417 H      1 <0>       0.0600
   25 H25      -3.0231    -5.4630    -1.5192 H      1 <0>       0.0600
   26 H26      -2.6980    -6.2761    -3.7416 H      1 <0>       0.3800
   27 H27      -0.6595    -8.0678     0.7059 H      1 <0>       0.3800
   28 H28      -0.8311    -5.4514     3.1269 H      1 <0>       0.3900
   29 H29       1.3036    -1.9130     1.6967 H      1 <0>       0.0800
   30 H30       2.0957    -2.5672     0.2393 H      1 <0>       0.1000
   31 H31       1.9850    -0.2944    -0.4177 H      1 <0>       0.4100
@<TRIPOS>BOND
   1    1    2 1
   2    1   22 1
   3    1   23 1
   4    2   21 1
   5    2    3 2
   6    3    4 1
   7    4    5 2
   8    4    6 am
   9    6    7 1
  10    6   20 1
  11    7    8 1
  12    7   17 1
  13    7    9 1
  14    9   10 1
  15   10   11 1
  16   10   12 1
  17   10   14 1
  18   12   13 1
  19   12   24 1
  20   12   25 1
  21   13   26 1
  22   14   15 1
  23   14   16 1
  24   14   17 1
  25   16   27 1
  26   17   18 1
  27   17   19 1
  28   19   28 1
  29   20   21 1
  30   20   29 1
  31   20   30 1
  32   21   31 1
