@<TRIPOS>MOLECULE
ZINC000000896749
  29   30    0    0    0
SMALL
USER_CHARGES
NO_NAME
@<TRIPOS>ATOM
    1 N1       -0.0162     1.3436     0.0094 N.am   1 <0>      -0.8300
    2 C2        0.0021    -0.0041     0.0020 C.2    1 <0>       0.6200
    3 O3        1.0629    -0.5974    -0.0113 O.2    1 <0>      -0.5200
    4 C4       -1.2683    -0.7608     0.0101 C.2    1 <0>       0.1400
    5 N5       -1.3891    -2.0702     0.0095 N.2    1 <0>      -0.2300
    6 N6       -2.6423    -2.3695     0.0187 N.pl3  1 <0>      -0.3000
    7 C7       -3.1986    -3.7248     0.0222 C.3    1 <0>       0.3200
    8 H8       -2.9460    -4.2355     0.9514 H      1 <0>       0.1300
    9 O9       -4.6314    -3.6805    -0.1538 O.3    1 <0>      -0.3400
   10 C10      -4.9977    -4.9956    -0.6252 C.3    1 <0>       0.0900
   11 H11      -5.0209    -5.7030     0.2038 H      1 <0>       0.1100
   12 C12      -6.3578    -4.9512    -1.3244 C.3    1 <0>       0.0900
   13 O13      -7.3741    -4.6383    -0.3698 O.3    1 <0>      -0.5600
   14 C14      -3.8870    -5.3789    -1.6282 C.3    1 <0>       0.0500
   15 H15      -4.1870    -5.1262    -2.6451 H      1 <0>       0.0900
   16 O16      -3.5815    -6.7713    -1.5290 O.3    1 <0>      -0.5400
   17 C17      -2.6739    -4.5245    -1.1909 C.3    1 <0>       0.0400
   18 H18      -2.3744    -3.8485    -1.9917 H      1 <0>       0.0900
   19 O19      -1.5815    -5.3637    -0.8108 O.3    1 <0>      -0.5300
   20 C20      -3.3541    -1.2273     0.0255 C.2    1 <0>       0.2200
   21 N21      -2.5052    -0.2313     0.0252 N.2    1 <0>      -0.4900
   22 H22       0.8172     1.8399     0.0041 H      1 <0>       0.4100
   23 H23      -0.8627     1.8171     0.0160 H      1 <0>       0.4100
   24 H24      -6.3419    -4.1872    -2.1017 H      1 <0>       0.0600
   25 H25      -6.5675    -5.9220    -1.7733 H      1 <0>       0.0700
   26 H26      -8.2647    -4.5933    -0.7439 H      1 <0>       0.3900
   27 H27      -2.8900    -7.0665    -2.1370 H      1 <0>       0.3900
   28 H28      -1.2543    -5.9301    -1.5230 H      1 <0>       0.3900
   29 H29      -4.4311    -1.1472     0.0338 H      1 <0>       0.2300
@<TRIPOS>BOND
   1    1    2 am
   2    1   22 1
   3    1   23 1
   4    2    3 2
   5    2    4 1
   6    4   21 1
   7    4    5 2
   8    5    6 1
   9    6    7 1
  10    6   20 1
  11    7    8 1
  12    7   17 1
  13    7    9 1
  14    9   10 1
  15   10   11 1
  16   10   12 1
  17   10   14 1
  18   12   13 1
  19   12   24 1
  20   12   25 1
  21   13   26 1
  22   14   15 1
  23   14   16 1
  24   14   17 1
  25   16   27 1
  26   17   18 1
  27   17   19 1
  28   19   28 1
  29   20   21 2
  30   20   29 1
