@<TRIPOS>MOLECULE
ZINC000012494893
  58   58    0    0    0
SMALL
USER_CHARGES
NO_NAME
@<TRIPOS>ATOM
    1 C1       -0.0187     1.5258     0.0104 C.3    1 <0>      -0.1500
    2 C2        0.0021    -0.0041     0.0020 C.3    1 <0>      -0.1300
    3 C3       -1.4333    -0.5336     0.0129 C.3    1 <0>      -0.1200
    4 C4       -1.4126    -2.0635     0.0045 C.3    1 <0>      -0.1200
    5 C5       -2.8479    -2.5931     0.0153 C.3    1 <0>      -0.1400
    6 C6       -2.8272    -4.1229     0.0069 C.3    1 <0>       0.1400
    7 H7       -2.2249    -4.4827     0.8411 H      1 <0>       0.1100
    8 O8       -2.2631    -4.5849    -1.2221 O.3    1 <0>      -0.5600
    9 C9       -4.2344    -4.6451     0.1414 C.2    1 <0>      -0.1900
   10 C10      -4.7117    -5.4786    -0.7495 C.2    1 <0>      -0.1400
   11 C11      -6.1189    -6.0008    -0.6150 C.3    1 <0>      -0.0500
   12 H12      -6.5994    -5.5770     0.2668 H      1 <0>       0.0900
   13 C13      -6.9406    -5.6786    -1.8878 C.3    1 <0>       0.1100
   14 H14      -6.3273    -5.7896    -2.7820 H      1 <0>       0.0700
   15 O15      -7.4923    -4.3623    -1.8146 O.3    1 <0>      -0.5600
   16 C16      -8.0591    -6.7495    -1.8528 C.3    1 <0>      -0.1900
   17 C17      -7.3521    -8.0179    -1.3321 C.3    1 <0>       0.1100
   18 H18      -7.0423    -8.6432    -2.1695 H      1 <0>       0.0600
   19 O19      -8.2293    -8.7497    -0.4735 O.3    1 <0>      -0.5500
   20 C20      -6.1182    -7.5417    -0.5415 C.3    1 <0>      -0.0700
   21 H21      -5.2089    -7.9352    -0.9959 H      1 <0>       0.0900
   22 C22      -6.2183    -8.0030     0.9139 C.3    1 <0>      -0.0600
   23 C23      -6.1264    -9.5061     0.9720 C.2    1 <0>      -0.1600
   24 C24      -5.2219   -10.0783     1.7272 C.2    1 <0>      -0.1500
   25 C25      -5.1300   -11.5814     1.7853 C.3    1 <0>      -0.0900
   26 C26      -3.7067   -12.0193     1.4340 C.3    1 <0>      -0.0900
   27 C27      -3.6134   -13.5453     1.4929 C.3    1 <0>      -0.1800
   28 C28      -2.2115   -13.9766     1.1470 C.2    1 <0>       0.4900
   29 O29      -1.3654   -13.1409     0.8782 O.co2  1 <0>      -0.7000
   30 O30      -1.9234   -15.1613     1.1359 O.co2  1 <0>      -0.7100
   31 H31       1.0039     1.9031     0.0027 H      1 <0>       0.0500
   32 H32      -0.5459     1.8868    -0.8726 H      1 <0>       0.0500
   33 H33      -0.5289     1.8773     0.9072 H      1 <0>       0.0500
   34 H34       0.5123    -0.3556    -0.8948 H      1 <0>       0.0600
   35 H35       0.5293    -0.3651     0.8851 H      1 <0>       0.0600
   36 H36      -1.9435    -0.1821     0.9097 H      1 <0>       0.0600
   37 H37      -1.9605    -0.1726    -0.8702 H      1 <0>       0.0600
   38 H38      -0.9024    -2.4150    -0.8923 H      1 <0>       0.0700
   39 H39      -0.8854    -2.4246     0.8875 H      1 <0>       0.0600
   40 H40      -3.3581    -2.2415     0.9121 H      1 <0>       0.0700
   41 H41      -3.3751    -2.2320    -0.8677 H      1 <0>       0.0600
   42 H42      -2.7489    -4.3018    -2.0088 H      1 <0>       0.3700
   43 H43      -4.8494    -4.3322     0.9722 H      1 <0>       0.1100
   44 H44      -4.0967    -5.7915    -1.5803 H      1 <0>       0.1200
   45 H45      -8.0161    -4.1119    -2.5879 H      1 <0>       0.3800
   46 H46      -8.8542    -6.4487    -1.1706 H      1 <0>       0.0900
   47 H47      -8.4571    -6.9182    -2.8534 H      1 <0>       0.0700
   48 H48      -9.0364    -9.0590    -0.9071 H      1 <0>       0.3700
   49 H49      -5.4025    -7.5666     1.4902 H      1 <0>       0.0600
   50 H50      -7.1717    -7.6808     1.3325 H      1 <0>       0.0700
   51 H51      -6.8063   -10.1115     0.3909 H      1 <0>       0.1200
   52 H52      -4.5420    -9.4729     2.3083 H      1 <0>       0.1000
   53 H53      -5.3772   -11.9220     2.7908 H      1 <0>       0.0600
   54 H54      -5.8303   -12.0160     1.0720 H      1 <0>       0.0600
   55 H55      -3.4595   -11.6787     0.4285 H      1 <0>       0.0600
   56 H56      -3.0064   -11.5847     2.1473 H      1 <0>       0.0600
   57 H57      -3.8606   -13.8859     2.4984 H      1 <0>       0.0500
   58 H58      -4.3138   -13.9799     0.7797 H      1 <0>       0.0500
@<TRIPOS>BOND
   1    1    2 1
   2    1   31 1
   3    1   32 1
   4    1   33 1
   5    2    3 1
   6    2   34 1
   7    2   35 1
   8    3    4 1
   9    3   36 1
  10    3   37 1
  11    4    5 1
  12    4   38 1
  13    4   39 1
  14    5    6 1
  15    5   40 1
  16    5   41 1
  17    6    7 1
  18    6    8 1
  19    6    9 1
  20    8   42 1
  21    9   10 2
  22    9   43 1
  23   10   11 1
  24   10   44 1
  25   11   12 1
  26   11   20 1
  27   11   13 1
  28   13   14 1
  29   13   15 1
  30   13   16 1
  31   15   45 1
  32   16   17 1
  33   16   46 1
  34   16   47 1
  35   17   18 1
  36   17   19 1
  37   17   20 1
  38   19   48 1
  39   20   21 1
  40   20   22 1
  41   22   23 1
  42   22   49 1
  43   22   50 1
  44   23   24 2
  45   23   51 1
  46   24   25 1
  47   24   52 1
  48   25   26 1
  49   25   53 1
  50   25   54 1
  51   26   27 1
  52   26   55 1
  53   26   56 1
  54   27   28 1
  55   27   57 1
  56   27   58 1
  57   28   29 ar
  58   28   30 ar
