@<TRIPOS>MOLECULE
ZINC000003813525
32    33    1     0     0
SMALL
USER_CHARGES
@<TRIPOS>ATOM
1      C1      0.0180   -1.1779   -0.0044 C.1      1 ZINC000003813525   -0.1400
2      C2      0.0021   -0.0041    0.0020 C.1      1 ZINC000003813525   -0.2300
3      C3     -0.0179    1.4678    0.0101 C.3      1 ZINC000003813525    0.2400
4      O4     -0.7341    1.9508    1.1484 O.3      1 ZINC000003813525   -0.5200
5      C5     -0.6452    2.0084   -1.2979 C.3      1 ZINC000003813525    0.0900
6      H6     -0.5975    1.2611   -2.0900 H        1 ZINC000003813525    0.1100
7      O7     -1.9926    2.4319   -1.0802 O.3      1 ZINC000003813525   -0.5300
8      C8      0.2698    3.2168   -1.6216 C.3      1 ZINC000003813525    0.2600
9      H9     -0.0263    4.0893   -1.0392 H        1 ZINC000003813525    0.1200
10     N10     0.2367    3.5196   -3.0546 N.am     1 ZINC000003813525   -0.5400
11     C11    -0.2776    4.7058   -3.4850 C.2      1 ZINC000003813525    0.1900
12     C12    -0.3023    4.9744   -4.8119 C.2      1 ZINC000003813525   -0.3000
13     C13     0.2065    4.0160   -5.7124 C.2      1 ZINC000003813525    0.5000
14     N14     0.1942    4.2631   -7.0656 N.pl3    1 ZINC000003813525   -0.8100
15     N15     0.6975    2.8748   -5.2471 N.2      1 ZINC000003813525   -0.6200
16     C16     0.7195    2.6273   -3.9386 C.2      1 ZINC000003813525    0.6600
17     O17     1.1765    1.5706   -3.5355 O.2      1 ZINC000003813525   -0.5200
18     O18     1.5814    2.7619   -1.2250 O.3      1 ZINC000003813525   -0.3300
19     C19     1.4181    2.0267   -0.0006 C.3      1 ZINC000003813525    0.0700
20     H20     1.5641    2.6898    0.8521 H        1 ZINC000003813525    0.1000
21     C21     2.4273    0.8781    0.0550 C.3      1 ZINC000003813525    0.0800
22     O22     3.7503    1.4104    0.1470 O.3      1 ZINC000003813525   -0.5600
23     H23     0.0322   -2.2278   -0.0102 H        1 ZINC000003813525    0.2300
24     H24    -0.3649    1.6658    1.9955 H        1 ZINC000003813525    0.3800
25     H25    -2.4284    2.7787   -1.8706 H        1 ZINC000003813525    0.3800
26     H26    -0.6617    5.4238   -2.7755 H        1 ZINC000003813525    0.1800
27     H27    -0.7057    5.9081   -5.1750 H        1 ZINC000003813525    0.1600
28     H28    -0.1652    5.0986   -7.4028 H        1 ZINC000003813525    0.4200
29     H29     0.5449    3.6018   -7.6826 H        1 ZINC000003813525    0.4100
30     H30     2.2238    0.2576    0.9278 H        1 ZINC000003813525    0.0600
31     H31     2.3406    0.2742   -0.8482 H        1 ZINC000003813525    0.0700
32     H32     4.4433    0.7371    0.1863 H        1 ZINC000003813525    0.3800
@<TRIPOS>BOND
1     1     2     3
2     1     23    1
3     2     3     1
4     3     19    1
5     3     4     1
6     3     5     1
7     4     24    1
8     5     6     1
9     5     7     1
10    5     8     1
11    7     25    1
12    8     9     1
13    8     10    1
14    8     18    1
15    10    16    am
16    10    11    1
17    11    12    2
18    11    26    1
19    12    13    1
20    12    27    1
21    13    14    1
22    13    15    2
23    14    28    1
24    14    29    1
25    15    16    1
26    16    17    2
27    18    19    1
28    19    20    1
29    19    21    1
30    21    22    1
31    21    30    1
32    21    31    1
33    22    32    1
@<TRIPOS>SUBSTRUCTURE
1   ZINC000003813525 1     RESIDUE    1   A     ZIN   1
