@<TRIPOS>MOLECULE
ZINC000049605641
74    76    1     0     0
SMALL
USER_CHARGES
@<TRIPOS>ATOM
1      C1     -0.0187    1.5258    0.0104 C.3      1 ZINC000049605641   -0.1600
2      C2      0.0021   -0.0041    0.0020 C.3      1 ZINC000049605641   -0.1300
3      C3      0.7421   -0.5109    1.2415 C.3      1 ZINC000049605641   -0.1200
4      C4      0.7628   -2.0407    1.2331 C.3      1 ZINC000049605641   -0.1200
5      C5      1.5028   -2.5476    2.4727 C.3      1 ZINC000049605641   -0.1200
6      C6      1.5236   -4.0774    2.4642 C.3      1 ZINC000049605641   -0.1500
7      C7      2.2636   -4.5842    3.7038 C.3      1 ZINC000049605641   -0.0100
8      N8      2.2835   -6.0531    3.6957 N.4      1 ZINC000049605641   -0.3800
9      H9      1.3393   -6.4008    3.6199 H        1 ZINC000049605641    0.4200
10     C10     3.0702   -6.5240    2.5495 C.3      1 ZINC000049605641   -0.0200
11     C11     3.0270   -8.0524    2.4897 C.3      1 ZINC000049605641   -0.1400
12     C12     3.6134   -8.6252    3.7832 C.3      1 ZINC000049605641   -0.1000
13     H13     3.5332   -9.7121    3.7698 H        1 ZINC000049605641    0.1000
14     C14     5.0847   -8.2222    3.9004 C.3      1 ZINC000049605641   -0.1200
15     C15     5.8838   -8.8750    2.7707 C.3      1 ZINC000049605641   -0.1500
16     C16     7.3552   -8.4720    2.8879 C.3      1 ZINC000049605641    0.1500
17     H17     7.7229   -8.7243    3.8825 H        1 ZINC000049605641    0.1200
18     O18     7.4818   -7.0645    2.6761 O.3      1 ZINC000049605641   -0.5500
19     C19     8.1624   -9.2106    1.8516 C.ar     1 ZINC000049605641   -0.0700
20     C20     8.6406  -10.5111    2.0991 C.ar     1 ZINC000049605641   -0.0500
21     C21     8.3840  -11.1640    3.3148 C.ar     1 ZINC000049605641   -0.1600
22     C22     8.8652  -12.4264    3.5169 C.ar     1 ZINC000049605641    0.1400
23     O23     8.6168  -13.0596    4.6934 O.3      1 ZINC000049605641   -0.3100
24     C24     9.1465  -14.3781    4.8450 C.3      1 ZINC000049605641    0.0200
25     C25     9.6100  -13.0748    2.5267 C.ar     1 ZINC000049605641   -0.1700
26     C26     9.8748  -12.4680    1.3391 C.ar     1 ZINC000049605641   -0.0400
27     C27     9.3955  -11.1683    1.0955 C.ar     1 ZINC000049605641    0.1000
28     N28     9.6412  -10.5496   -0.0635 N.ar     1 ZINC000049605641   -0.4600
29     C29     9.1972   -9.3384   -0.2973 C.ar     1 ZINC000049605641    0.1200
30     C30     8.4454   -8.6388    0.6437 C.ar     1 ZINC000049605641   -0.1500
31     C31     2.8317   -8.0687    4.9768 C.3      1 ZINC000049605641   -0.1000
32     H32     1.7949   -8.4000    4.9191 H        1 ZINC000049605641    0.1000
33     C33     3.4580   -8.5740    6.2780 C.3      1 ZINC000049605641   -0.1200
34     C34     2.6046   -8.1208    7.4643 C.3      1 ZINC000049605641   -0.1600
35     C35     2.8838   -6.5397    4.9436 C.3      1 ZINC000049605641   -0.0100
36     H36     1.0039    1.9031    0.0027 H        1 ZINC000049605641    0.0500
37     H37    -0.5459    1.8868   -0.8726 H        1 ZINC000049605641    0.0600
38     H38    -0.5289    1.8773    0.9072 H        1 ZINC000049605641    0.0500
39     H39    -1.0205   -0.3814    0.0098 H        1 ZINC000049605641    0.0600
40     H40     0.5123   -0.3556   -0.8948 H        1 ZINC000049605641    0.0600
41     H41     1.7647   -0.1336    1.2338 H        1 ZINC000049605641    0.0600
42     H42     0.2319   -0.1594    2.1383 H        1 ZINC000049605641    0.0600
43     H43    -0.2598   -2.4180    1.2409 H        1 ZINC000049605641    0.0700
44     H44     1.2730   -2.3923    0.3363 H        1 ZINC000049605641    0.0700
45     H45     2.5254   -2.1703    2.4649 H        1 ZINC000049605641    0.0700
46     H46     0.9926   -2.1961    3.3695 H        1 ZINC000049605641    0.0700
47     H47     0.5010   -4.4547    2.4720 H        1 ZINC000049605641    0.0900
48     H48     2.0337   -4.4289    1.5675 H        1 ZINC000049605641    0.0900
49     H49     3.2861   -4.2070    3.6960 H        1 ZINC000049605641    0.1300
50     H50     1.7534   -4.2327    4.6006 H        1 ZINC000049605641    0.1300
51     H51     2.6536   -6.1129    1.6299 H        1 ZINC000049605641    0.1300
52     H52     4.1034   -6.1941    2.6585 H        1 ZINC000049605641    0.1300
53     H53     1.9942   -8.3833    2.3805 H        1 ZINC000049605641    0.0900
54     H54     3.6132   -8.4001    1.6391 H        1 ZINC000049605641    0.1100
55     H55     5.1714   -7.1381    3.8273 H        1 ZINC000049605641    0.0700
56     H56     5.4769   -8.5540    4.8617 H        1 ZINC000049605641    0.0800
57     H57     5.7971   -9.9591    2.8438 H        1 ZINC000049605641    0.0800
58     H58     5.4917   -8.5431    1.8094 H        1 ZINC000049605641    0.0700
59     H59     7.1729   -6.7678    1.8091 H        1 ZINC000049605641    0.3700
60     H60     7.8100  -10.6714    4.0857 H        1 ZINC000049605641    0.1400
61     H61     8.7351  -15.0261    4.0711 H        1 ZINC000049605641    0.0600
62     H62    10.2322  -14.3463    4.7529 H        1 ZINC000049605641    0.0600
63     H63     8.8764  -14.7676    5.8265 H        1 ZINC000049605641    0.1100
64     H64     9.9810  -14.0727    2.7083 H        1 ZINC000049605641    0.1400
65     H65    10.4519  -12.9825    0.5850 H        1 ZINC000049605641    0.1500
66     H66     9.4172   -8.8721   -1.2463 H        1 ZINC000049605641    0.1600
67     H67     8.0933   -7.6422    0.4217 H        1 ZINC000049605641    0.1400
68     H68     3.5054   -9.6629    6.2596 H        1 ZINC000049605641    0.0800
69     H69     4.4646   -8.1681    6.3785 H        1 ZINC000049605641    0.0800
70     H70     2.5571   -7.0320    7.4828 H        1 ZINC000049605641    0.0500
71     H71     1.5980   -8.5268    7.3639 H        1 ZINC000049605641    0.0600
72     H72     3.0508   -8.4808    8.3914 H        1 ZINC000049605641    0.0700
73     H73     3.9213   -6.2106    5.0016 H        1 ZINC000049605641    0.1300
74     H74     2.3286   -6.1392    5.7919 H        1 ZINC000049605641    0.1300
@<TRIPOS>BOND
1     1     2     1
2     1     36    1
3     1     37    1
4     1     38    1
5     2     3     1
6     2     39    1
7     2     40    1
8     3     4     1
9     3     41    1
10    3     42    1
11    4     5     1
12    4     43    1
13    4     44    1
14    5     6     1
15    5     45    1
16    5     46    1
17    6     7     1
18    6     47    1
19    6     48    1
20    7     8     1
21    7     49    1
22    7     50    1
23    8     9     1
24    8     35    1
25    8     10    1
26    10    11    1
27    10    51    1
28    10    52    1
29    11    12    1
30    11    53    1
31    11    54    1
32    12    13    1
33    12    14    1
34    12    31    1
35    14    15    1
36    14    55    1
37    14    56    1
38    15    16    1
39    15    57    1
40    15    58    1
41    16    17    1
42    16    18    1
43    16    19    1
44    18    59    1
45    19    30    ar
46    19    20    ar
47    20    27    ar
48    20    21    ar
49    21    22    ar
50    21    60    1
51    22    23    1
52    22    25    ar
53    23    24    1
54    24    61    1
55    24    62    1
56    24    63    1
57    25    26    ar
58    25    64    1
59    26    27    ar
60    26    65    1
61    27    28    ar
62    28    29    ar
63    29    30    ar
64    29    66    1
65    30    67    1
66    31    32    1
67    31    33    1
68    31    35    1
69    33    34    1
70    33    68    1
71    33    69    1
72    34    70    1
73    34    71    1
74    34    72    1
75    35    73    1
76    35    74    1
@<TRIPOS>SUBSTRUCTURE
1   ZINC000049605641 1     RESIDUE    1   A     ZIN   1
