@<TRIPOS>MOLECULE
ZINC000026981703
79    80    1     0     0
SMALL
USER_CHARGES
@<TRIPOS>ATOM
1      C1     -4.1704    4.8621    3.0658 C.3      1 ZINC000026981703   -0.1500
2      C2     -3.9872    3.3731    3.3660 C.3      1 ZINC000026981703   -0.1300
3      C3     -5.0193    2.5634    2.5785 C.3      1 ZINC000026981703   -0.1000
4      C4     -4.8361    1.0744    2.8786 C.3      1 ZINC000026981703   -0.1100
5      C5     -5.1517    0.8085    4.3519 C.3      1 ZINC000026981703   -0.1100
6      C6     -6.5949    1.2222    4.6470 C.3      1 ZINC000026981703   -0.1300
7      C7     -6.9020    0.9815    6.1264 C.3      1 ZINC000026981703   -0.1500
8      C8     -5.7691    0.2687    2.0117 C.2      1 ZINC000026981703    0.5200
9      O9     -6.5199    0.8311    1.2430 O.2      1 ZINC000026981703   -0.5400
10     N10    -5.7691   -1.0767    2.0906 N.am     1 ZINC000026981703   -0.7100
11     C11    -6.7503   -1.8551    1.3306 C.3      1 ZINC000026981703    0.1500
12     H12    -7.6844   -1.2972    1.2647 H        1 ZINC000026981703    0.1200
13     C13    -6.2127   -2.1176   -0.0776 C.3      1 ZINC000026981703   -0.1300
14     C14    -4.9030   -2.8574    0.0145 C.2      1 ZINC000026981703    0.4500
15     O15    -4.4409   -3.1353    1.0958 O.2      1 ZINC000026981703   -0.4700
16     O16    -4.2499   -3.2076   -1.1046 O.3      1 ZINC000026981703   -0.3600
17     C17    -2.9943   -3.9181   -0.9401 C.3      1 ZINC000026981703    0.0400
18     C18    -6.9977   -3.1685    2.0267 C.2      1 ZINC000026981703    0.5300
19     O19    -6.1849   -3.5981    2.8178 O.2      1 ZINC000026981703   -0.4800
20     N20    -8.1222   -3.8658    1.7703 N.am     1 ZINC000026981703   -0.6100
21     C21    -9.1281   -3.5280    0.7468 C.3      1 ZINC000026981703    0.0900
22     C22    -9.8291   -4.8705    0.4214 C.3      1 ZINC000026981703   -0.1300
23     C23    -9.8738   -5.5451    1.8179 C.3      1 ZINC000026981703   -0.1200
24     C24    -8.5458   -5.0928    2.4606 C.3      1 ZINC000026981703    0.1200
25     H25    -8.6989   -4.8826    3.5191 H        1 ZINC000026981703    0.1000
26     C26    -7.5045   -6.1700    2.2976 C.2      1 ZINC000026981703    0.5100
27     O27    -6.4907   -5.9436    1.6717 O.2      1 ZINC000026981703   -0.5000
28     N28    -7.7000   -7.3849    2.8473 N.am     1 ZINC000026981703   -0.7300
29     C29    -6.6878   -8.4321    2.6888 C.3      1 ZINC000026981703    0.1500
30     H30    -6.2244   -8.3444    1.7061 H        1 ZINC000026981703    0.1000
31     C31    -5.6189   -8.2775    3.7731 C.3      1 ZINC000026981703   -0.1400
32     C32    -4.5437   -9.3509    3.5886 C.3      1 ZINC000026981703   -0.1400
33     C33    -5.1811  -10.7365    3.7320 C.3      1 ZINC000026981703    0.1100
34     N34    -6.3047  -10.8398    2.7910 N.pl3    1 ZINC000026981703   -0.6300
35     C35    -6.3769  -11.8778    1.9031 C.cat    1 ZINC000026981703    0.7500
36     N36    -5.9785  -13.0953    2.2680 N.pl3    1 ZINC000026981703   -0.7900
37     N37    -6.8457  -11.6712    0.6736 N.pl3    1 ZINC000026981703   -0.7800
38     H38    -7.0440  -10.7697    0.3753 H        1 ZINC000026981703    0.4500
39     H39    -6.9889  -12.4221    0.0766 H        1 ZINC000026981703    0.4300
40     C40    -7.3496   -9.8073    2.8213 C.3      1 ZINC000026981703    0.3200
41     H41    -7.8904   -9.8622    3.7661 H        1 ZINC000026981703    0.1100
42     O42    -8.2576  -10.0126    1.7371 O.3      1 ZINC000026981703   -0.5500
43     H43    -3.4351    5.4390    3.6269 H        1 ZINC000026981703    0.0500
44     H44    -4.0323    5.0374    1.9989 H        1 ZINC000026981703    0.0500
45     H45    -5.1741    5.1709    3.3579 H        1 ZINC000026981703    0.0500
46     H46    -2.9835    3.0644    3.0739 H        1 ZINC000026981703    0.0600
47     H47    -4.1253    3.1979    4.4329 H        1 ZINC000026981703    0.0600
48     H48    -6.0230    2.8721    2.8705 H        1 ZINC000026981703    0.0700
49     H49    -4.8812    2.7386    1.5115 H        1 ZINC000026981703    0.0700
50     H50    -3.8060    0.7856    2.6699 H        1 ZINC000026981703    0.1000
51     H51    -5.0275   -0.2534    4.5642 H        1 ZINC000026981703    0.0700
52     H52    -4.4727    1.3862    4.9789 H        1 ZINC000026981703    0.0800
53     H53    -6.7241    2.2797    4.4165 H        1 ZINC000026981703    0.0700
54     H54    -7.2750    0.6309    4.0339 H        1 ZINC000026981703    0.0600
55     H55    -7.9302    1.2762    6.3367 H        1 ZINC000026981703    0.0500
56     H56    -6.7729   -0.0760    6.3569 H        1 ZINC000026981703    0.0500
57     H57    -6.2219    1.5727    6.7396 H        1 ZINC000026981703    0.0600
58     H58    -5.1195   -1.5297    2.6507 H        1 ZINC000026981703    0.4200
59     H59    -6.9312   -2.7189   -0.6346 H        1 ZINC000026981703    0.1100
60     H60    -6.0584   -1.1682   -0.5905 H        1 ZINC000026981703    0.1300
61     H61    -2.5717   -4.1406   -1.9199 H        1 ZINC000026981703    0.1000
62     H62    -2.2973   -3.2983   -0.3760 H        1 ZINC000026981703    0.0600
63     H63    -3.1713   -4.8487   -0.4009 H        1 ZINC000026981703    0.0600
64     H64    -9.8470   -2.8111    1.1435 H        1 ZINC000026981703    0.0800
65     H65    -8.6435   -3.1274   -0.1436 H        1 ZINC000026981703    0.0800
66     H66   -10.8348   -4.7028    0.0361 H        1 ZINC000026981703    0.1000
67     H67    -9.2375   -5.4605   -0.2787 H        1 ZINC000026981703    0.0800
68     H68   -10.7270   -5.1851    2.3929 H        1 ZINC000026981703    0.1000
69     H69    -9.9029   -6.6304    1.7212 H        1 ZINC000026981703    0.0900
70     H70    -8.5109   -7.5660    3.3479 H        1 ZINC000026981703    0.4000
71     H71    -5.1634   -7.2902    3.6960 H        1 ZINC000026981703    0.1000
72     H72    -6.0788   -8.3893    4.7550 H        1 ZINC000026981703    0.0800
73     H73    -4.1004   -9.2552    2.5974 H        1 ZINC000026981703    0.0800
74     H74    -3.7707   -9.2257    4.3469 H        1 ZINC000026981703    0.1000
75     H75    -4.4417  -11.5042    3.5040 H        1 ZINC000026981703    0.1000
76     H76    -5.5448  -10.8676    4.7512 H        1 ZINC000026981703    0.1000
77     H77    -5.7108  -13.2634    3.1851 H        1 ZINC000026981703    0.4400
78     H78    -5.9560  -13.8138    1.6167 H        1 ZINC000026981703    0.4400
79     H79    -8.7782  -10.8243    1.8084 H        1 ZINC000026981703    0.3900
@<TRIPOS>BOND
1     1     2     1
2     1     43    1
3     1     44    1
4     1     45    1
5     2     3     1
6     2     46    1
7     2     47    1
8     3     4     1
9     3     48    1
10    3     49    1
11    4     5     1
12    4     8     1
13    4     50    1
14    5     6     1
15    5     51    1
16    5     52    1
17    6     7     1
18    6     53    1
19    6     54    1
20    7     55    1
21    7     56    1
22    7     57    1
23    8     9     2
24    8     10    am
25    10    11    1
26    10    58    1
27    11    12    1
28    11    13    1
29    11    18    1
30    13    14    1
31    13    59    1
32    13    60    1
33    14    15    2
34    14    16    1
35    16    17    1
36    17    61    1
37    17    62    1
38    17    63    1
39    18    19    2
40    18    20    am
41    20    24    1
42    20    21    1
43    21    22    1
44    21    64    1
45    21    65    1
46    22    23    1
47    22    66    1
48    22    67    1
49    23    24    1
50    23    68    1
51    23    69    1
52    24    25    1
53    24    26    1
54    26    27    2
55    26    28    am
56    28    29    1
57    28    70    1
58    29    30    1
59    29    40    1
60    29    31    1
61    31    32    1
62    31    71    1
63    31    72    1
64    32    33    1
65    32    73    1
66    32    74    1
67    33    34    1
68    33    75    1
69    33    76    1
70    34    35    ar
71    34    40    1
72    35    36    ar
73    35    37    ar
74    36    77    1
75    36    78    1
76    37    38    1
77    37    39    1
78    40    41    1
79    40    42    1
80    42    79    1
@<TRIPOS>SUBSTRUCTURE
1   ZINC000026981703 1     RESIDUE    1   A     ZIN   1
