@<TRIPOS>MOLECULE
ZINC000256335405
49    52    1     0     0
SMALL
USER_CHARGES
@<TRIPOS>ATOM
1      C1     -0.0186    1.5236    0.0104 C.3      1 ZINC000256335405   -0.1500
2      C2      0.0021   -0.0041    0.0020 C.3      1 ZINC000256335405   -0.0800
3      H3      0.5150   -0.3456   -0.8998 H        1 ZINC000256335405    0.0700
4      C4     -1.4427   -0.5016   -0.0442 C.3      1 ZINC000256335405   -0.0900
5      C5     -2.1256   -0.0073    1.2170 C.2      1 ZINC000256335405   -0.0100
6      C6     -3.2627    0.6773    1.0892 C.2      1 ZINC000256335405   -0.2500
7      C7     -3.9597    1.1813    2.2778 C.2      1 ZINC000256335405    0.3900
8      O8     -4.8003    2.0539    2.1984 O.2      1 ZINC000256335405   -0.4600
9      C9     -3.5830    0.5649    3.6106 C.3      1 ZINC000256335405   -0.1700
10     C10    -2.0538    0.5197    3.6766 C.3      1 ZINC000256335405   -0.1100
11     C11    -1.4964   -0.3141    2.5333 C.3      1 ZINC000256335405   -0.0500
12     H12    -1.8085   -1.3450    2.7621 H        1 ZINC000256335405    0.0800
13     C13     0.0024   -0.3482    2.5341 C.3      1 ZINC000256335405   -0.0700
14     H14     0.2283   -1.2679    3.1081 H        1 ZINC000256335405    0.0600
15     C15     0.6570    0.7553    3.3592 C.3      1 ZINC000256335405   -0.1200
16     C16     2.0460    0.2846    3.8301 C.3      1 ZINC000256335405   -0.1000
17     C17     2.7657   -0.3727    2.6745 C.3      1 ZINC000256335405   -0.0500
18     C18     2.7696   -1.8929    2.8405 C.3      1 ZINC000256335405   -0.1400
19     C19     4.2163    0.0922    2.4640 C.3      1 ZINC000256335405    0.1000
20     H20     4.8875   -0.4655    3.1095 H        1 ZINC000256335405    0.0600
21     O21     4.3295    1.4953    2.6954 O.3      1 ZINC000256335405   -0.5600
22     C22     4.5003   -0.2277    0.9751 C.3      1 ZINC000256335405   -0.1600
23     C23     3.1238   -0.4770    0.3057 C.3      1 ZINC000256335405   -0.1200
24     C24     2.1119    0.0522    1.3367 C.3      1 ZINC000256335405   -0.0800
25     H25     2.0844    1.1473    1.2916 H        1 ZINC000256335405    0.0900
26     C26     0.7222   -0.5535    1.2199 C.3      1 ZINC000256335405   -0.0500
27     H27     0.8258   -1.6407    1.0620 H        1 ZINC000256335405    0.0700
28     H28     1.0039    1.9009    0.0027 H        1 ZINC000256335405    0.0600
29     H29    -0.5458    1.8847   -0.8726 H        1 ZINC000256335405    0.0500
30     H30    -0.5288    1.8752    0.9072 H        1 ZINC000256335405    0.0600
31     H31    -1.9419   -0.0925   -0.9207 H        1 ZINC000256335405    0.0800
32     H32    -1.4558   -1.5882   -0.0739 H        1 ZINC000256335405    0.0800
33     H33    -3.6734    0.8622    0.1072 H        1 ZINC000256335405    0.1300
34     H34    -3.9700    1.1737    4.4263 H        1 ZINC000256335405    0.0900
35     H35    -3.9834   -0.4464    3.6773 H        1 ZINC000256335405    0.1000
36     H36    -1.6685    1.5348    3.6030 H        1 ZINC000256335405    0.0700
37     H37    -1.7512    0.0778    4.6241 H        1 ZINC000256335405    0.0800
38     H38     0.7605    1.6595    2.7632 H        1 ZINC000256335405    0.0700
39     H39     0.0478    0.9752    4.2382 H        1 ZINC000256335405    0.0700
40     H40     2.6143    1.1425    4.1945 H        1 ZINC000256335405    0.0800
41     H41     1.9268   -0.4316    4.6477 H        1 ZINC000256335405    0.0600
42     H42     1.7430   -2.2589    2.8590 H        1 ZINC000256335405    0.0600
43     H43     3.3027   -2.3481    2.0059 H        1 ZINC000256335405    0.0600
44     H44     3.2657   -2.1551    3.7750 H        1 ZINC000256335405    0.0600
45     H45     5.2241    1.8426    2.5765 H        1 ZINC000256335405    0.3800
46     H46     4.9983    0.6173    0.5012 H        1 ZINC000256335405    0.0700
47     H47     5.1206   -1.1196    0.8978 H        1 ZINC000256335405    0.0700
48     H48     3.0471    0.0898   -0.6251 H        1 ZINC000256335405    0.0600
49     H49     2.9697   -1.5368    0.1109 H        1 ZINC000256335405    0.0700
@<TRIPOS>BOND
1     1     2     1
2     1     28    1
3     1     29    1
4     1     30    1
5     2     3     1
6     2     26    1
7     2     4     1
8     4     5     1
9     4     31    1
10    4     32    1
11    5     11    1
12    5     6     2
13    6     7     1
14    6     33    1
15    7     8     2
16    7     9     1
17    9     10    1
18    9     34    1
19    9     35    1
20    10    11    1
21    10    36    1
22    10    37    1
23    11    12    1
24    11    13    1
25    13    14    1
26    13    26    1
27    13    15    1
28    15    16    1
29    15    38    1
30    15    39    1
31    16    17    1
32    16    40    1
33    16    41    1
34    17    24    1
35    17    18    1
36    17    19    1
37    18    42    1
38    18    43    1
39    18    44    1
40    19    20    1
41    19    21    1
42    19    22    1
43    21    45    1
44    22    23    1
45    22    46    1
46    22    47    1
47    23    24    1
48    23    48    1
49    23    49    1
50    24    25    1
51    24    26    1
52    26    27    1
@<TRIPOS>SUBSTRUCTURE
1   ZINC000256335405 1     RESIDUE    1   A     ZIN   1
