@<TRIPOS>MOLECULE
ZINC000000331902
15    16    1     0     0
SMALL
USER_CHARGES
@<TRIPOS>ATOM
1      C1     -0.0164    1.3562    0.0095 C.2      1 ZINC000000331902    0.2600
2      N2      1.1992    1.8200    0.0004 N.2      1 ZINC000000331902   -0.5000
3      C3      2.0816    0.7880   -0.0136 C.ar     1 ZINC000000331902    0.0400
4      C4      3.4765    0.7131   -0.0273 C.ar     1 ZINC000000331902   -0.0600
5      C5      4.0927   -0.5063   -0.0397 C.ar     1 ZINC000000331902   -0.1300
6      C6      3.3469   -1.6762   -0.0389 C.ar     1 ZINC000000331902   -0.1000
7      C7      1.9689   -1.6264   -0.0259 C.ar     1 ZINC000000331902   -0.1100
8      C8      1.3256   -0.3967   -0.0127 C.ar     1 ZINC000000331902    0.0400
9      N9      0.0021   -0.0041    0.0020 N.pl3    1 ZINC000000331902   -0.6000
10     H10    -0.9099    1.9627    0.0254 H        1 ZINC000000331902    0.2200
11     H11     4.0668    1.6175   -0.0284 H        1 ZINC000000331902    0.1300
12     H12     5.1713   -0.5601   -0.0507 H        1 ZINC000000331902    0.1300
13     H13     3.8490   -2.6323   -0.0488 H        1 ZINC000000331902    0.1300
14     H14     1.3931   -2.5401   -0.0261 H        1 ZINC000000331902    0.1200
15     H15    -0.7713   -0.5896    0.0063 H        1 ZINC000000331902    0.4200
@<TRIPOS>BOND
1     1     9     1
2     1     2     2
3     1     10    1
4     2     3     1
5     3     8     ar
6     3     4     ar
7     4     5     ar
8     4     11    1
9     5     6     ar
10    5     12    1
11    6     7     ar
12    6     13    1
13    7     8     ar
14    7     14    1
15    8     9     1
16    9     15    1
@<TRIPOS>SUBSTRUCTURE
1   ZINC000000331902 1     RESIDUE    1   A     ZIN   1
