@<TRIPOS>MOLECULE
ZINC000000000860
44    46    1     0     0
SMALL
USER_CHARGES
@<TRIPOS>ATOM
1      C1     -0.5586    0.8032    0.0052 C.3      1 ZINC000000000860    0.0200
2      O2      0.3479   -0.2611   -0.2906 O.3      1 ZINC000000000860   -0.3000
3      C3      0.9962   -0.8283    0.7589 C.ar     1 ZINC000000000860    0.2100
4      C4      0.7570   -0.3697    2.0500 C.ar     1 ZINC000000000860   -0.2500
5      C5      1.4096   -0.9387    3.1200 C.ar     1 ZINC000000000860    0.0000
6      C6      2.3174   -1.9825    2.9096 C.ar     1 ZINC000000000860   -0.2000
7      C7      3.0162   -2.5935    4.0482 C.2      1 ZINC000000000860    0.1000
8      C8      3.4382   -1.8238    5.0723 C.2      1 ZINC000000000860   -0.2300
9      C9      3.3491   -0.3116    5.0097 C.3      1 ZINC000000000860   -0.0900
10     C10     4.6421    0.2387    5.6308 C.3      1 ZINC000000000860   -0.1400
11     C11     4.7358   -0.2340    7.0804 C.3      1 ZINC000000000860    0.0600
12     N12     4.5939   -1.6791    7.1830 N.2      1 ZINC000000000860   -0.5600
13     H13     4.9645   -2.1175    7.9649 H        1 ZINC000000000860    0.4300
14     C14     3.9971   -2.4193    6.2960 C.2      1 ZINC000000000860    0.4300
15     C15     3.8898   -3.8817    6.5153 C.ar     1 ZINC000000000860   -0.2100
16     C16     2.7429   -4.5771    6.1206 C.ar     1 ZINC000000000860   -0.0100
17     C17     2.6919   -5.9417    6.3477 C.ar     1 ZINC000000000860   -0.1700
18     C18     3.7668   -6.5676    6.9521 C.ar     1 ZINC000000000860    0.1600
19     N19     4.8363   -5.8850    7.3139 N.ar     1 ZINC000000000860   -0.4700
20     C20     4.9332   -4.5869    7.1134 C.ar     1 ZINC000000000860    0.1600
21     C21     2.5573   -2.4439    1.6045 C.ar     1 ZINC000000000860    0.2200
22     O22     3.4360   -3.4559    1.3904 O.3      1 ZINC000000000860   -0.3100
23     C23     3.6290   -3.8722    0.0371 C.3      1 ZINC000000000860    0.0200
24     C24     1.8902   -1.8667    0.5390 C.ar     1 ZINC000000000860   -0.2500
25     H25    -0.0185    1.6164    0.4900 H        1 ZINC000000000860    0.0600
26     H26    -1.0076    1.1656   -0.9195 H        1 ZINC000000000860    0.1100
27     H27    -1.3413    0.4393    0.6709 H        1 ZINC000000000860    0.0600
28     H28     0.0568    0.4362    2.2136 H        1 ZINC000000000860    0.1400
29     H29     1.2215   -0.5796    4.1211 H        1 ZINC000000000860    0.1400
30     H30     3.1920   -3.6590    4.0653 H        1 ZINC000000000860    0.1400
31     H31     3.2667    0.0137    3.9727 H        1 ZINC000000000860    0.1100
32     H32     2.4863    0.0342    5.5790 H        1 ZINC000000000860    0.0900
33     H33     5.5016   -0.1295    5.0706 H        1 ZINC000000000860    0.0900
34     H34     4.6256    1.3282    5.6025 H        1 ZINC000000000860    0.1100
35     H35     5.7034    0.0584    7.4882 H        1 ZINC000000000860    0.1300
36     H36     3.9470    0.2432    7.6620 H        1 ZINC000000000860    0.1200
37     H37     1.9176   -4.0627    5.6508 H        1 ZINC000000000860    0.1500
38     H38     1.8218   -6.5114    6.0564 H        1 ZINC000000000860    0.1600
39     H39     3.7301   -7.6321    7.1311 H        1 ZINC000000000860    0.1800
40     H40     5.8251   -4.0626    7.4232 H        1 ZINC000000000860    0.1700
41     H41     4.3541   -4.6855    0.0071 H        1 ZINC000000000860    0.1100
42     H42     2.6807   -4.2155   -0.3762 H        1 ZINC000000000860    0.0700
43     H43     3.9995   -3.0332   -0.5518 H        1 ZINC000000000860    0.0700
44     H44     2.0716   -2.2189   -0.4658 H        1 ZINC000000000860    0.1500
@<TRIPOS>BOND
1     1     2     1
2     1     25    1
3     1     26    1
4     1     27    1
5     2     3     1
6     3     24    ar
7     3     4     ar
8     4     5     ar
9     4     28    1
10    5     6     ar
11    5     29    1
12    6     7     1
13    6     21    ar
14    7     8     2
15    7     30    1
16    8     14    1
17    8     9     1
18    9     10    1
19    9     31    1
20    9     32    1
21    10    11    1
22    10    33    1
23    10    34    1
24    11    12    1
25    11    35    1
26    11    36    1
27    12    13    1
28    12    14    2
29    14    15    1
30    15    20    ar
31    15    16    ar
32    16    17    ar
33    16    37    1
34    17    18    ar
35    17    38    1
36    18    19    ar
37    18    39    1
38    19    20    ar
39    20    40    1
40    21    22    1
41    21    24    ar
42    22    23    1
43    23    41    1
44    23    42    1
45    23    43    1
46    24    44    1
@<TRIPOS>SUBSTRUCTURE
1   ZINC000000000860 1     RESIDUE    1   A     ZIN   1
