@<TRIPOS>MOLECULE
ZINC000095574576
64    67    1     0     0
SMALL
USER_CHARGES
@<TRIPOS>ATOM
1      C1     -0.2051    1.3052   -0.0214 C.3      1 ZINC000095574576   -0.1300
2      C2     -0.1744   -0.2239   -0.0621 C.3      1 ZINC000095574576   -0.0500
3      C3     -1.5949   -0.7847   -0.1549 C.3      1 ZINC000095574576   -0.1300
4      C4      0.6661   -0.7065   -1.2249 C.2      1 ZINC000095574576    0.5500
5      O5      0.4594   -0.4929   -2.4002 O.2      1 ZINC000095574576   -0.4800
6      N6      1.6846   -1.4157   -0.7099 N.am     1 ZINC000095574576   -0.5100
7      C7      2.6432   -2.0033   -1.4532 C.2      1 ZINC000095574576    0.7000
8      O8      3.5338   -2.6287   -0.9121 O.2      1 ZINC000095574576   -0.5400
9      N9      2.6141   -1.8972   -2.7965 N.am     1 ZINC000095574576   -0.7300
10     C10     3.6560   -2.5359   -3.6044 C.3      1 ZINC000095574576    0.1300
11     C11     3.3905   -2.2640   -5.0864 C.3      1 ZINC000095574576   -0.1100
12     C12     3.5356   -0.7654   -5.3662 C.3      1 ZINC000095574576   -0.1500
13     C13     3.3473   -0.5110   -6.8634 C.3      1 ZINC000095574576   -0.0100
14     N14     4.3628   -1.2523   -7.6208 N.4      1 ZINC000095574576   -0.3800
15     H15     5.2817   -0.9794   -7.3057 H        1 ZINC000095574576    0.4200
16     C16     4.2259   -0.9452   -9.0508 C.3      1 ZINC000095574576    0.0100
17     C17     5.2640   -1.7407   -9.8449 C.3      1 ZINC000095574576    0.1100
18     O18     4.9380   -3.1313   -9.7991 O.3      1 ZINC000095574576   -0.5500
19     C19     5.2728   -1.2622  -11.3000 C.3      1 ZINC000095574576   -0.1800
20     C20     6.3677   -2.0078  -12.0675 C.3      1 ZINC000095574576    0.0500
21     O21     7.6285   -1.7850  -11.4329 O.3      1 ZINC000095574576   -0.3700
22     C22     7.6945   -2.2553  -10.0851 C.3      1 ZINC000095574576    0.0600
23     C23     6.6529   -1.5197   -9.2379 C.3      1 ZINC000095574576   -0.2000
24     C24     4.1845   -2.6945   -7.4138 C.3      1 ZINC000095574576   -0.0200
25     C25     4.4050   -3.0328   -5.9379 C.3      1 ZINC000095574576   -0.1400
26     C26     1.6354   -1.4733    0.6862 C.ar     1 ZINC000095574576    0.1500
27     C27     2.4813   -2.0933    1.6020 C.ar     1 ZINC000095574576   -0.1400
28     C28     2.2196   -2.0073    2.9564 C.ar     1 ZINC000095574576    0.1300
29     F29     3.0438   -2.6114    3.8401 F        1 ZINC000095574576   -0.1300
30     C30     1.1168   -1.3043    3.4118 C.ar     1 ZINC000095574576   -0.1500
31     C31     0.2732   -0.6859    2.5057 C.ar     1 ZINC000095574576   -0.0400
32     C32     0.5324   -0.7717    1.1563 C.ar     1 ZINC000095574576   -0.1300
33     H33     0.8150    1.6887   -0.0016 H        1 ZINC000095574576    0.0600
34     H34    -0.7178    1.6820   -0.9065 H        1 ZINC000095574576    0.0800
35     H35    -0.7344    1.6344    0.8728 H        1 ZINC000095574576    0.0800
36     H36    -2.0771   -0.4056   -1.0559 H        1 ZINC000095574576    0.0800
37     H37    -1.5539   -1.8732   -0.1954 H        1 ZINC000095574576    0.0600
38     H38    -2.1657   -0.4750    0.7205 H        1 ZINC000095574576    0.0800
39     H39     1.9033   -1.3980   -3.2283 H        1 ZINC000095574576    0.4100
40     H40     4.6293   -2.1296   -3.3292 H        1 ZINC000095574576    0.0800
41     H41     3.6471   -3.6109   -3.4249 H        1 ZINC000095574576    0.0800
42     H42     2.3813   -2.5876   -5.3412 H        1 ZINC000095574576    0.1000
43     H43     2.7795   -0.2156   -4.8057 H        1 ZINC000095574576    0.1100
44     H44     4.5282   -0.4329   -5.0626 H        1 ZINC000095574576    0.0900
45     H45     2.3543   -0.8437   -7.1659 H        1 ZINC000095574576    0.1300
46     H46     3.4497    0.5550   -7.0660 H        1 ZINC000095574576    0.1300
47     H47     3.2252   -1.2171   -9.3867 H        1 ZINC000095574576    0.1400
48     H48     4.3855    0.1211   -9.2104 H        1 ZINC000095574576    0.1400
49     H49     5.5559   -3.6962  -10.2830 H        1 ZINC000095574576    0.4000
50     H50     4.3043   -1.4666  -11.7565 H        1 ZINC000095574576    0.1000
51     H51     5.4719   -0.1910  -11.3300 H        1 ZINC000095574576    0.0900
52     H52     6.1463   -3.0751  -12.0716 H        1 ZINC000095574576    0.0600
53     H53     6.4070   -1.6407  -13.0931 H        1 ZINC000095574576    0.1100
54     H54     7.4904   -3.3258  -10.0632 H        1 ZINC000095574576    0.0600
55     H55     8.6896   -2.0665   -9.6825 H        1 ZINC000095574576    0.1100
56     H56     6.8799   -0.4537   -9.2262 H        1 ZINC000095574576    0.1000
57     H57     6.6714   -1.9082   -8.2196 H        1 ZINC000095574576    0.0800
58     H58     3.1737   -2.9805   -7.7046 H        1 ZINC000095574576    0.1300
59     H59     4.9050   -3.2403   -8.0228 H        1 ZINC000095574576    0.1700
60     H60     5.4157   -2.7474   -5.6461 H        1 ZINC000095574576    0.0900
61     H61     4.2704   -4.1038   -5.7859 H        1 ZINC000095574576    0.1200
62     H62     3.3432   -2.6428    1.2533 H        1 ZINC000095574576    0.1600
63     H63     0.9155   -1.2393    4.4709 H        1 ZINC000095574576    0.1500
64     H64    -0.5881   -0.1370    2.8568 H        1 ZINC000095574576    0.1500
@<TRIPOS>BOND
1     1     2     1
2     1     33    1
3     1     34    1
4     1     35    1
5     2     32    1
6     2     3     1
7     2     4     1
8     3     36    1
9     3     37    1
10    3     38    1
11    4     5     2
12    4     6     am
13    6     7     am
14    6     26    1
15    7     8     2
16    7     9     am
17    9     10    1
18    9     39    1
19    10    11    1
20    10    40    1
21    10    41    1
22    11    25    1
23    11    12    1
24    11    42    1
25    12    13    1
26    12    43    1
27    12    44    1
28    13    14    1
29    13    45    1
30    13    46    1
31    14    15    1
32    14    16    1
33    14    24    1
34    16    17    1
35    16    47    1
36    16    48    1
37    17    23    1
38    17    18    1
39    17    19    1
40    18    49    1
41    19    20    1
42    19    50    1
43    19    51    1
44    20    21    1
45    20    52    1
46    20    53    1
47    21    22    1
48    22    23    1
49    22    54    1
50    22    55    1
51    23    56    1
52    23    57    1
53    24    25    1
54    24    58    1
55    24    59    1
56    25    60    1
57    25    61    1
58    26    32    ar
59    26    27    ar
60    27    28    ar
61    27    62    1
62    28    29    1
63    28    30    ar
64    30    31    ar
65    30    63    1
66    31    32    ar
67    31    64    1
@<TRIPOS>SUBSTRUCTURE
1   ZINC000095574576 1     RESIDUE    1   A     ZIN   1
