@<TRIPOS>MOLECULE
ZINC000003882444
42    45    1     0     0
SMALL
USER_CHARGES
@<TRIPOS>ATOM
1      N1     -4.8009    3.9566    0.9372 N.4      1 ZINC000003882444   -0.6300
2      H2     -4.1100    4.0993    0.2158 H        1 ZINC000003882444    0.4300
3      H3     -5.1313    4.8508    1.2679 H        1 ZINC000003882444    0.4400
4      H4     -5.5752    3.4297    0.5619 H        1 ZINC000003882444    0.4400
5      C5     -4.1982    3.2143    2.0524 C.3      1 ZINC000003882444    0.0000
6      H6     -4.9327    3.0388    2.8384 H        1 ZINC000003882444    0.1600
7      C7     -3.5945    1.8740    1.5565 C.3      1 ZINC000003882444   -0.1400
8      C8     -2.4947    1.6151    2.6162 C.3      1 ZINC000003882444    0.0400
9      N9     -1.9458    2.9527    2.9252 N.3      1 ZINC000003882444   -0.4700
10     C10    -1.5585    3.0371    4.2612 C.ar     1 ZINC000003882444    0.0900
11     C11    -2.5173    2.9153    5.2695 C.ar     1 ZINC000003882444    0.0100
12     F12    -3.8134    2.7166    4.9442 F        1 ZINC000003882444   -0.1400
13     C13    -2.1506    2.9958    6.5834 C.ar     1 ZINC000003882444   -0.0400
14     C14    -0.8104    3.2009    6.9192 C.ar     1 ZINC000003882444   -0.1600
15     C15    -0.3850    3.2913    8.3260 C.2      1 ZINC000003882444    0.4100
16     O16    -1.1859    3.1905    9.2392 O.2      1 ZINC000003882444   -0.4300
17     C17     1.0492    3.5083    8.5835 C.2      1 ZINC000003882444   -0.2800
18     C18     1.5529    3.6092    9.9570 C.2      1 ZINC000003882444    0.5400
19     O19     2.7466    3.7896   10.1594 O.co2    1 ZINC000003882444   -0.6900
20     O20     0.7796    3.5131   10.9011 O.co2    1 ZINC000003882444   -0.6600
21     C21     1.9120    3.6147    7.5094 C.2      1 ZINC000003882444    0.1500
22     N22     1.4874    3.5276    6.2434 N.pl3    1 ZINC000003882444   -0.4600
23     C23     2.4701    3.6516    5.1640 C.3      1 ZINC000003882444    0.0300
24     C24     3.9383    3.3994    5.5129 C.3      1 ZINC000003882444   -0.1800
25     C25     3.1609    2.3724    4.6871 C.3      1 ZINC000003882444   -0.1700
26     C26     0.1636    3.3250    5.9114 C.ar     1 ZINC000003882444    0.2200
27     C27    -0.2236    3.2357    4.5790 C.ar     1 ZINC000003882444   -0.0400
28     Cl28    0.9599    3.3788    3.3171 Cl       1 ZINC000003882444   -0.0200
29     C29    -2.9720    3.9675    2.6098 C.3      1 ZINC000003882444    0.0300
30     H30    -4.3422    1.0810    1.5681 H        1 ZINC000003882444    0.1100
31     H31    -3.1608    1.9851    0.5627 H        1 ZINC000003882444    0.1000
32     H32    -2.9274    1.1667    3.5105 H        1 ZINC000003882444    0.0800
33     H33    -1.7167    0.9711    2.2062 H        1 ZINC000003882444    0.1100
34     H34    -2.8951    2.9015    7.3600 H        1 ZINC000003882444    0.1600
35     H35     2.9634    3.7738    7.6979 H        1 ZINC000003882444    0.1800
36     H36     2.2540    4.4153    4.4169 H        1 ZINC000003882444    0.1500
37     H37     4.6885    3.9974    4.9954 H        1 ZINC000003882444    0.1100
38     H38     4.1731    3.1412    6.5455 H        1 ZINC000003882444    0.1100
39     H39     2.8842    1.4386    5.1765 H        1 ZINC000003882444    0.1000
40     H40     3.3996    2.2947    3.6264 H        1 ZINC000003882444    0.1100
41     H41    -2.5911    4.6589    1.8581 H        1 ZINC000003882444    0.1000
42     H42    -3.2448    4.5124    3.5136 H        1 ZINC000003882444    0.1000
@<TRIPOS>BOND
1     1     2     1
2     1     3     1
3     1     4     1
4     1     5     1
5     5     6     1
6     5     29    1
7     5     7     1
8     7     8     1
9     7     30    1
10    7     31    1
11    8     9     1
12    8     32    1
13    8     33    1
14    9     10    1
15    9     29    1
16    10    27    ar
17    10    11    ar
18    11    12    1
19    11    13    ar
20    13    14    ar
21    13    34    1
22    14    26    ar
23    14    15    1
24    15    16    2
25    15    17    1
26    17    18    1
27    17    21    2
28    18    19    ar
29    18    20    ar
30    21    22    1
31    21    35    1
32    22    23    1
33    22    26    1
34    23    25    1
35    23    24    1
36    23    36    1
37    24    25    1
38    24    37    1
39    24    38    1
40    25    39    1
41    25    40    1
42    26    27    ar
43    27    28    1
44    29    41    1
45    29    42    1
@<TRIPOS>SUBSTRUCTURE
1   ZINC000003882444 1     RESIDUE    1   A     ZIN   1
