@<TRIPOS>MOLECULE
ZINC000043195311
52    55    1     0     0
SMALL
USER_CHARGES
@<TRIPOS>ATOM
1      C1     -0.0173    1.4248    0.0099 C.3      1 ZINC000043195311    0.0300
2      O2      0.0021   -0.0041    0.0020 O.3      1 ZINC000043195311   -0.3200
3      C3      0.6258   -0.6184    1.0415 C.ar     1 ZINC000043195311    0.1400
4      C4      1.2022    0.1384    2.0513 C.ar     1 ZINC000043195311   -0.2100
5      C5      1.8353   -0.4884    3.1070 C.ar     1 ZINC000043195311   -0.0500
6      C6      1.8951   -1.8688    3.1577 C.ar     1 ZINC000043195311   -0.1400
7      C7      2.5867   -2.5500    4.3104 C.3      1 ZINC000043195311    0.1000
8      O8      1.6437   -2.7906    5.3568 O.3      1 ZINC000043195311   -0.2900
9      C9      2.1086   -3.4030    6.4775 C.ar     1 ZINC000043195311    0.1500
10     C10     3.4434   -3.7565    6.5645 C.ar     1 ZINC000043195311   -0.1900
11     C11     3.9258   -4.3804    7.7061 C.ar     1 ZINC000043195311    0.1400
12     C12     3.0492   -4.6436    8.7708 C.ar     1 ZINC000043195311   -0.1200
13     C13     1.7047   -4.2898    8.6762 C.ar     1 ZINC000043195311   -0.1200
14     C14     1.2379   -3.6663    7.5357 C.ar     1 ZINC000043195311    0.0900
15     O15    -0.0736   -3.3181    7.4395 O.3      1 ZINC000043195311   -0.3000
16     C16    -0.9105   -3.6278    8.5556 C.3      1 ZINC000043195311    0.0200
17     C17     3.5856   -5.2872    9.9851 C.ar     1 ZINC000043195311    0.0100
18     C18     2.7769   -5.8101   10.9830 C.ar     1 ZINC000043195311   -0.1100
19     C19     3.3585   -6.3942   12.0916 C.ar     1 ZINC000043195311   -0.0700
20     C20     4.7380   -6.4618   12.2159 C.ar     1 ZINC000043195311   -0.1300
21     C21     5.3462   -7.1023   13.4369 C.3      1 ZINC000043195311    0.1400
22     H22     6.3457   -6.6988   13.5992 H        1 ZINC000043195311    0.1100
23     C23     5.4346   -8.6155   13.2286 C.3      1 ZINC000043195311   -0.1800
24     O24     4.5299   -6.8253   14.5767 O.3      1 ZINC000043195311   -0.5500
25     C25     5.5601   -5.9487   11.2323 C.ar     1 ZINC000043195311   -0.0300
26     C26     4.9927   -5.3593   10.1097 C.ar     1 ZINC000043195311   -0.1700
27     C27     5.7965   -4.7931    9.0121 C.2      1 ZINC000043195311    0.5300
28     O28     6.9278   -4.3904    9.2036 O.2      1 ZINC000043195311   -0.4300
29     O29     5.2324   -4.7370    7.7840 O.3      1 ZINC000043195311   -0.2800
30     C30     1.3210   -2.6254    2.1528 C.ar     1 ZINC000043195311   -0.0500
31     C31     0.6822   -2.0034    1.0976 C.ar     1 ZINC000043195311   -0.1600
32     H32     1.0053    1.8021    0.0021 H        1 ZINC000043195311    0.0600
33     H33    -0.5445    1.7859   -0.8732 H        1 ZINC000043195311    0.1000
34     H34    -0.5275    1.7763    0.9067 H        1 ZINC000043195311    0.0600
35     H35     1.1564    1.2167    2.0118 H        1 ZINC000043195311    0.1300
36     H36     2.2842    0.1003    3.8934 H        1 ZINC000043195311    0.1300
37     H37     3.0056   -3.4983    3.9736 H        1 ZINC000043195311    0.0800
38     H38     3.3874   -1.9109    4.6827 H        1 ZINC000043195311    0.0800
39     H39     4.1111   -3.5466    5.7420 H        1 ZINC000043195311    0.1600
40     H40     1.0307   -4.4990    9.4937 H        1 ZINC000043195311    0.1500
41     H41    -0.9050   -4.7043    8.7263 H        1 ZINC000043195311    0.0600
42     H42    -0.5363   -3.1173    9.4430 H        1 ZINC000043195311    0.0600
43     H43    -1.9286   -3.2979    8.3489 H        1 ZINC000043195311    0.1100
44     H44     1.7016   -5.7608   10.8943 H        1 ZINC000043195311    0.1400
45     H45     2.7316   -6.8025   12.8706 H        1 ZINC000043195311    0.1300
46     H46     6.0573   -8.8267   12.3592 H        1 ZINC000043195311    0.0700
47     H47     5.8745   -9.0787   14.1117 H        1 ZINC000043195311    0.0700
48     H48     4.4351   -9.0189   13.0663 H        1 ZINC000043195311    0.0600
49     H49     3.6244   -7.1565   14.5018 H        1 ZINC000043195311    0.3700
50     H50     6.6337   -6.0049   11.3349 H        1 ZINC000043195311    0.1400
51     H51     1.3687   -3.7035    2.1948 H        1 ZINC000043195311    0.1300
52     H52     0.2339   -2.5948    0.3129 H        1 ZINC000043195311    0.1400
@<TRIPOS>BOND
1     1     2     1
2     1     32    1
3     1     33    1
4     1     34    1
5     2     3     1
6     3     31    ar
7     3     4     ar
8     4     5     ar
9     4     35    1
10    5     6     ar
11    5     36    1
12    6     7     1
13    6     30    ar
14    7     8     1
15    7     37    1
16    7     38    1
17    8     9     1
18    9     14    ar
19    9     10    ar
20    10    11    ar
21    10    39    1
22    11    29    1
23    11    12    ar
24    12    13    ar
25    12    17    1
26    13    14    ar
27    13    40    1
28    14    15    1
29    15    16    1
30    16    41    1
31    16    42    1
32    16    43    1
33    17    26    ar
34    17    18    ar
35    18    19    ar
36    18    44    1
37    19    20    ar
38    19    45    1
39    20    21    1
40    20    25    ar
41    21    22    1
42    21    23    1
43    21    24    1
44    23    46    1
45    23    47    1
46    23    48    1
47    24    49    1
48    25    26    ar
49    25    50    1
50    26    27    1
51    27    28    2
52    27    29    1
53    30    31    ar
54    30    51    1
55    31    52    1
@<TRIPOS>SUBSTRUCTURE
1   ZINC000043195311 1     RESIDUE    1   A     ZIN   1
