@<TRIPOS>MOLECULE
ZINC000000000802
48    50    1     0     0
SMALL
USER_CHARGES
@<TRIPOS>ATOM
1      C1     -0.0173    1.4248    0.0099 C.3      1 ZINC000000000802    0.0300
2      O2      0.0021   -0.0041    0.0020 O.3      1 ZINC000000000802   -0.3000
3      C3      0.6062   -0.6075   -1.0565 C.ar     1 ZINC000000000802    0.1500
4      C4      1.1731    0.1601   -2.0626 C.ar     1 ZINC000000000802   -0.2100
5      C5      1.7874   -0.4523   -3.1388 C.ar     1 ZINC000000000802    0.0000
6      C6      2.4022    0.3858   -4.2300 C.3      1 ZINC000000000802   -0.0800
7      C7      3.8647    0.6764   -3.8871 C.3      1 ZINC000000000802    0.1400
8      H8      4.3869   -0.2643   -3.7126 H        1 ZINC000000000802    0.1000
9      N9      3.9235    1.4951   -2.6722 N.3      1 ZINC000000000802   -0.6700
10     C10     5.3058    1.9310   -2.4179 C.3      1 ZINC000000000802    0.0600
11     C11     5.6852    2.9775   -3.4659 C.3      1 ZINC000000000802   -0.1200
12     C12     5.3641    2.4636   -4.8462 C.ar     1 ZINC000000000802   -0.0700
13     C13     5.9486    3.0914   -5.9360 C.ar     1 ZINC000000000802   -0.1300
14     C14     5.6794    2.6563   -7.2216 C.ar     1 ZINC000000000802    0.0800
15     O15     6.2557    3.2746   -8.2870 O.3      1 ZINC000000000802   -0.4900
16     C16     4.8164    1.5826   -7.4190 C.ar     1 ZINC000000000802    0.0800
17     O17     4.5438    1.1482   -8.6785 O.3      1 ZINC000000000802   -0.4900
18     C18     4.2374    0.9587   -6.3283 C.ar     1 ZINC000000000802   -0.1200
19     C19     4.5119    1.3977   -5.0406 C.ar     1 ZINC000000000802   -0.1100
20     C20     1.8397   -1.8314   -3.2167 C.ar     1 ZINC000000000802   -0.2300
21     C21     1.2753   -2.6062   -2.2148 C.ar     1 ZINC000000000802    0.1500
22     O22     1.3272   -3.9630   -2.2923 O.3      1 ZINC000000000802   -0.3000
23     C23     1.9789   -4.5231   -3.4341 C.3      1 ZINC000000000802    0.0300
24     C24     0.6613   -1.9944   -1.1284 C.ar     1 ZINC000000000802    0.0200
25     O25     0.1062   -2.7513   -0.1429 O.3      1 ZINC000000000802   -0.3100
26     C26     0.9504   -3.1106    0.9526 C.3      1 ZINC000000000802    0.0400
27     H27     1.0053    1.8021    0.0021 H        1 ZINC000000000802    0.0600
28     H28    -0.5445    1.7859   -0.8732 H        1 ZINC000000000802    0.0600
29     H29    -0.5275    1.7763    0.9067 H        1 ZINC000000000802    0.1000
30     H30     1.1343    1.2379   -2.0054 H        1 ZINC000000000802    0.1300
31     H31     2.3510   -0.1542   -5.1754 H        1 ZINC000000000802    0.0900
32     H32     1.8561    1.3250   -4.3180 H        1 ZINC000000000802    0.0800
33     H33     3.3013    2.2866   -2.7392 H        1 ZINC000000000802    0.3400
34     H34     5.3745    2.3685   -1.4220 H        1 ZINC000000000802    0.0900
35     H35     5.9788    1.0768   -2.4931 H        1 ZINC000000000802    0.0800
36     H36     5.1246    3.8940   -3.2815 H        1 ZINC000000000802    0.0800
37     H37     6.7525    3.1879   -3.3973 H        1 ZINC000000000802    0.0800
38     H38     6.6174    3.9250   -5.7803 H        1 ZINC000000000802    0.1300
39     H39     7.1057    2.8954   -8.5493 H        1 ZINC000000000802    0.3900
40     H40     5.1486    0.4649   -8.9984 H        1 ZINC000000000802    0.3900
41     H41     3.5673    0.1255   -6.4800 H        1 ZINC000000000802    0.1400
42     H42     2.3206   -2.3061   -4.0592 H        1 ZINC000000000802    0.1300
43     H43     1.9499   -5.6109   -3.3718 H        1 ZINC000000000802    0.1000
44     H44     1.4681   -4.1973   -4.3402 H        1 ZINC000000000802    0.0600
45     H45     3.0159   -4.1882   -3.4612 H        1 ZINC000000000802    0.0600
46     H46     1.3109   -2.2075    1.4450 H        1 ZINC000000000802    0.0400
47     H47     0.3852   -3.7118    1.6648 H        1 ZINC000000000802    0.0900
48     H48     1.7989   -3.6868    0.5837 H        1 ZINC000000000802    0.0400
@<TRIPOS>BOND
1     1     2     1
2     1     27    1
3     1     28    1
4     1     29    1
5     2     3     1
6     3     24    ar
7     3     4     ar
8     4     5     ar
9     4     30    1
10    5     6     1
11    5     20    ar
12    6     7     1
13    6     31    1
14    6     32    1
15    7     8     1
16    7     19    1
17    7     9     1
18    9     10    1
19    9     33    1
20    10    11    1
21    10    34    1
22    10    35    1
23    11    12    1
24    11    36    1
25    11    37    1
26    12    19    ar
27    12    13    ar
28    13    14    ar
29    13    38    1
30    14    15    1
31    14    16    ar
32    15    39    1
33    16    17    1
34    16    18    ar
35    17    40    1
36    18    19    ar
37    18    41    1
38    20    21    ar
39    20    42    1
40    21    22    1
41    21    24    ar
42    22    23    1
43    23    43    1
44    23    44    1
45    23    45    1
46    24    25    1
47    25    26    1
48    26    46    1
49    26    47    1
50    26    48    1
@<TRIPOS>SUBSTRUCTURE
1   ZINC000000000802 1     RESIDUE    1   A     ZIN   1
