@<TRIPOS>MOLECULE
ZINC000035923551
  19   21    0    0    0
SMALL
USER_CHARGES
NO_NAME
@<TRIPOS>ATOM
    1 O1        0.0021    -0.0041     0.0020 O.co2  1 <0>      -0.6800
    2 C2       -0.0145     1.2190     0.0087 C.2    1 <0>       0.5600
    3 O3        1.0363     1.8449     0.0021 O.co2  1 <0>      -0.6800
    4 C4       -1.3006     1.9384     0.0188 C.2    1 <0>       0.0100
    5 N5       -1.4690     3.2465     0.0209 N.2    1 <0>      -0.2600
    6 N6       -2.7213     3.5295     0.0296 N.pl3  1 <0>      -0.4000
    7 C7       -3.4596     2.3858     0.0332 C.2    1 <0>      -0.0200
    8 C8       -2.5936     1.3566     0.0217 C.2    1 <0>      -0.1700
    9 C9       -3.3165     0.0357     0.0265 C.3    1 <0>      -0.0200
   10 C10      -4.8195     0.3554     0.0492 C.3    1 <0>      -0.1400
   11 H11      -5.4740    -0.2495    -0.5783 H      1 <0>       0.1200
   12 C12      -5.3957     1.0631     1.2777 C.3    1 <0>      -0.1500
   13 C13      -4.8840     1.8902     0.0405 C.3    1 <0>      -0.0900
   14 H14      -5.6092     2.4200    -0.5772 H      1 <0>       0.1100
   15 H15      -3.0879     4.4275     0.0335 H      1 <0>       0.4300
   16 H16      -3.0686    -0.5285    -0.8727 H      1 <0>       0.0800
   17 H17      -3.0432    -0.5360     0.9133 H      1 <0>       0.0800
   18 H18      -6.4744     1.0138     1.4265 H      1 <0>       0.1000
   19 H19      -4.7953     1.0602     2.1874 H      1 <0>       0.1000
@<TRIPOS>BOND
   1    1    2 ar
   2    2    3 ar
   3    2    4 1
   4    4    8 1
   5    4    5 2
   6    5    6 1
   7    6    7 1
   8    6   15 1
   9    7   13 1
  10    7    8 2
  11    8    9 1
  12    9   10 1
  13    9   16 1
  14    9   17 1
  15   10   11 1
  16   10   13 1
  17   10   12 1
  18   12   13 1
  19   12   18 1
  20   12   19 1
  21   13   14 1
