@<TRIPOS>MOLECULE
ZINC000043197676
45    47    1     0     0
SMALL
USER_CHARGES
@<TRIPOS>ATOM
1      C1     -0.0178    1.4608    0.0101 C.3      1 ZINC000043197676    0.1000
2      N2      0.0021   -0.0041    0.0020 N.pl3    1 ZINC000043197676   -0.3500
3      N3      0.0086   -0.8237   -1.1338 N.2      1 ZINC000043197676   -0.2600
4      C4      0.0271   -2.0733   -0.7448 C.2      1 ZINC000043197676    0.0700
5      C5      0.0332   -2.1047    0.6509 C.2      1 ZINC000043197676   -0.1500
6      Cl6     0.0571   -3.5302    1.6414 Cl       1 ZINC000043197676   -0.0300
7      C7      0.0235   -0.8137    1.0986 C.2      1 ZINC000043197676    0.1400
8      C8      0.0254   -0.3754    2.5129 C.2      1 ZINC000043197676   -0.1100
9      C9      1.1231   -0.1189    3.2856 C.2      1 ZINC000043197676    0.1100
10     Cl10    2.7767   -0.2517    2.7740 Cl       1 ZINC000043197676    0.0800
11     O11     0.7088    0.2520    4.5035 O.3      1 ZINC000043197676   -0.1500
12     C12    -0.6401    0.2444    4.5464 C.2      1 ZINC000043197676   -0.1000
13     C13    -1.4629    0.5924    5.7085 C.2      1 ZINC000043197676    0.6100
14     O14    -2.6767    0.5495    5.6296 O.2      1 ZINC000043197676   -0.5200
15     N15    -0.8754    0.9600    6.8644 N.am     1 ZINC000043197676   -0.7300
16     C16    -1.6977    1.3078    8.0259 C.3      1 ZINC000043197676    0.1200
17     H17    -2.5897    0.6815    8.0402 H        1 ZINC000043197676    0.1300
18     C18    -2.1089    2.7789    7.9375 C.3      1 ZINC000043197676   -0.0200
19     N19    -2.7768    3.0243    6.6523 N.4      1 ZINC000043197676   -0.6400
20     H20    -3.5971    2.4410    6.5828 H        1 ZINC000043197676    0.4400
21     H21    -3.0479    3.9944    6.5940 H        1 ZINC000043197676    0.4400
22     H22    -2.1439    2.8059    5.8973 H        1 ZINC000043197676    0.4300
23     C23    -0.8934    1.0792    9.3072 C.3      1 ZINC000043197676   -0.0800
24     C24    -0.5936   -0.3901    9.4566 C.ar     1 ZINC000043197676   -0.0900
25     C25    -1.4772   -1.2096   10.1334 C.ar     1 ZINC000043197676   -0.0900
26     C26    -1.2043   -2.5579   10.2718 C.ar     1 ZINC000043197676   -0.1200
27     C27    -0.0458   -3.0882    9.7322 C.ar     1 ZINC000043197676    0.0800
28     F28     0.2214   -4.4057    9.8666 F        1 ZINC000043197676   -0.1200
29     C29     0.8406   -2.2660    9.0527 C.ar     1 ZINC000043197676    0.0800
30     F30     1.9724   -2.7816    8.5250 F        1 ZINC000043197676   -0.1200
31     C31     0.5623   -0.9179    8.9117 C.ar     1 ZINC000043197676   -0.1200
32     C32    -1.1076   -0.1355    3.3230 C.2      1 ZINC000043197676   -0.0500
33     H33     1.0048    1.8381    0.0023 H        1 ZINC000043197676    0.0800
34     H34    -0.5450    1.8219   -0.8730 H        1 ZINC000043197676    0.1000
35     H35    -0.5280    1.8123    0.9069 H        1 ZINC000043197676    0.0800
36     H36     0.0356   -2.9358   -1.3948 H        1 ZINC000043197676    0.2000
37     H37     0.0920    0.9942    6.9274 H        1 ZINC000043197676    0.4200
38     H38    -2.7925    3.0147    8.7530 H        1 ZINC000043197676    0.1500
39     H39    -1.2227    3.4090    8.0125 H        1 ZINC000043197676    0.1400
40     H40     0.0414    1.6372    9.2537 H        1 ZINC000043197676    0.1000
41     H41    -1.4721    1.4211   10.1653 H        1 ZINC000043197676    0.1100
42     H42    -2.3816   -0.7962   10.5548 H        1 ZINC000043197676    0.1400
43     H43    -1.8952   -3.1970   10.8015 H        1 ZINC000043197676    0.1500
44     H44     1.2515   -0.2766    8.3825 H        1 ZINC000043197676    0.1400
45     H45    -2.1424   -0.2398    3.0319 H        1 ZINC000043197676    0.1800
@<TRIPOS>BOND
1     1     2     1
2     1     33    1
3     1     34    1
4     1     35    1
5     2     7     1
6     2     3     1
7     3     4     2
8     4     5     1
9     4     36    1
10    5     6     1
11    5     7     2
12    7     8     1
13    8     32    1
14    8     9     2
15    9     10    1
16    9     11    1
17    11    12    1
18    12    13    1
19    12    32    2
20    13    14    2
21    13    15    am
22    15    16    1
23    15    37    1
24    16    17    1
25    16    18    1
26    16    23    1
27    18    19    1
28    18    38    1
29    18    39    1
30    19    20    1
31    19    21    1
32    19    22    1
33    23    24    1
34    23    40    1
35    23    41    1
36    24    31    ar
37    24    25    ar
38    25    26    ar
39    25    42    1
40    26    27    ar
41    26    43    1
42    27    28    1
43    27    29    ar
44    29    30    1
45    29    31    ar
46    31    44    1
47    32    45    1
@<TRIPOS>SUBSTRUCTURE
1   ZINC000043197676 1     RESIDUE    1   A     ZIN   1
