@<TRIPOS>MOLECULE
ZINC000242687746
64    68    1     0     0
SMALL
USER_CHARGES
@<TRIPOS>ATOM
1      N1     -0.5332    0.8599    1.8450 N.pl3    1 ZINC000242687746   -0.7700
2      C2     -0.4512   -0.5002    1.6368 C.ar     1 ZINC000242687746    0.5600
3      C3     -1.6202   -1.3003    1.5923 C.ar     1 ZINC000242687746   -0.1900
4      C4     -2.8985   -0.7557    1.7548 C.ar     1 ZINC000242687746   -0.0400
5      C5     -3.9892   -1.5734    1.7023 C.ar     1 ZINC000242687746   -0.1200
6      C6     -3.8472   -2.9415    1.4893 C.ar     1 ZINC000242687746   -0.0200
7      C7     -2.6154   -3.5030    1.3272 C.ar     1 ZINC000242687746   -0.1500
8      C8     -1.4734   -2.6920    1.3754 C.ar     1 ZINC000242687746    0.2000
9      N9     -0.2397   -3.1951    1.2214 N.ar     1 ZINC000242687746   -0.5800
10     H10    -0.1223   -4.1463    1.0717 H        1 ZINC000242687746    0.4400
11     C11     0.8152   -2.4042    1.2718 C.ar     1 ZINC000242687746    0.6800
12     N12     2.0701   -2.9623    1.1081 N.pl3    1 ZINC000242687746   -0.6700
13     C13     2.2073   -4.4036    0.8844 C.3      1 ZINC000242687746    0.0900
14     C14     3.6883   -4.7581    0.7367 C.3      1 ZINC000242687746   -0.1000
15     H15     4.1300   -4.1515   -0.0540 H        1 ZINC000242687746    0.0900
16     C16     4.4127   -4.4825    2.0558 C.3      1 ZINC000242687746   -0.1200
17     C17     5.8937   -4.8370    1.9081 C.3      1 ZINC000242687746   -0.1200
18     C18     6.0304   -6.3184    1.5510 C.3      1 ZINC000242687746   -0.0900
19     H19     5.5887   -6.9250    2.3417 H        1 ZINC000242687746    0.0800
20     C20     7.5114   -6.6729    1.4033 C.3      1 ZINC000242687746    0.1200
21     N21     7.6486   -8.1142    1.1796 N.am     1 ZINC000242687746   -1.1200
22     S22     9.0734   -8.7308    0.6032 S.o2     1 ZINC000242687746    2.7000
23     O23     8.9014  -10.1395    0.5322 O.2      1 ZINC000242687746   -0.9500
24     O24     9.4311   -7.9340   -0.5177 O.2      1 ZINC000242687746   -0.9500
25     C25    10.3022   -8.4408    1.8322 C.ar     1 ZINC000242687746   -0.6800
26     C26    10.2013   -9.0569    3.0909 C.ar     1 ZINC000242687746    0.0300
27     C27     9.1300   -9.9122    3.4011 C.ar     1 ZINC000242687746   -0.1400
28     C28     9.0654  -10.4917    4.6308 C.ar     1 ZINC000242687746   -0.0800
29     C29    10.0467  -10.2499    5.5906 C.ar     1 ZINC000242687746   -0.1200
30     C30    11.0981   -9.4273    5.3261 C.ar     1 ZINC000242687746   -0.0900
31     C31    11.1995   -8.8114    4.0668 C.ar     1 ZINC000242687746   -0.0800
32     C32    12.2705   -7.9565    3.7567 C.ar     1 ZINC000242687746   -0.0400
33     C33    12.3359   -7.3778    2.5263 C.ar     1 ZINC000242687746   -0.1500
34     C34    11.3573   -7.6232    1.5652 C.ar     1 ZINC000242687746    0.0100
35     C35     5.3060   -6.5940    0.2319 C.3      1 ZINC000242687746   -0.1200
36     C36     3.8249   -6.2395    0.3796 C.3      1 ZINC000242687746   -0.1100
37     N37     0.7221   -1.0920    1.4678 N.ar     1 ZINC000242687746   -0.6000
38     H38     0.2745    1.3964    1.8692 H        1 ZINC000242687746    0.4300
39     H39    -1.3989    1.2811    1.9633 H        1 ZINC000242687746    0.4300
40     H40    -3.0210    0.3043    1.9210 H        1 ZINC000242687746    0.1500
41     H41    -4.9762   -1.1535    1.8280 H        1 ZINC000242687746    0.1500
42     H42    -4.7262   -3.5680    1.4522 H        1 ZINC000242687746    0.1600
43     H43    -2.5203   -4.5662    1.1630 H        1 ZINC000242687746    0.1600
44     H44     2.8593   -2.3994    1.1415 H        1 ZINC000242687746    0.4400
45     H45     1.7870   -4.9445    1.7323 H        1 ZINC000242687746    0.0900
46     H46     1.6745   -4.6825   -0.0247 H        1 ZINC000242687746    0.0900
47     H47     4.3153   -3.4271    2.3102 H        1 ZINC000242687746    0.0600
48     H48     3.9710   -5.0890    2.8465 H        1 ZINC000242687746    0.0700
49     H49     6.3354   -4.2304    1.1174 H        1 ZINC000242687746    0.0700
50     H50     6.4098   -4.6407    2.8479 H        1 ZINC000242687746    0.0700
51     H51     7.9316   -6.1320    0.5554 H        1 ZINC000242687746    0.0800
52     H52     8.0442   -6.3940    2.3124 H        1 ZINC000242687746    0.0700
53     H53     6.9048   -8.7074    1.3690 H        1 ZINC000242687746    0.4200
54     H54     8.3620  -10.1083    2.6676 H        1 ZINC000242687746    0.1300
55     H55     8.2412  -11.1485    4.8666 H        1 ZINC000242687746    0.1300
56     H56     9.9714  -10.7222    6.5589 H        1 ZINC000242687746    0.1300
57     H57    11.8506   -9.2487    6.0799 H        1 ZINC000242687746    0.1300
58     H58    13.0376   -7.7592    4.4908 H        1 ZINC000242687746    0.1400
59     H59    13.1600   -6.7208    2.2906 H        1 ZINC000242687746    0.1400
60     H60    11.4331   -7.1516    0.5966 H        1 ZINC000242687746    0.1500
61     H61     5.7476   -5.9875   -0.5588 H        1 ZINC000242687746    0.0700
62     H62     5.4033   -7.6494   -0.0225 H        1 ZINC000242687746    0.0700
63     H63     3.3833   -6.8461    1.1703 H        1 ZINC000242687746    0.0700
64     H64     3.3089   -6.4359   -0.5602 H        1 ZINC000242687746    0.0700
@<TRIPOS>BOND
1     1     2     1
2     1     38    1
3     1     39    1
4     2     37    ar
5     2     3     ar
6     3     8     ar
7     3     4     ar
8     4     5     ar
9     4     40    1
10    5     6     ar
11    5     41    1
12    6     7     ar
13    6     42    1
14    7     8     ar
15    7     43    1
16    8     9     ar
17    9     10    1
18    9     11    ar
19    11    12    1
20    11    37    ar
21    12    13    1
22    12    44    1
23    13    14    1
24    13    45    1
25    13    46    1
26    14    15    1
27    14    36    1
28    14    16    1
29    16    17    1
30    16    47    1
31    16    48    1
32    17    18    1
33    17    49    1
34    17    50    1
35    18    19    1
36    18    20    1
37    18    35    1
38    20    21    1
39    20    51    1
40    20    52    1
41    21    22    am
42    21    53    1
43    22    23    2
44    22    24    2
45    22    25    1
46    25    34    ar
47    25    26    ar
48    26    31    ar
49    26    27    ar
50    27    28    ar
51    27    54    1
52    28    29    ar
53    28    55    1
54    29    30    ar
55    29    56    1
56    30    31    ar
57    30    57    1
58    31    32    ar
59    32    33    ar
60    32    58    1
61    33    34    ar
62    33    59    1
63    34    60    1
64    35    36    1
65    35    61    1
66    35    62    1
67    36    63    1
68    36    64    1
@<TRIPOS>SUBSTRUCTURE
1   ZINC000242687746 1     RESIDUE    1   A     ZIN   1
