@<TRIPOS>MOLECULE
ZINC000005974155
35    37    1     0     0
SMALL
USER_CHARGES
@<TRIPOS>ATOM
1      N1     -1.4136    1.0435   -2.1523 N.1      1 ZINC000005974155   -0.4000
2      C2     -0.8059    1.2282   -1.2105 C.1      1 ZINC000005974155    0.2100
3      C3     -0.0183    1.4674    0.0099 C.3      1 ZINC000005974155    0.1000
4      H4      0.3898    0.5230    0.3700 H        1 ZINC000005974155    0.1500
5      C5      1.1102    2.4173   -0.2987 C.ar     1 ZINC000005974155   -0.0700
6      C6      0.8351    3.7226   -0.6612 C.ar     1 ZINC000005974155   -0.0900
7      C7      1.8697    4.5942   -0.9443 C.ar     1 ZINC000005974155   -0.1000
8      C8      3.1809    4.1601   -0.8649 C.ar     1 ZINC000005974155   -0.0300
9      Cl9     4.4810    5.2544   -1.2198 Cl       1 ZINC000005974155   -0.0700
10     C10     3.4557    2.8536   -0.5020 C.ar     1 ZINC000005974155   -0.1100
11     C11     2.4204    1.9844   -0.2136 C.ar     1 ZINC000005974155   -0.0900
12     C12    -0.9049    2.0683    1.0702 C.ar     1 ZINC000005974155   -0.0600
13     C13    -2.2631    1.8028    1.0666 C.ar     1 ZINC000005974155   -0.0100
14     Cl14   -2.9433    0.7785   -0.1588 Cl       1 ZINC000005974155   -0.0200
15     C15    -3.0784    2.3523    2.0382 C.ar     1 ZINC000005974155   -0.0800
16     C16    -2.5336    3.1717    3.0182 C.ar     1 ZINC000005974155    0.1900
17     N17    -3.3568    3.7290    4.0034 N.am     1 ZINC000005974155   -0.4000
18     N18    -3.2772    5.0998    4.2758 N.2      1 ZINC000005974155   -0.1700
19     C19    -4.0421    5.6255    5.1927 C.2      1 ZINC000005974155    0.0700
20     C20    -4.9747    4.7621    5.9223 C.2      1 ZINC000005974155    0.5200
21     O21    -5.7001    5.2266    6.7824 O.2      1 ZINC000005974155   -0.4700
22     N22    -5.0196    3.4461    5.6286 N.am     1 ZINC000005974155   -0.6500
23     C23    -4.2178    2.9414    4.6721 C.2      1 ZINC000005974155    0.6800
24     O24    -4.2663    1.7540    4.4153 O.2      1 ZINC000005974155   -0.5100
25     C25    -1.1703    3.4368    3.0192 C.ar     1 ZINC000005974155   -0.0800
26     C26    -0.3585    2.8798    2.0489 C.ar     1 ZINC000005974155    0.0000
27     Cl27    1.3458    3.2102    2.0496 Cl       1 ZINC000005974155   -0.0200
28     H28    -0.1885    4.0613   -0.7235 H        1 ZINC000005974155    0.1300
29     H29     1.6546    5.6139   -1.2279 H        1 ZINC000005974155    0.1400
30     H30     4.4790    2.5140   -0.4401 H        1 ZINC000005974155    0.1400
31     H31     2.6347    0.9646    0.0700 H        1 ZINC000005974155    0.1400
32     H32    -4.1383    2.1448    2.0349 H        1 ZINC000005974155    0.1500
33     H33    -3.9886    6.6818    5.4110 H        1 ZINC000005974155    0.2300
34     H34    -5.6323    2.8639    6.1045 H        1 ZINC000005974155    0.4400
35     H35    -0.7441    4.0740    3.7800 H        1 ZINC000005974155    0.1600
@<TRIPOS>BOND
1     1     2     3
2     2     3     1
3     3     4     1
4     3     5     1
5     3     12    1
6     5     11    ar
7     5     6     ar
8     6     7     ar
9     6     28    1
10    7     8     ar
11    7     29    1
12    8     9     1
13    8     10    ar
14    10    11    ar
15    10    30    1
16    11    31    1
17    12    26    ar
18    12    13    ar
19    13    14    1
20    13    15    ar
21    15    16    ar
22    15    32    1
23    16    17    1
24    16    25    ar
25    17    23    am
26    17    18    1
27    18    19    2
28    19    20    1
29    19    33    1
30    20    21    2
31    20    22    am
32    22    23    am
33    22    34    1
34    23    24    2
35    25    26    ar
36    25    35    1
37    26    27    1
@<TRIPOS>SUBSTRUCTURE
1   ZINC000005974155 1     RESIDUE    1   A     ZIN   1
