@<TRIPOS>MOLECULE
ZINC000065731166
84    88    1     0     0
SMALL
USER_CHARGES
@<TRIPOS>ATOM
1      C1      1.4765    3.3929   -2.0752 C.3      1 ZINC000065731166   -0.1500
2      C2      1.3952    1.9367   -1.6128 C.3      1 ZINC000065731166   -0.1200
3      C3      1.8952    1.0183   -2.7297 C.3      1 ZINC000065731166   -0.1400
4      C4      1.8139   -0.4379   -2.2673 C.3      1 ZINC000065731166    0.1100
5      N5      2.2927   -1.3172   -3.3368 N.am     1 ZINC000065731166   -0.5900
6      C6      1.4112   -1.7703   -4.2323 C.2      1 ZINC000065731166    0.5200
7      O7      0.2496   -1.4392   -4.1231 O.2      1 ZINC000065731166   -0.5200
8      C8      1.7977   -2.6705   -5.3671 C.3      1 ZINC000065731166    0.0900
9      H9      1.2519   -2.3717   -6.2621 H        1 ZINC000065731166    0.1300
10     C10     1.4280   -4.1120   -5.0121 C.3      1 ZINC000065731166    0.1100
11     H11     1.8800   -4.3783   -4.0567 H        1 ZINC000065731166    0.1000
12     O12     1.9109   -4.9919   -6.0293 O.3      1 ZINC000065731166   -0.5400
13     C13    -0.0934   -4.2378   -4.9093 C.3      1 ZINC000065731166   -0.1200
14     C14    -0.7226   -3.9459   -6.2730 C.3      1 ZINC000065731166   -0.1200
15     C15    -2.2440   -4.0716   -6.1701 C.3      1 ZINC000065731166   -0.1200
16     C16    -2.6100   -5.4914   -5.7329 C.3      1 ZINC000065731166   -0.1200
17     C17    -1.9807   -5.7833   -4.3692 C.3      1 ZINC000065731166   -0.1200
18     C18    -0.4594   -5.6575   -4.4720 C.3      1 ZINC000065731166   -0.1100
19     N19     3.2279   -2.5973   -5.6335 N.am     1 ZINC000065731166   -0.7100
20     C20     4.1097   -2.1399   -4.7405 C.2      1 ZINC000065731166    0.5300
21     O21     5.2832   -2.1118   -5.0456 O.2      1 ZINC000065731166   -0.5100
22     C22     3.7115   -1.6537   -3.3790 C.3      1 ZINC000065731166    0.1600
23     C23     4.5443   -0.4168   -3.0198 C.3      1 ZINC000065731166   -0.1000
24     C24     6.0261   -0.7972   -2.9952 C.3      1 ZINC000065731166    0.0300
25     N25     6.2452   -1.8551   -2.0007 N.3      1 ZINC000065731166   -0.5300
26     C26     7.6765   -2.1511   -1.8535 C.3      1 ZINC000065731166    0.1000
27     C27     7.8492   -3.3944   -1.0195 C.ar     1 ZINC000065731166   -0.1300
28     C28     7.9593   -3.2935    0.3551 C.ar     1 ZINC000065731166   -0.0600
29     C29     8.1177   -4.4315    1.1219 C.ar     1 ZINC000065731166   -0.1900
30     C30     8.1663   -5.6767    0.5115 C.ar     1 ZINC000065731166    0.1300
31     O31     8.3216   -6.7977    1.2635 O.3      1 ZINC000065731166   -0.2600
32     C32     8.4918   -6.6488    2.6011 C.ar     1 ZINC000065731166    0.0600
33     C33     9.7677   -6.7213    3.1499 C.ar     1 ZINC000065731166   -0.1400
34     C34     9.9451   -6.5708    4.5063 C.ar     1 ZINC000065731166   -0.0700
35     C35     8.8395   -6.3442    5.3333 C.ar     1 ZINC000065731166   -0.1200
36     C36     9.0243   -6.1821    6.7850 C.2      1 ZINC000065731166    0.5200
37     O37    10.1458   -6.2455    7.2697 O.co2    1 ZINC000065731166   -0.6800
38     O38     8.0564   -5.9840    7.5065 O.co2    1 ZINC000065731166   -0.6800
39     C39     7.5580   -6.2716    4.7768 C.ar     1 ZINC000065731166   -0.0700
40     C40     7.3906   -6.4184    3.4187 C.ar     1 ZINC000065731166   -0.1400
41     C41     8.0556   -5.7751   -0.8681 C.ar     1 ZINC000065731166   -0.1500
42     C42     7.8917   -4.6344   -1.6298 C.ar     1 ZINC000065731166   -0.0800
43     C43     5.4894   -3.0674   -2.3403 C.3      1 ZINC000065731166    0.0500
44     C44     3.9921   -2.7526   -2.3466 C.3      1 ZINC000065731166   -0.1200
45     H45     2.5106    3.6411   -2.3141 H        1 ZINC000065731166    0.0500
46     H46     0.8564    3.5279   -2.9615 H        1 ZINC000065731166    0.0500
47     H47     1.1203    4.0472   -1.2795 H        1 ZINC000065731166    0.0600
48     H48     2.0153    1.8018   -0.7266 H        1 ZINC000065731166    0.0700
49     H49     0.3611    1.6885   -1.3740 H        1 ZINC000065731166    0.0600
50     H50     1.2751    1.1533   -3.6160 H        1 ZINC000065731166    0.0700
51     H51     2.9293    1.2665   -2.9686 H        1 ZINC000065731166    0.0700
52     H52     2.4340   -0.5728   -1.3811 H        1 ZINC000065731166    0.0900
53     H53     0.7798   -0.6860   -2.0285 H        1 ZINC000065731166    0.0900
54     H54     1.6230   -4.7568   -6.9220 H        1 ZINC000065731166    0.3700
55     H55    -0.4682   -3.5238   -4.1759 H        1 ZINC000065731166    0.1000
56     H56    -0.4619   -2.9344   -6.5845 H        1 ZINC000065731166    0.0600
57     H57    -0.3478   -4.6599   -7.0064 H        1 ZINC000065731166    0.0600
58     H58    -2.6188   -3.3576   -5.4368 H        1 ZINC000065731166    0.0600
59     H59    -2.6922   -3.8637   -7.1417 H        1 ZINC000065731166    0.0600
60     H60    -3.6938   -5.5810   -5.6596 H        1 ZINC000065731166    0.0600
61     H61    -2.2352   -6.2054   -6.4663 H        1 ZINC000065731166    0.0600
62     H62    -2.3556   -5.0693   -3.6358 H        1 ZINC000065731166    0.0600
63     H63    -2.2415   -6.7947   -4.0577 H        1 ZINC000065731166    0.0600
64     H64    -0.0846   -6.3715   -5.2054 H        1 ZINC000065731166    0.0700
65     H65    -0.0111   -5.8655   -3.5005 H        1 ZINC000065731166    0.0600
66     H66     3.5544   -2.8941   -6.4973 H        1 ZINC000065731166    0.4100
67     H67     4.3805    0.3614   -3.7652 H        1 ZINC000065731166    0.0800
68     H68     4.2462   -0.0498   -2.0377 H        1 ZINC000065731166    0.0900
69     H69     6.3251   -1.1568   -3.9798 H        1 ZINC000065731166    0.0900
70     H70     6.6212    0.0773   -2.7321 H        1 ZINC000065731166    0.0800
71     H71     8.1178   -2.3094   -2.8375 H        1 ZINC000065731166    0.0400
72     H72     8.1723   -1.3131   -1.3635 H        1 ZINC000065731166    0.0800
73     H73     7.9218   -2.3241    0.8297 H        1 ZINC000065731166    0.1300
74     H74     8.2040   -4.3522    2.1955 H        1 ZINC000065731166    0.1300
75     H75    10.6205   -6.8963    2.5107 H        1 ZINC000065731166    0.1200
76     H76    10.9361   -6.6279    4.9318 H        1 ZINC000065731166    0.1400
77     H77     6.7018   -6.0969    5.4114 H        1 ZINC000065731166    0.1300
78     H78     6.4017   -6.3622    2.9881 H        1 ZINC000065731166    0.1200
79     H79     8.0931   -6.7431   -1.3457 H        1 ZINC000065731166    0.1300
80     H80     7.8051   -4.7104   -2.7036 H        1 ZINC000065731166    0.1200
81     H81     5.7907   -3.4186   -3.3272 H        1 ZINC000065731166    0.0500
82     H82     5.6944   -3.8420   -1.6014 H        1 ZINC000065731166    0.0900
83     H83     3.6881   -2.4092   -1.3577 H        1 ZINC000065731166    0.0900
84     H84     3.4324   -3.6503   -2.6091 H        1 ZINC000065731166    0.0700
@<TRIPOS>BOND
1     1     2     1
2     1     45    1
3     1     46    1
4     1     47    1
5     2     3     1
6     2     48    1
7     2     49    1
8     3     4     1
9     3     50    1
10    3     51    1
11    4     5     1
12    4     52    1
13    4     53    1
14    5     22    1
15    5     6     am
16    6     7     2
17    6     8     1
18    8     9     1
19    8     10    1
20    8     19    1
21    10    11    1
22    10    12    1
23    10    13    1
24    12    54    1
25    13    18    1
26    13    14    1
27    13    55    1
28    14    15    1
29    14    56    1
30    14    57    1
31    15    16    1
32    15    58    1
33    15    59    1
34    16    17    1
35    16    60    1
36    16    61    1
37    17    18    1
38    17    62    1
39    17    63    1
40    18    64    1
41    18    65    1
42    19    20    am
43    19    66    1
44    20    21    2
45    20    22    1
46    22    44    1
47    22    23    1
48    23    24    1
49    23    67    1
50    23    68    1
51    24    25    1
52    24    69    1
53    24    70    1
54    25    26    1
55    25    43    1
56    26    27    1
57    26    71    1
58    26    72    1
59    27    42    ar
60    27    28    ar
61    28    29    ar
62    28    73    1
63    29    30    ar
64    29    74    1
65    30    31    1
66    30    41    ar
67    31    32    1
68    32    40    ar
69    32    33    ar
70    33    34    ar
71    33    75    1
72    34    35    ar
73    34    76    1
74    35    36    1
75    35    39    ar
76    36    37    ar
77    36    38    ar
78    39    40    ar
79    39    77    1
80    40    78    1
81    41    42    ar
82    41    79    1
83    42    80    1
84    43    44    1
85    43    81    1
86    43    82    1
87    44    83    1
88    44    84    1
@<TRIPOS>SUBSTRUCTURE
1   ZINC000065731166 1     RESIDUE    1   A     ZIN   1
