@<TRIPOS>MOLECULE
ZINC000004045293
27    28    1     0     0
SMALL
USER_CHARGES
@<TRIPOS>ATOM
1      O1      0.0021   -0.0041    0.0020 O.2      1 ZINC000004045293   -0.5800
2      C2     -0.0144    1.2137    0.0087 C.2      1 ZINC000004045293    0.5100
3      N3     -1.1875    1.8781    0.0291 N.pl3    1 ZINC000004045293   -0.6800
4      C4     -1.2057    3.2238    0.0370 C.2      1 ZINC000004045293    0.6500
5      O5     -2.2717    3.8085    0.0559 O.2      1 ZINC000004045293   -0.6100
6      N6     -0.0616    3.9315    0.0247 N.am     1 ZINC000004045293   -0.5600
7      C7     -0.1136    5.3955    0.0343 C.3      1 ZINC000004045293    0.3000
8      H8     -0.6153    5.7417    0.9379 H        1 ZINC000004045293    0.1100
9      C9     -0.8719    5.9007   -1.2120 C.3      1 ZINC000004045293   -0.1800
10     C10    -0.0462    7.1528   -1.6151 C.3      1 ZINC000004045293    0.0800
11     H11    -0.3546    8.0277   -1.0429 H        1 ZINC000004045293    0.0800
12     O12    -0.1393    7.4008   -3.0194 O.3      1 ZINC000004045293   -0.5500
13     C13     1.3827    6.7024   -1.2201 C.3      1 ZINC000004045293    0.0900
14     H14     1.8173    6.0879   -2.0086 H        1 ZINC000004045293    0.0900
15     C15     2.2676    7.9208   -0.9491 C.3      1 ZINC000004045293    0.0800
16     O16     3.6075    7.4906   -0.7009 O.3      1 ZINC000004045293   -0.5600
17     O17     1.2145    5.9293   -0.0190 O.3      1 ZINC000004045293   -0.3600
18     C18     1.1525    3.2953    0.0039 C.2      1 ZINC000004045293    0.1100
19     C19     1.1994    1.9455    0.0011 C.2      1 ZINC000004045293   -0.1100
20     F20     2.3870    1.3016   -0.0189 F        1 ZINC000004045293   -0.1400
21     H21    -0.8557    5.1534   -2.0053 H        1 ZINC000004045293    0.0900
22     H22    -1.8955    6.1763   -0.9580 H        1 ZINC000004045293    0.1000
23     H23    -1.0377    7.5812   -3.3282 H        1 ZINC000004045293    0.3900
24     H24     2.2527    8.5808   -1.8164 H        1 ZINC000004045293    0.0700
25     H25     1.8909    8.4569   -0.0780 H        1 ZINC000004045293    0.0500
26     H26     4.2254    8.2123   -0.5208 H        1 ZINC000004045293    0.3800
27     H27     2.0666    3.8703   -0.0062 H        1 ZINC000004045293    0.1600
@<TRIPOS>BOND
1     1     2     2
2     2     19    1
3     2     3     1
4     3     4     1
5     4     5     2
6     4     6     am
7     6     7     1
8     6     18    1
9     7     8     1
10    7     17    1
11    7     9     1
12    9     10    1
13    9     21    1
14    9     22    1
15    10    11    1
16    10    12    1
17    10    13    1
18    12    23    1
19    13    14    1
20    13    15    1
21    13    17    1
22    15    16    1
23    15    24    1
24    15    25    1
25    16    26    1
26    18    19    2
27    18    27    1
28    19    20    1
@<TRIPOS>SUBSTRUCTURE
1   ZINC000004045293 1     RESIDUE    1   A     ZIN   1
