@<TRIPOS>MOLECULE
ZINC000013282570
48    49    1     0     0
SMALL
USER_CHARGES
@<TRIPOS>ATOM
1      N1      0.0247   -1.0272   -0.6128 N.1      1 ZINC000013282570   -0.3900
2      C2      0.0939    0.0759   -0.8749 C.1      1 ZINC000013282570    0.3900
3      N3      0.1764    1.3918   -1.1877 N.pl3    1 ZINC000013282570   -0.6300
4      C4      1.3135    2.1060   -0.8710 C.2      1 ZINC000013282570    0.6200
5      N5      1.4268    3.3486   -1.2437 N.2      1 ZINC000013282570   -0.6000
6      C6      0.2970    4.0274   -1.8833 C.3      1 ZINC000013282570    0.0700
7      C7     -0.0662    5.2790   -1.0817 C.3      1 ZINC000013282570   -0.1100
8      C8     -1.2461    5.9879   -1.7496 C.3      1 ZINC000013282570   -0.1200
9      C9     -1.6092    7.2395   -0.9480 C.3      1 ZINC000013282570   -0.1200
10     C10    -2.7891    7.9484   -1.6160 C.3      1 ZINC000013282570   -0.1200
11     C11    -3.1523    9.2000   -0.8144 C.3      1 ZINC000013282570    0.0600
12     O12    -4.2543    9.8621   -1.4382 O.3      1 ZINC000013282570   -0.3100
13     C13    -4.7049   11.0004   -0.8477 C.ar     1 ZINC000013282570    0.1400
14     C14    -4.0949   11.4730    0.3051 C.ar     1 ZINC000013282570   -0.2000
15     C15    -4.5543   12.6301    0.9038 C.ar     1 ZINC000013282570   -0.0700
16     C16    -5.6224   13.3172    0.3547 C.ar     1 ZINC000013282570   -0.0700
17     Cl17   -6.1983   14.7707    1.1093 Cl       1 ZINC000013282570   -0.0700
18     C18    -6.2318   12.8476   -0.7953 C.ar     1 ZINC000013282570   -0.0700
19     C19    -5.7716   11.6940   -1.4002 C.ar     1 ZINC000013282570   -0.1400
20     N20     2.3287    1.5050   -0.1608 N.pl3    1 ZINC000013282570   -0.6600
21     C21     3.4784    2.2265    0.1582 C.ar     1 ZINC000013282570    0.2100
22     C22     3.4048    3.5781    0.4926 C.ar     1 ZINC000013282570   -0.1600
23     C23     4.5654    4.2560    0.8023 C.ar     1 ZINC000013282570    0.1100
24     N24     5.7332    3.6414    0.7847 N.ar     1 ZINC000013282570   -0.5000
25     C25     5.8442    2.3636    0.4734 C.ar     1 ZINC000013282570    0.1200
26     C26     4.7308    1.6137    0.1566 C.ar     1 ZINC000013282570   -0.2000
27     H27    -0.5623    1.8306   -1.6378 H        1 ZINC000013282570    0.4400
28     H28     0.5723    4.3133   -2.8984 H        1 ZINC000013282570    0.0800
29     H29    -0.5602    3.3549   -1.9151 H        1 ZINC000013282570    0.0300
30     H30    -0.3415    4.9931   -0.0665 H        1 ZINC000013282570    0.0600
31     H31     0.7910    5.9515   -1.0499 H        1 ZINC000013282570    0.0800
32     H32    -0.9707    6.2738   -2.7648 H        1 ZINC000013282570    0.0700
33     H33    -2.1033    5.3154   -1.7814 H        1 ZINC000013282570    0.0600
34     H34    -1.8846    6.9536    0.0671 H        1 ZINC000013282570    0.0700
35     H35    -0.7520    7.9120   -0.9162 H        1 ZINC000013282570    0.0700
36     H36    -2.5138    8.2343   -2.6311 H        1 ZINC000013282570    0.0800
37     H37    -3.6463    7.2758   -1.6478 H        1 ZINC000013282570    0.0700
38     H38    -3.4276    8.9140    0.2008 H        1 ZINC000013282570    0.0600
39     H39    -2.2951    9.8725   -0.7826 H        1 ZINC000013282570    0.0600
40     H40    -3.2617   10.9366    0.7344 H        1 ZINC000013282570    0.1400
41     H41    -4.0797   12.9984    1.8013 H        1 ZINC000013282570    0.1400
42     H42    -7.0651   13.3855   -1.2227 H        1 ZINC000013282570    0.1400
43     H43    -6.2475   11.3278   -2.2978 H        1 ZINC000013282570    0.1400
44     H44     2.2439    0.5797    0.1175 H        1 ZINC000013282570    0.4200
45     H45     2.4524    4.0871    0.5087 H        1 ZINC000013282570    0.1500
46     H46     4.5179    5.3032    1.0623 H        1 ZINC000013282570    0.1600
47     H47     6.8188    1.8983    0.4708 H        1 ZINC000013282570    0.1600
48     H48     4.8287    0.5686   -0.0972 H        1 ZINC000013282570    0.1400
@<TRIPOS>BOND
1     1     2     3
2     2     3     1
3     3     4     1
4     3     27    1
5     4     5     2
6     4     20    1
7     5     6     1
8     6     7     1
9     6     28    1
10    6     29    1
11    7     8     1
12    7     30    1
13    7     31    1
14    8     9     1
15    8     32    1
16    8     33    1
17    9     10    1
18    9     34    1
19    9     35    1
20    10    11    1
21    10    36    1
22    10    37    1
23    11    12    1
24    11    38    1
25    11    39    1
26    12    13    1
27    13    19    ar
28    13    14    ar
29    14    15    ar
30    14    40    1
31    15    16    ar
32    15    41    1
33    16    17    1
34    16    18    ar
35    18    19    ar
36    18    42    1
37    19    43    1
38    20    21    1
39    20    44    1
40    21    26    ar
41    21    22    ar
42    22    23    ar
43    22    45    1
44    23    24    ar
45    23    46    1
46    24    25    ar
47    25    26    ar
48    25    47    1
49    26    48    1
@<TRIPOS>SUBSTRUCTURE
1   ZINC000013282570 1     RESIDUE    1   A     ZIN   1
