@<TRIPOS>MOLECULE
ZINC000003643349
41    43    1     0     0
SMALL
USER_CHARGES
@<TRIPOS>ATOM
1      C1     -0.0178    1.4648    0.0101 C.3      1 ZINC000003643349    0.0200
2      N2      0.0021   -0.0041    0.0020 N.3      1 ZINC000003643349   -0.5400
3      C3      0.7062   -0.5275    1.1802 C.3      1 ZINC000003643349    0.0200
4      C4     -1.3597   -0.5486   -0.0825 C.3      1 ZINC000003643349    0.0500
5      C5     -1.9710   -0.1854   -1.4372 C.3      1 ZINC000003643349    0.0700
6      O6     -1.2274   -0.8444   -2.4960 O.3      1 ZINC000003643349   -0.3300
7      C7     -1.6388   -0.6279   -3.7553 C.2      1 ZINC000003643349    0.4400
8      O8     -2.5887    0.0885   -3.9658 O.2      1 ZINC000003643349   -0.4900
9      C9     -0.9158   -1.2784   -4.9065 C.3      1 ZINC000003643349    0.1600
10     H10    -0.8843   -2.3566   -4.7498 H        1 ZINC000003643349    0.1600
11     O11    -1.6116   -0.9974   -6.1209 O.3      1 ZINC000003643349   -0.2800
12     C12    -1.5575    0.2640   -6.6165 C.ar     1 ZINC000003643349    0.1300
13     C13    -2.6411    0.8194   -7.2735 C.ar     1 ZINC000003643349   -0.1300
14     C14    -2.5591    2.1059   -7.7744 C.ar     1 ZINC000003643349   -0.0800
15     C15    -1.3998    2.8458   -7.6249 C.ar     1 ZINC000003643349   -0.1400
16     C16    -0.3094    2.3051   -6.9692 C.ar     1 ZINC000003643349   -0.0800
17     C17    -0.3846    1.0164   -6.4614 C.ar     1 ZINC000003643349   -0.1200
18     C18     0.7503    0.3953   -5.7390 C.ar     1 ZINC000003643349   -0.0200
19     C19     2.0355    0.9141   -5.8064 C.ar     1 ZINC000003643349   -0.1100
20     C20     3.0587    0.2913   -5.1161 C.ar     1 ZINC000003643349   -0.1000
21     C21     2.8008   -0.8410   -4.3649 C.ar     1 ZINC000003643349   -0.1200
22     C22     1.5192   -1.3601   -4.2943 C.ar     1 ZINC000003643349   -0.0700
23     C23     0.4902   -0.7439   -4.9781 C.ar     1 ZINC000003643349   -0.1300
24     H24     1.0047    1.8421    0.0024 H        1 ZINC000003643349    0.0700
25     H25    -0.5450    1.8259   -0.8730 H        1 ZINC000003643349    0.0700
26     H26    -0.5280    1.8163    0.9069 H        1 ZINC000003643349    0.0300
27     H27     0.1617   -0.2488    2.0824 H        1 ZINC000003643349    0.0300
28     H28     0.7676   -1.6137    1.1140 H        1 ZINC000003643349    0.0700
29     H29     1.7116   -0.1084    1.2186 H        1 ZINC000003643349    0.0700
30     H30    -1.3244   -1.6331    0.0212 H        1 ZINC000003643349    0.0900
31     H31    -1.9698   -0.1268    0.7163 H        1 ZINC000003643349    0.0600
32     H32    -3.0106   -0.5117   -1.4659 H        1 ZINC000003643349    0.0800
33     H33    -1.9251    0.8944   -1.5788 H        1 ZINC000003643349    0.0700
34     H34    -3.5499    0.2488   -7.3954 H        1 ZINC000003643349    0.1300
35     H35    -3.4069    2.5363   -8.2866 H        1 ZINC000003643349    0.1300
36     H36    -1.3462    3.8487   -8.0220 H        1 ZINC000003643349    0.1300
37     H37     0.5956    2.8828   -6.8526 H        1 ZINC000003643349    0.1300
38     H38     2.2350    1.7982   -6.3937 H        1 ZINC000003643349    0.1300
39     H39     4.0615    0.6895   -5.1638 H        1 ZINC000003643349    0.1300
40     H40     3.6051   -1.3240   -3.8298 H        1 ZINC000003643349    0.1300
41     H41     1.3258   -2.2449   -3.7060 H        1 ZINC000003643349    0.1300
@<TRIPOS>BOND
1     1     2     1
2     1     24    1
3     1     25    1
4     1     26    1
5     2     3     1
6     2     4     1
7     3     27    1
8     3     28    1
9     3     29    1
10    4     5     1
11    4     30    1
12    4     31    1
13    5     6     1
14    5     32    1
15    5     33    1
16    6     7     1
17    7     8     2
18    7     9     1
19    9     10    1
20    9     23    1
21    9     11    1
22    11    12    1
23    12    17    ar
24    12    13    ar
25    13    14    ar
26    13    34    1
27    14    15    ar
28    14    35    1
29    15    16    ar
30    15    36    1
31    16    17    ar
32    16    37    1
33    17    18    1
34    18    23    ar
35    18    19    ar
36    19    20    ar
37    19    38    1
38    20    21    ar
39    20    39    1
40    21    22    ar
41    21    40    1
42    22    23    ar
43    22    41    1
@<TRIPOS>SUBSTRUCTURE
1   ZINC000003643349 1     RESIDUE    1   A     ZIN   1
