@<TRIPOS>MOLECULE
ZINC000003797478
39    40    1     0     0
SMALL
USER_CHARGES
@<TRIPOS>ATOM
1      C1     -0.0187    1.5258    0.0104 C.3      1 ZINC000003797478   -0.1500
2      C2      0.0021   -0.0041    0.0020 C.3      1 ZINC000003797478   -0.1200
3      C3      0.7421   -0.5109    1.2415 C.3      1 ZINC000003797478   -0.1100
4      C4      0.7625   -2.0177    1.2333 C.2      1 ZINC000003797478    0.4600
5      O5      0.2389   -2.6241    0.3288 O.2      1 ZINC000003797478   -0.5000
6      O6      1.3624   -2.6863    2.2307 O.3      1 ZINC000003797478   -0.3600
7      C7      1.3434   -4.1363    2.1573 C.3      1 ZINC000003797478    0.0600
8      H8      0.4426   -4.4575    1.6343 H        1 ZINC000003797478    0.1100
9      C9      2.5783   -4.6199    1.3819 C.3      1 ZINC000003797478    0.0400
10     N10     2.5574   -6.0764    1.3747 N.3      1 ZINC000003797478   -0.5100
11     C11     3.6313   -6.7454    0.6244 C.3      1 ZINC000003797478    0.0500
12     C12     3.6075   -8.1969    1.1730 C.3      1 ZINC000003797478   -0.1600
13     C13     2.9685   -8.0816    2.5803 C.3      1 ZINC000003797478    0.1200
14     H14     3.6526   -8.4560    3.3418 H        1 ZINC000003797478    0.0700
15     O15     1.7308   -8.7943    2.6276 O.3      1 ZINC000003797478   -0.5500
16     C16     2.7325   -6.5784    2.7636 C.3      1 ZINC000003797478    0.0700
17     H17     3.6020   -6.1131    3.2280 H        1 ZINC000003797478    0.0700
18     C18     1.4723   -6.2431    3.5494 C.3      1 ZINC000003797478    0.1500
19     H19     0.6024   -6.6769    3.0562 H        1 ZINC000003797478    0.0900
20     O20     1.5800   -6.7536    4.8797 O.3      1 ZINC000003797478   -0.5500
21     C21     1.3359   -4.7120    3.5729 C.3      1 ZINC000003797478    0.0800
22     H22     2.1766   -4.2846    4.1195 H        1 ZINC000003797478    0.0700
23     O23     0.1176   -4.3576    4.2303 O.3      1 ZINC000003797478   -0.5600
24     H24     1.0039    1.9031    0.0027 H        1 ZINC000003797478    0.0600
25     H25    -0.5459    1.8868   -0.8726 H        1 ZINC000003797478    0.0600
26     H26    -0.5289    1.8773    0.9072 H        1 ZINC000003797478    0.0600
27     H27    -1.0205   -0.3814    0.0098 H        1 ZINC000003797478    0.0700
28     H28     0.5123   -0.3556   -0.8948 H        1 ZINC000003797478    0.0700
29     H29     1.7647   -0.1336    1.2338 H        1 ZINC000003797478    0.1100
30     H30     0.2319   -0.1594    2.1383 H        1 ZINC000003797478    0.1100
31     H31     2.5419   -4.2452    0.3590 H        1 ZINC000003797478    0.0900
32     H32     3.4846   -4.2662    1.8733 H        1 ZINC000003797478    0.0500
33     H33     3.4166   -6.7354   -0.4441 H        1 ZINC000003797478    0.0900
34     H34     4.5928   -6.2739    0.8280 H        1 ZINC000003797478    0.0500
35     H35     2.9991   -8.8345    0.5316 H        1 ZINC000003797478    0.0900
36     H36     4.6212   -8.5904    1.2482 H        1 ZINC000003797478    0.0800
37     H37     1.8166   -9.7428    2.4604 H        1 ZINC000003797478    0.3800
38     H38     0.8083   -6.5735    5.4339 H        1 ZINC000003797478    0.3900
39     H39    -0.0378   -3.4046    4.2837 H        1 ZINC000003797478    0.3900
@<TRIPOS>BOND
1     1     2     1
2     1     24    1
3     1     25    1
4     1     26    1
5     2     3     1
6     2     27    1
7     2     28    1
8     3     4     1
9     3     29    1
10    3     30    1
11    4     5     2
12    4     6     1
13    6     7     1
14    7     8     1
15    7     21    1
16    7     9     1
17    9     10    1
18    9     31    1
19    9     32    1
20    10    16    1
21    10    11    1
22    11    12    1
23    11    33    1
24    11    34    1
25    12    13    1
26    12    35    1
27    12    36    1
28    13    14    1
29    13    15    1
30    13    16    1
31    15    37    1
32    16    17    1
33    16    18    1
34    18    19    1
35    18    20    1
36    18    21    1
37    20    38    1
38    21    22    1
39    21    23    1
40    23    39    1
@<TRIPOS>SUBSTRUCTURE
1   ZINC000003797478 1     RESIDUE    1   A     ZIN   1
