@<TRIPOS>MOLECULE
ZINC000095571779
42    44    1     0     0
SMALL
USER_CHARGES
@<TRIPOS>ATOM
1      C1     -0.0434    1.4629    0.0306 C.3      1 ZINC000095571779    0.1100
2      N2     -0.0168   -0.0017    0.0113 N.am     1 ZINC000095571779   -0.6000
3      C3     -0.1256   -0.7934   -1.0710 C.2      1 ZINC000095571779    0.7100
4      O4     -0.2646   -0.3744   -2.2033 O.2      1 ZINC000095571779   -0.5200
5      N5     -0.0637   -2.0935   -0.7614 N.am     1 ZINC000095571779   -0.5300
6      C6     -0.1499   -3.1291   -1.6977 C.ar     1 ZINC000095571779    0.1600
7      C7     -0.1759   -2.8352   -3.0562 C.ar     1 ZINC000095571779   -0.1000
8      C8     -0.2613   -3.8522   -3.9812 C.ar     1 ZINC000095571779   -0.0500
9      C9     -0.3214   -5.1808   -3.5526 C.ar     1 ZINC000095571779    0.0200
10     C10    -0.4097   -6.2411   -4.5111 C.1      1 ZINC000095571779    0.2300
11     N11    -0.4798   -7.0821   -5.2715 N.1      1 ZINC000095571779   -0.3700
12     C12    -0.2946   -5.4724   -2.1859 C.ar     1 ZINC000095571779   -0.1200
13     C13    -0.3586   -6.9035   -1.7183 C.3      1 ZINC000095571779    0.5100
14     F14    -0.3168   -6.9397   -0.3204 F        1 ZINC000095571779   -0.1700
15     F15    -1.5492   -7.4871   -2.1644 F        1 ZINC000095571779   -0.1700
16     F16     0.7308   -7.6124   -2.2359 F        1 ZINC000095571779   -0.1700
17     C17    -0.2038   -4.4504   -1.2674 C.ar     1 ZINC000095571779   -0.1000
18     C18     0.0930   -2.2821    0.5638 C.2      1 ZINC000095571779    0.5300
19     O19     0.1822   -3.3410    1.1472 O.2      1 ZINC000095571779   -0.4100
20     C20     0.1407   -0.8946    1.1723 C.3      1 ZINC000095571779    0.1700
21     C21    -1.0156   -0.6975    2.1547 C.3      1 ZINC000095571779    0.0800
22     O22    -0.9025   -1.6438    3.2195 O.3      1 ZINC000095571779   -0.5500
23     C23     1.4637   -0.6601    1.8547 C.ar     1 ZINC000095571779   -0.0900
24     C24     2.6199   -1.2030    1.3260 C.ar     1 ZINC000095571779   -0.1000
25     C25     3.8335   -0.9880    1.9519 C.ar     1 ZINC000095571779   -0.1100
26     C26     3.8910   -0.2297    3.1063 C.ar     1 ZINC000095571779   -0.1000
27     C27     2.7350    0.3140    3.6345 C.ar     1 ZINC000095571779   -0.1200
28     C28     1.5220    0.1025    3.0062 C.ar     1 ZINC000095571779   -0.0800
29     H29     0.9769    1.8453    0.0017 H        1 ZINC000095571779    0.0700
30     H30    -0.5929    1.8278   -0.8372 H        1 ZINC000095571779    0.0900
31     H31    -0.5341    1.8054    0.9417 H        1 ZINC000095571779    0.0800
32     H32    -0.1294   -1.8081   -3.3867 H        1 ZINC000095571779    0.1800
33     H33    -0.2821   -3.6231   -5.0364 H        1 ZINC000095571779    0.1600
34     H34    -0.1831   -4.6748   -0.2111 H        1 ZINC000095571779    0.1800
35     H35    -0.9788    0.3131    2.5612 H        1 ZINC000095571779    0.0800
36     H36    -1.9626   -0.8461    1.6357 H        1 ZINC000095571779    0.0600
37     H37    -1.6042   -1.5767    3.8814 H        1 ZINC000095571779    0.3900
38     H38     2.5749   -1.7955    0.4241 H        1 ZINC000095571779    0.1100
39     H39     4.7367   -1.4127    1.5393 H        1 ZINC000095571779    0.1300
40     H40     4.8391   -0.0623    3.5957 H        1 ZINC000095571779    0.1300
41     H41     2.7799    0.9061    4.5365 H        1 ZINC000095571779    0.1300
42     H42     0.6188    0.5272    3.4188 H        1 ZINC000095571779    0.1300
@<TRIPOS>BOND
1     1     2     1
2     1     29    1
3     1     30    1
4     1     31    1
5     2     20    1
6     2     3     am
7     3     4     2
8     3     5     am
9     5     6     1
10    5     18    am
11    6     17    ar
12    6     7     ar
13    7     8     ar
14    7     32    1
15    8     9     ar
16    8     33    1
17    9     10    1
18    9     12    ar
19    10    11    3
20    12    13    1
21    12    17    ar
22    13    14    1
23    13    15    1
24    13    16    1
25    17    34    1
26    18    19    2
27    18    20    1
28    20    21    1
29    20    23    1
30    21    22    1
31    21    35    1
32    21    36    1
33    22    37    1
34    23    28    ar
35    23    24    ar
36    24    25    ar
37    24    38    1
38    25    26    ar
39    25    39    1
40    26    27    ar
41    26    40    1
42    27    28    ar
43    27    41    1
44    28    42    1
@<TRIPOS>SUBSTRUCTURE
1   ZINC000095571779 1     RESIDUE    1   A     ZIN   1
