@<TRIPOS>MOLECULE
ZINC000001533379
66    69    1     0     0
SMALL
USER_CHARGES
@<TRIPOS>ATOM
1      C1      0.0011    1.4813    0.3484 C.3      1 ZINC000001533379   -0.0900
2      C2      0.0114   -0.0144    0.1644 C.2      1 ZINC000001533379   -0.2700
3      C3     -1.1589   -0.7055    0.1062 C.2      1 ZINC000001533379    0.2000
4      C4     -2.4290    0.0380    0.2265 C.ar     1 ZINC000001533379   -0.0700
5      C5     -2.6848    1.1291   -0.6070 C.ar     1 ZINC000001533379   -0.0800
6      C6     -3.8735    1.8188   -0.4894 C.ar     1 ZINC000001533379   -0.1200
7      C7     -4.8112    1.4323    0.4518 C.ar     1 ZINC000001533379   -0.0900
8      C8     -4.5644    0.3523    1.2809 C.ar     1 ZINC000001533379   -0.1200
9      C9     -3.3824   -0.3501    1.1704 C.ar     1 ZINC000001533379   -0.0800
10     O10    -1.2039   -2.0363   -0.0567 O.3      1 ZINC000001533379   -0.2100
11     C11    -0.0883   -2.7875   -0.1745 C.ar     1 ZINC000001533379    0.1100
12     C12    -0.1724   -4.1640   -0.3427 C.ar     1 ZINC000001533379   -0.1000
13     C13     0.9771   -4.9154   -0.4612 C.ar     1 ZINC000001533379   -0.1500
14     C14     2.2284   -4.3089   -0.4143 C.ar     1 ZINC000001533379    0.1000
15     O15     3.3528   -5.0640   -0.5322 O.3      1 ZINC000001533379   -0.3100
16     C16     3.1742   -6.4716   -0.7016 C.3      1 ZINC000001533379    0.0600
17     C17     4.5413   -7.1491   -0.8154 C.3      1 ZINC000001533379   -0.1200
18     C18     4.3500   -8.6563   -0.9968 C.3      1 ZINC000001533379   -0.1200
19     C19     5.7171   -9.3338   -1.1106 C.3      1 ZINC000001533379   -0.1200
20     C20     5.5258  -10.8409   -1.2920 C.3      1 ZINC000001533379   -0.1500
21     C21     6.8929  -11.5185   -1.4058 C.3      1 ZINC000001533379   -0.0100
22     N22     6.7092  -12.9655   -1.5799 N.4      1 ZINC000001533379   -0.3900
23     H23     6.1430  -13.3248   -0.8260 H        1 ZINC000001533379    0.4200
24     C24     8.0186  -13.6286   -1.5654 C.3      1 ZINC000001533379    0.0000
25     C25     7.8285  -15.1437   -1.6651 C.3      1 ZINC000001533379   -0.1400
26     C26     7.1004  -15.4764   -2.9707 C.3      1 ZINC000001533379    0.1000
27     O27     6.8537  -16.8825   -3.0353 O.3      1 ZINC000001533379   -0.5500
28     C28     5.7690  -14.7207   -3.0081 C.3      1 ZINC000001533379   -0.1800
29     C29     6.0371  -13.2214   -2.8595 C.3      1 ZINC000001533379   -0.0100
30     C30     2.3313   -2.9399   -0.2484 C.ar     1 ZINC000001533379   -0.0600
31     C31     1.1737   -2.1740   -0.1275 C.ar     1 ZINC000001533379   -0.1800
32     C32     1.2377   -0.7089    0.0452 C.2      1 ZINC000001533379    0.4300
33     O33     2.3060   -0.1214    0.0874 O.2      1 ZINC000001533379   -0.4600
34     H34     1.0243    1.8411    0.4569 H        1 ZINC000001533379    0.0800
35     H35    -0.4590    1.9512   -0.5209 H        1 ZINC000001533379    0.0700
36     H36    -0.5694    1.7335    1.2423 H        1 ZINC000001533379    0.0700
37     H37    -1.9534    1.4322   -1.3416 H        1 ZINC000001533379    0.1300
38     H38    -4.0726    2.6627   -1.1333 H        1 ZINC000001533379    0.1300
39     H39    -5.7400    1.9764    0.5401 H        1 ZINC000001533379    0.1300
40     H40    -5.3006    0.0560    2.0134 H        1 ZINC000001533379    0.1300
41     H41    -3.1911   -1.1930    1.8179 H        1 ZINC000001533379    0.1300
42     H42    -1.1385   -4.6454   -0.3802 H        1 ZINC000001533379    0.1500
43     H43     0.9058   -5.9852   -0.5914 H        1 ZINC000001533379    0.1400
44     H44     2.6387   -6.8759    0.1574 H        1 ZINC000001533379    0.0600
45     H45     2.5995   -6.6583   -1.6088 H        1 ZINC000001533379    0.0600
46     H46     5.0768   -6.7449   -1.6744 H        1 ZINC000001533379    0.0800
47     H47     5.1160   -6.9624    0.0918 H        1 ZINC000001533379    0.0800
48     H48     3.8145   -9.0605   -0.1378 H        1 ZINC000001533379    0.0700
49     H49     3.7753   -8.8430   -1.9040 H        1 ZINC000001533379    0.0700
50     H50     6.2526   -8.9295   -1.9696 H        1 ZINC000001533379    0.0800
51     H51     6.2918   -9.1471   -0.2034 H        1 ZINC000001533379    0.0800
52     H52     4.9903  -11.2452   -0.4330 H        1 ZINC000001533379    0.0900
53     H53     4.9511  -11.0276   -2.1992 H        1 ZINC000001533379    0.0900
54     H54     7.4284  -11.1142   -2.2648 H        1 ZINC000001533379    0.1300
55     H55     7.4676  -11.3317   -0.4986 H        1 ZINC000001533379    0.1300
56     H56     8.6110  -13.2808   -2.4117 H        1 ZINC000001533379    0.1300
57     H57     8.5369  -13.3883   -0.6371 H        1 ZINC000001533379    0.1400
58     H58     8.8019  -15.6341   -1.6560 H        1 ZINC000001533379    0.1200
59     H59     7.2364  -15.4927   -0.8191 H        1 ZINC000001533379    0.1000
60     H60     7.7159  -15.1750   -3.8183 H        1 ZINC000001533379    0.0700
61     H61     6.3943  -17.1647   -3.8380 H        1 ZINC000001533379    0.3900
62     H62     5.2704  -14.9087   -3.9590 H        1 ZINC000001533379    0.1100
63     H63     5.1342  -15.0609   -2.1900 H        1 ZINC000001533379    0.1000
64     H64     5.0918  -12.6794   -2.8858 H        1 ZINC000001533379    0.1300
65     H65     6.6717  -12.8832   -3.6786 H        1 ZINC000001533379    0.1300
66     H66     3.3020   -2.4679   -0.2122 H        1 ZINC000001533379    0.1500
@<TRIPOS>BOND
1     1     2     1
2     1     34    1
3     1     35    1
4     1     36    1
5     2     32    1
6     2     3     2
7     3     4     1
8     3     10    1
9     4     9     ar
10    4     5     ar
11    5     6     ar
12    5     37    1
13    6     7     ar
14    6     38    1
15    7     8     ar
16    7     39    1
17    8     9     ar
18    8     40    1
19    9     41    1
20    10    11    1
21    11    31    ar
22    11    12    ar
23    12    13    ar
24    12    42    1
25    13    14    ar
26    13    43    1
27    14    15    1
28    14    30    ar
29    15    16    1
30    16    17    1
31    16    44    1
32    16    45    1
33    17    18    1
34    17    46    1
35    17    47    1
36    18    19    1
37    18    48    1
38    18    49    1
39    19    20    1
40    19    50    1
41    19    51    1
42    20    21    1
43    20    52    1
44    20    53    1
45    21    22    1
46    21    54    1
47    21    55    1
48    22    23    1
49    22    29    1
50    22    24    1
51    24    25    1
52    24    56    1
53    24    57    1
54    25    26    1
55    25    58    1
56    25    59    1
57    26    27    1
58    26    28    1
59    26    60    1
60    27    61    1
61    28    29    1
62    28    62    1
63    28    63    1
64    29    64    1
65    29    65    1
66    30    31    ar
67    30    66    1
68    31    32    1
69    32    33    2
@<TRIPOS>SUBSTRUCTURE
1   ZINC000001533379 1     RESIDUE    1   A     ZIN   1
