@<TRIPOS>MOLECULE
ZINC000000003938
35    37    1     0     0
SMALL
USER_CHARGES
@<TRIPOS>ATOM
1      C1    -10.6808   -0.2088    0.8127 C.3      1 ZINC000000003938    0.0300
2      O2     -9.5619    0.3716    0.1396 O.3      1 ZINC000000003938   -0.3200
3      C3     -8.4123   -0.3546    0.1138 C.ar     1 ZINC000000003938    0.1000
4      C4     -8.3665   -1.6017    0.7193 C.ar     1 ZINC000000003938   -0.1800
5      C5     -7.1996   -2.3398    0.6936 C.ar     1 ZINC000000003938   -0.1100
6      C6     -6.0718   -1.8332    0.0609 C.ar     1 ZINC000000003938    0.1400
7      N7     -4.8890   -2.5806    0.0340 N.pl3    1 ZINC000000003938   -0.6400
8      C8     -4.9400   -3.9749    0.1379 C.2      1 ZINC000000003938    0.3300
9      N9     -6.0299   -4.7065    0.1509 N.2      1 ZINC000000003938   -0.3300
10     N10    -5.6534   -6.0507    0.2678 N.pl3    1 ZINC000000003938   -0.3200
11     C11    -6.5223   -7.1486    0.3168 C.ar     1 ZINC000000003938    0.1700
12     C12    -6.0125   -8.4344    0.4399 C.ar     1 ZINC000000003938   -0.1500
13     C13    -6.8717   -9.5147    0.4884 C.ar     1 ZINC000000003938   -0.0900
14     C14    -8.2383   -9.3169    0.4146 C.ar     1 ZINC000000003938   -0.1300
15     C15    -8.7491   -8.0377    0.2916 C.ar     1 ZINC000000003938   -0.0900
16     C16    -7.8953   -6.9529    0.2482 C.ar     1 ZINC000000003938   -0.1200
17     C17    -4.2976   -6.1018    0.3248 C.2      1 ZINC000000003938    0.0800
18     C18    -3.8334   -4.8345    0.2404 C.2      1 ZINC000000003938   -0.2800
19     C19    -6.1187   -0.5846   -0.5455 C.ar     1 ZINC000000003938   -0.1200
20     C20    -7.2879    0.1499   -0.5230 C.ar     1 ZINC000000003938   -0.1200
21     H21   -11.5303    0.4721    0.7591 H        1 ZINC000000003938    0.1000
22     H22   -10.9418   -1.1535    0.3357 H        1 ZINC000000003938    0.0500
23     H23   -10.4239   -0.3877    1.8568 H        1 ZINC000000003938    0.0500
24     H24    -9.2436   -1.9955    1.2113 H        1 ZINC000000003938    0.1300
25     H25    -7.1640   -3.3105    1.1657 H        1 ZINC000000003938    0.1400
26     H26    -4.0338   -2.1320   -0.0568 H        1 ZINC000000003938    0.4200
27     H27    -4.9453   -8.5896    0.4972 H        1 ZINC000000003938    0.1300
28     H28    -6.4758  -10.5149    0.5837 H        1 ZINC000000003938    0.1300
29     H29    -8.9081  -10.1632    0.4528 H        1 ZINC000000003938    0.1300
30     H30    -9.8169   -7.8865    0.2338 H        1 ZINC000000003938    0.1300
31     H31    -8.2949   -5.9541    0.1525 H        1 ZINC000000003938    0.1400
32     H32    -3.6974   -6.9950    0.4167 H        1 ZINC000000003938    0.1800
33     H33    -2.7957   -4.5355    0.2562 H        1 ZINC000000003938    0.1600
34     H34    -5.2421   -0.1897   -1.0374 H        1 ZINC000000003938    0.1300
35     H35    -7.3247    1.1209   -0.9945 H        1 ZINC000000003938    0.1300
@<TRIPOS>BOND
1     1     2     1
2     1     21    1
3     1     22    1
4     1     23    1
5     2     3     1
6     3     20    ar
7     3     4     ar
8     4     5     ar
9     4     24    1
10    5     6     ar
11    5     25    1
12    6     7     1
13    6     19    ar
14    7     8     1
15    7     26    1
16    8     18    1
17    8     9     2
18    9     10    1
19    10    11    1
20    10    17    1
21    11    16    ar
22    11    12    ar
23    12    13    ar
24    12    27    1
25    13    14    ar
26    13    28    1
27    14    15    ar
28    14    29    1
29    15    16    ar
30    15    30    1
31    16    31    1
32    17    18    2
33    17    32    1
34    18    33    1
35    19    20    ar
36    19    34    1
37    20    35    1
@<TRIPOS>SUBSTRUCTURE
1   ZINC000000003938 1     RESIDUE    1   A     ZIN   1
