@<TRIPOS>MOLECULE
ZINC000000583671
47    50    1     0     0
SMALL
USER_CHARGES
@<TRIPOS>ATOM
1      C1      1.3284    1.7688    0.9976 C.3      1 ZINC000000583671   -0.1500
2      C2      1.6627    0.2758    0.9967 C.3      1 ZINC000000583671    0.0500
3      O3      0.5619   -0.4591    1.5355 O.3      1 ZINC000000583671   -0.3100
4      C4      0.6970   -1.8093    1.6059 C.ar     1 ZINC000000583671    0.1500
5      C5      1.8693   -2.4119    1.1698 C.ar     1 ZINC000000583671   -0.2100
6      C6      2.0096   -3.7819    1.2400 C.ar     1 ZINC000000583671   -0.0400
7      C7      0.9726   -4.5621    1.7500 C.ar     1 ZINC000000583671   -0.0700
8      C8      1.1202   -6.0352    1.8273 C.2      1 ZINC000000583671    0.1600
9      N9      0.1862   -6.9213    1.5242 N.2      1 ZINC000000583671   -0.2400
10     N10     0.6933   -8.2105    1.7204 N.pl3    1 ZINC000000583671   -0.1700
11     N11     0.1341   -9.4831    1.5523 N.2      1 ZINC000000583671   -0.2100
12     C12     0.8330  -10.5582    1.8102 C.2      1 ZINC000000583671    0.1200
13     C13     2.1538  -10.4690    2.2602 C.2      1 ZINC000000583671   -0.1600
14     C14     2.7340   -9.2466    2.4370 C.2      1 ZINC000000583671   -0.0400
15     C15     1.9887   -8.0919    2.1607 C.2      1 ZINC000000583671    0.0700
16     C16     2.2783   -6.7235    2.2292 C.2      1 ZINC000000583671   -0.1900
17     C17     3.5611   -6.1163    2.6480 C.ar     1 ZINC000000583671    0.0600
18     C18     3.6324   -5.3719    3.8262 C.ar     1 ZINC000000583671   -0.1200
19     C19     4.8314   -4.8083    4.2111 C.ar     1 ZINC000000583671   -0.0200
20     C20     5.9615   -4.9795    3.4315 C.ar     1 ZINC000000583671   -0.6600
21     S21     7.4890   -4.2564    3.9302 S.o2     1 ZINC000000583671    2.5000
22     C22     8.2787   -5.5283    4.9545 C.3      1 ZINC000000583671   -0.6500
23     O23     8.2053   -4.0784    2.7160 O.2      1 ZINC000000583671   -0.9400
24     O24     7.1063   -3.1425    4.7252 O.2      1 ZINC000000583671   -0.9400
25     C25     5.8975   -5.7165    2.2623 C.ar     1 ZINC000000583671   -0.0200
26     C26     4.7060   -6.2904    1.8695 C.ar     1 ZINC000000583671   -0.1300
27     C27    -0.2032   -3.9539    2.1875 C.ar     1 ZINC000000583671   -0.0400
28     C28    -0.3353   -2.5829    2.1192 C.ar     1 ZINC000000583671   -0.1500
29     H29     1.1371    2.0977    2.0191 H        1 ZINC000000583671    0.0700
30     H30     2.1680    2.3294    0.5867 H        1 ZINC000000583671    0.0800
31     H31     0.4419    1.9430    0.3878 H        1 ZINC000000583671    0.0700
32     H32     1.8540   -0.0531   -0.0247 H        1 ZINC000000583671    0.0600
33     H33     2.5491    0.1015    1.6066 H        1 ZINC000000583671    0.0700
34     H34     2.6722   -1.8070    0.7749 H        1 ZINC000000583671    0.1300
35     H35     2.9215   -4.2500    0.8999 H        1 ZINC000000583671    0.1300
36     H36     0.3825  -11.5303    1.6738 H        1 ZINC000000583671    0.2100
37     H37     2.7149  -11.3680    2.4684 H        1 ZINC000000583671    0.1600
38     H38     3.7535   -9.1699    2.7849 H        1 ZINC000000583671    0.1600
39     H39     2.7507   -5.2369    4.4352 H        1 ZINC000000583671    0.1300
40     H40     4.8878   -4.2319    5.1227 H        1 ZINC000000583671    0.1400
41     H41     8.4299   -6.4302    4.3615 H        1 ZINC000000583671    0.1300
42     H42     9.2416   -5.1618    5.3105 H        1 ZINC000000583671    0.1300
43     H43     7.6392   -5.7569    5.8071 H        1 ZINC000000583671    0.1300
44     H44     6.7833   -5.8465    1.6581 H        1 ZINC000000583671    0.1400
45     H45     4.6574   -6.8658    0.9568 H        1 ZINC000000583671    0.1300
46     H46    -1.0082   -4.5555    2.5831 H        1 ZINC000000583671    0.1400
47     H47    -1.2459   -2.1112    2.4579 H        1 ZINC000000583671    0.1400
@<TRIPOS>BOND
1     1     2     1
2     1     29    1
3     1     30    1
4     1     31    1
5     2     3     1
6     2     32    1
7     2     33    1
8     3     4     1
9     4     28    ar
10    4     5     ar
11    5     6     ar
12    5     34    1
13    6     7     ar
14    6     35    1
15    7     8     1
16    7     27    ar
17    8     16    1
18    8     9     2
19    9     10    1
20    10    15    1
21    10    11    1
22    11    12    2
23    12    13    1
24    12    36    1
25    13    14    2
26    13    37    1
27    14    15    1
28    14    38    1
29    15    16    2
30    16    17    1
31    17    26    ar
32    17    18    ar
33    18    19    ar
34    18    39    1
35    19    20    ar
36    19    40    1
37    20    21    1
38    20    25    ar
39    21    22    1
40    21    23    2
41    21    24    2
42    22    41    1
43    22    42    1
44    22    43    1
45    25    26    ar
46    25    44    1
47    26    45    1
48    27    28    ar
49    27    46    1
50    28    47    1
@<TRIPOS>SUBSTRUCTURE
1   ZINC000000583671 1     RESIDUE    1   A     ZIN   1
