@<TRIPOS>MOLECULE
ZINC000001552379
53    57    1     0     0
SMALL
USER_CHARGES
@<TRIPOS>ATOM
1      C1     -7.2380   -0.8226   -1.2658 C.3      1 ZINC000001552379   -0.1500
2      C2     -5.7944   -0.8227   -1.7728 C.3      1 ZINC000001552379   -0.1200
3      C3     -5.3912    0.6004   -2.1641 C.3      1 ZINC000001552379   -0.1100
4      C4     -3.9477    0.6004   -2.6710 C.3      1 ZINC000001552379   -0.0300
5      C5     -3.5506    2.0021   -3.0564 C.2      1 ZINC000001552379    0.2000
6      N6     -3.7006    2.5299   -4.2446 N.2      1 ZINC000001552379   -0.5000
7      C7     -3.2459    3.7829   -4.2436 C.2      1 ZINC000001552379    0.0700
8      Cl8    -3.2387    4.8731   -5.5945 Cl       1 ZINC000001552379   -0.0100
9      C9     -2.7864    4.0576   -2.9699 C.2      1 ZINC000001552379   -0.0200
10     C10    -2.2215    5.2744   -2.5109 C.2      1 ZINC000001552379    0.5500
11     O11    -1.8520    5.3778   -1.3476 O.co2    1 ZINC000001552379   -0.6800
12     O12    -2.1028    6.2223   -3.2778 O.co2    1 ZINC000001552379   -0.6600
13     N13    -2.9875    2.9024   -2.2332 N.pl3    1 ZINC000001552379   -0.4100
14     C14    -2.6548    2.7019   -0.8207 C.3      1 ZINC000001552379    0.1500
15     C15    -1.2513    2.1651   -0.7064 C.ar     1 ZINC000001552379   -0.1300
16     C16    -1.0342    0.7950   -0.7195 C.ar     1 ZINC000001552379   -0.0800
17     C17     0.2418    0.2829   -0.6103 C.ar     1 ZINC000001552379   -0.1100
18     C18     1.3252    1.1444   -0.4974 C.ar     1 ZINC000001552379    0.0900
19     O19     2.6543    0.9477   -0.3832 O.3      1 ZINC000001552379   -0.1500
20     C20     3.3092    2.1236   -0.3023 C.2      1 ZINC000001552379    0.1600
21     C21     4.7709    2.2731   -0.1688 C.ar     1 ZINC000001552379   -0.0400
22     C22     5.4859    3.0350   -1.0929 C.ar     1 ZINC000001552379   -0.0800
23     C23     6.8526    3.1719   -0.9631 C.ar     1 ZINC000001552379   -0.1400
24     C24     7.5234    2.5573    0.0814 C.ar     1 ZINC000001552379   -0.1000
25     C25     6.8337    1.7993    1.0059 C.ar     1 ZINC000001552379   -0.1100
26     C26     5.4526    1.6526    0.8955 C.ar     1 ZINC000001552379    0.0800
27     C27     4.7087    0.8467    1.8861 C.2      1 ZINC000001552379    0.0600
28     N28     3.3836    0.7093    1.9712 N.2      1 ZINC000001552379   -0.3400
29     N29     3.1389   -0.0759    2.9640 N.2      1 ZINC000001552379   -0.1900
30     N30     4.2492   -0.4293    3.5103 N.2      1 ZINC000001552379   -0.2000
31     N31     5.2292    0.1173    2.8756 N.pl3    1 ZINC000001552379   -0.3700
32     C32     2.4226    3.1482   -0.3612 C.2      1 ZINC000001552379   -0.1800
33     Br33    2.8147    4.9968   -0.2900 Br       1 ZINC000001552379   -0.0100
34     C34     1.0996    2.5329   -0.4906 C.ar     1 ZINC000001552379   -0.1100
35     C35    -0.1994    3.0317   -0.5962 C.ar     1 ZINC000001552379   -0.0300
36     H36    -7.8995   -0.4610   -2.0530 H        1 ZINC000001552379    0.0500
37     H37    -7.5252   -1.8365   -0.9871 H        1 ZINC000001552379    0.0500
38     H38    -7.3176   -0.1704   -0.3962 H        1 ZINC000001552379    0.0500
39     H39    -5.7148   -1.4750   -2.6425 H        1 ZINC000001552379    0.0600
40     H40    -5.1329   -1.1843   -0.9856 H        1 ZINC000001552379    0.0600
41     H41    -5.4709    1.2527   -1.2944 H        1 ZINC000001552379    0.0600
42     H42    -6.0528    0.9621   -2.9513 H        1 ZINC000001552379    0.0700
43     H43    -3.8680   -0.0519   -3.5407 H        1 ZINC000001552379    0.0900
44     H44    -3.2861    0.2387   -1.8838 H        1 ZINC000001552379    0.0800
45     H45    -3.3531    1.9899   -0.3805 H        1 ZINC000001552379    0.0900
46     H46    -2.7243    3.6528   -0.2925 H        1 ZINC000001552379    0.1200
47     H47    -1.8738    0.1220   -0.8116 H        1 ZINC000001552379    0.1300
48     H48     0.3984   -0.7857   -0.6170 H        1 ZINC000001552379    0.1300
49     H49     4.9699    3.5178   -1.9095 H        1 ZINC000001552379    0.1300
50     H50     7.4031    3.7625   -1.6804 H        1 ZINC000001552379    0.1200
51     H51     8.5934    2.6716    0.1727 H        1 ZINC000001552379    0.1200
52     H52     7.3641    1.3233    1.8174 H        1 ZINC000001552379    0.1300
53     H53    -0.3731    4.0977   -0.5914 H        1 ZINC000001552379    0.1600
@<TRIPOS>BOND
1     1     2     1
2     1     36    1
3     1     37    1
4     1     38    1
5     2     3     1
6     2     39    1
7     2     40    1
8     3     4     1
9     3     41    1
10    3     42    1
11    4     5     1
12    4     43    1
13    4     44    1
14    5     13    1
15    5     6     2
16    6     7     1
17    7     8     1
18    7     9     2
19    9     10    1
20    9     13    1
21    10    11    ar
22    10    12    ar
23    13    14    1
24    14    15    1
25    14    45    1
26    14    46    1
27    15    35    ar
28    15    16    ar
29    16    17    ar
30    16    47    1
31    17    18    ar
32    17    48    1
33    18    34    ar
34    18    19    1
35    19    20    1
36    20    21    1
37    20    32    2
38    21    26    ar
39    21    22    ar
40    22    23    ar
41    22    49    1
42    23    24    ar
43    23    50    1
44    24    25    ar
45    24    51    1
46    25    26    ar
47    25    52    1
48    26    27    1
49    27    31    1
50    27    28    2
51    28    29    1
52    29    30    2
53    30    31    1
54    32    33    1
55    32    34    1
56    34    35    ar
57    35    53    1
@<TRIPOS>SUBSTRUCTURE
1   ZINC000001552379 1     RESIDUE    1   A     ZIN   1
