@<TRIPOS>MOLECULE
ZINC000003953158
  45   47    0    0    0
SMALL
USER_CHARGES
NO_NAME
@<TRIPOS>ATOM
    1 C1       -0.1065     1.6105    -0.1758 C.3    1 <0>      -0.1500
    2 C2       -0.0819     0.0809    -0.1466 C.3    1 <0>       0.0600
    3 O3        0.6107    -0.4064    -1.2977 O.3    1 <0>      -0.3700
    4 C4        0.6910    -1.8314    -1.3676 C.3    1 <0>       0.0700
    5 C5        1.4489    -2.2379    -2.6330 C.3    1 <0>      -0.1100
    6 H6        2.4221    -1.7474    -2.6491 H      1 <0>       0.1100
    7 C7        1.6407    -3.7629    -2.6506 C.3    1 <0>       0.0400
    8 H8        2.0904    -4.1308    -1.7284 H      1 <0>       0.1500
    9 C9        0.2641    -4.4095    -2.9282 C.3    1 <0>      -0.1500
   10 C10       0.1679    -4.4894    -4.4660 C.3    1 <0>      -0.1400
   11 C11       1.4953    -3.8842    -4.9778 C.3    1 <0>       0.0400
   12 H12       1.8350    -4.3560    -5.8999 H      1 <0>       0.1500
   13 C13       1.2883    -2.3702    -5.1444 C.3    1 <0>      -0.1400
   14 C14       0.6447    -1.8226    -3.8683 C.3    1 <0>      -0.0500
   15 H15      -0.3599    -2.2326    -3.7641 H      1 <0>       0.1000
   16 C16       0.5668    -0.3199    -3.9512 C.ar   1 <0>      -0.0500
   17 C17       1.7223     0.4248    -4.0951 C.ar   1 <0>      -0.1000
   18 C18       1.6522     1.8034    -4.1713 C.ar   1 <0>      -0.0900
   19 C19       0.4253     2.4382    -4.1035 C.ar   1 <0>      -0.0300
   20 Cl20      0.3366     4.1692    -4.1997 Cl     1 <0>      -0.0400
   21 C21      -0.7324     1.6921    -3.9594 C.ar   1 <0>      -0.0300
   22 Cl22     -2.2732     2.4873    -3.8742 Cl     1 <0>      -0.0400
   23 C23      -0.6609     0.3127    -3.8890 C.ar   1 <0>      -0.0800
   24 N24       2.4618    -4.0901    -3.8466 N.4    1 <0>      -0.3900
   25 H25       2.7728    -5.0494    -3.8152 H      1 <0>       0.4300
   26 C26       3.6074    -3.1792    -3.9728 C.3    1 <0>      -0.0600
   27 H27       0.9151     1.9904    -0.1730 H      1 <0>       0.0600
   28 H28      -0.6174     1.9485    -1.0774 H      1 <0>       0.0600
   29 H29      -0.6348     1.9822     0.7022 H      1 <0>       0.0800
   30 H30       0.4290    -0.2571     0.7550 H      1 <0>       0.0500
   31 H31      -1.1035    -0.2990    -0.1494 H      1 <0>       0.0500
   32 H32       1.2179    -2.2091    -0.4914 H      1 <0>       0.0600
   33 H33      -0.3146    -2.2510    -1.3958 H      1 <0>       0.0600
   34 H34       0.2191    -5.4078    -2.4929 H      1 <0>       0.1000
   35 H35      -0.5356    -3.7848    -2.5301 H      1 <0>       0.1100
   36 H36       0.0756    -5.5271    -4.7868 H      1 <0>       0.1000
   37 H37      -0.6789    -3.9040    -4.8241 H      1 <0>       0.1100
   38 H38       2.2531    -1.8833    -5.2869 H      1 <0>       0.1000
   39 H39       0.6512    -2.1817    -6.0085 H      1 <0>       0.1200
   40 H40       2.6806    -0.0706    -4.1477 H      1 <0>       0.1200
   41 H41       2.5555     2.3847    -4.2833 H      1 <0>       0.1400
   42 H42      -1.5635    -0.2698    -3.7769 H      1 <0>       0.1400
   43 H43       3.2508    -2.1499    -4.0104 H      1 <0>       0.1300
   44 H44       4.2670    -3.3040    -3.1141 H      1 <0>       0.1200
   45 H45       4.1544    -3.4079    -4.8874 H      1 <0>       0.1300
@<TRIPOS>BOND
   1    1    2 1
   2    1   27 1
   3    1   28 1
   4    1   29 1
   5    2    3 1
   6    2   30 1
   7    2   31 1
   8    3    4 1
   9    4    5 1
  10    4   32 1
  11    4   33 1
  12    5    6 1
  13    5   14 1
  14    5    7 1
  15    7    8 1
  16    7   24 1
  17    7    9 1
  18    9   10 1
  19    9   34 1
  20    9   35 1
  21   10   11 1
  22   10   36 1
  23   10   37 1
  24   11   12 1
  25   11   13 1
  26   11   24 1
  27   13   14 1
  28   13   38 1
  29   13   39 1
  30   14   15 1
  31   14   16 1
  32   16   23 ar
  33   16   17 ar
  34   17   18 ar
  35   17   40 1
  36   18   19 ar
  37   18   41 1
  38   19   20 1
  39   19   21 ar
  40   21   22 1
  41   21   23 ar
  42   23   42 1
  43   24   25 1
  44   24   26 1
  45   26   43 1
  46   26   44 1
  47   26   45 1
