@<TRIPOS>MOLECULE
ZINC000028704627
52    53    1     0     0
SMALL
USER_CHARGES
@<TRIPOS>ATOM
1      C1     -0.0187    1.5258    0.0104 C.3      1 ZINC000028704627   -0.1500
2      C2      0.0021   -0.0041    0.0020 C.3      1 ZINC000028704627    0.0600
3      O3      0.6709   -0.4649   -1.1737 O.3      1 ZINC000028704627   -0.3700
4      C4      0.7457   -1.8880   -1.2798 C.3      1 ZINC000028704627    0.1100
5      H5     -0.1179   -2.3349   -0.7873 H        1 ZINC000028704627    0.0800
6      C6      2.0284   -2.3828   -0.6083 C.3      1 ZINC000028704627    0.0400
7      O7      1.9677   -2.1108    0.7933 O.3      1 ZINC000028704627   -0.3000
8      C8      3.0364   -2.4902    1.5422 C.ar     1 ZINC000028704627    0.1700
9      C9      4.1236   -3.1063    0.9396 C.ar     1 ZINC000028704627   -0.2100
10     C10     5.2089   -3.4905    1.7031 C.ar     1 ZINC000028704627   -0.0300
11     C11     5.2120   -3.2620    3.0667 C.ar     1 ZINC000028704627   -0.2300
12     C12     6.3971   -3.6827    3.8972 C.3      1 ZINC000028704627    0.5100
13     F13     7.3215   -2.6342    3.9554 F        1 ZINC000028704627   -0.1800
14     F14     5.9705   -4.0007    5.1911 F        1 ZINC000028704627   -0.1800
15     F15     6.9994   -4.8037    3.3160 F        1 ZINC000028704627   -0.1800
16     C16     4.1299   -2.6478    3.6696 C.ar     1 ZINC000028704627   -0.0300
17     C17     3.0444   -2.2569    2.9098 C.ar     1 ZINC000028704627   -0.1500
18     C18     0.7554   -2.2896   -2.7561 C.3      1 ZINC000028704627   -0.1100
19     S19    -0.7653   -1.7030   -3.5523 S.3      1 ZINC000028704627   -0.0900
20     C20    -0.5773   -2.2490   -5.2169 C.ar     1 ZINC000028704627   -0.1400
21     C21     0.5586   -2.9546   -5.5928 C.ar     1 ZINC000028704627   -0.0900
22     C22     0.7048   -3.3825   -6.8978 C.ar     1 ZINC000028704627   -0.2000
23     C23    -0.2819   -3.1076   -7.8329 C.ar     1 ZINC000028704627    0.1400
24     O24    -0.1369   -3.5295   -9.1177 O.3      1 ZINC000028704627   -0.2800
25     C25     1.0562   -4.2499   -9.4333 C.3      1 ZINC000028704627   -0.0100
26     C26     1.0411   -4.6328  -10.8907 C.2      1 ZINC000028704627    0.5000
27     O27     0.0962   -4.3180  -11.5940 O.co2    1 ZINC000028704627   -0.6700
28     O28     1.9738   -5.2574  -11.3666 O.co2    1 ZINC000028704627   -0.6900
29     C29    -1.4168   -2.4030   -7.4586 C.ar     1 ZINC000028704627   -0.1100
30     C30    -2.4883   -2.1055   -8.4757 C.3      1 ZINC000028704627   -0.1100
31     C31    -1.5677   -1.9792   -6.1532 C.ar     1 ZINC000028704627   -0.0600
32     H32     1.0039    1.9031    0.0027 H        1 ZINC000028704627    0.0600
33     H33    -0.5459    1.8868   -0.8726 H        1 ZINC000028704627    0.0600
34     H34    -0.5289    1.8773    0.9072 H        1 ZINC000028704627    0.0700
35     H35     0.5293   -0.3651    0.8851 H        1 ZINC000028704627    0.0600
36     H36    -1.0205   -0.3814    0.0098 H        1 ZINC000028704627    0.0500
37     H37     2.1302   -3.4565   -0.7660 H        1 ZINC000028704627    0.0800
38     H38     2.8867   -1.8690   -1.0412 H        1 ZINC000028704627    0.0800
39     H39     4.1213   -3.2856   -0.1254 H        1 ZINC000028704627    0.1400
40     H40     6.0555   -3.9701    1.2344 H        1 ZINC000028704627    0.1400
41     H41     4.1349   -2.4701    4.7349 H        1 ZINC000028704627    0.1400
42     H42     2.1994   -1.7772    3.3812 H        1 ZINC000028704627    0.1400
43     H43     1.6190   -1.8426   -3.2486 H        1 ZINC000028704627    0.1000
44     H44     0.8124   -3.3751   -2.8370 H        1 ZINC000028704627    0.1000
45     H45     1.3274   -3.1681   -4.8650 H        1 ZINC000028704627    0.1200
46     H46     1.5879   -3.9311   -7.1903 H        1 ZINC000028704627    0.1300
47     H47     1.9239   -3.6218   -9.2316 H        1 ZINC000028704627    0.0600
48     H48     1.1094   -5.1504   -8.8215 H        1 ZINC000028704627    0.0600
49     H49    -3.2166   -2.9164   -8.4841 H        1 ZINC000028704627    0.0700
50     H50    -2.9871   -1.1719   -8.2155 H        1 ZINC000028704627    0.0600
51     H51    -2.0362   -2.0129   -9.4632 H        1 ZINC000028704627    0.0800
52     H52    -2.4513   -1.4307   -5.8620 H        1 ZINC000028704627    0.1300
@<TRIPOS>BOND
1     1     2     1
2     1     32    1
3     1     33    1
4     1     34    1
5     2     3     1
6     2     35    1
7     2     36    1
8     3     4     1
9     4     5     1
10    4     6     1
11    4     18    1
12    6     7     1
13    6     37    1
14    6     38    1
15    7     8     1
16    8     17    ar
17    8     9     ar
18    9     10    ar
19    9     39    1
20    10    11    ar
21    10    40    1
22    11    12    1
23    11    16    ar
24    12    13    1
25    12    14    1
26    12    15    1
27    16    17    ar
28    16    41    1
29    17    42    1
30    18    19    1
31    18    43    1
32    18    44    1
33    19    20    1
34    20    31    ar
35    20    21    ar
36    21    22    ar
37    21    45    1
38    22    23    ar
39    22    46    1
40    23    24    1
41    23    29    ar
42    24    25    1
43    25    26    1
44    25    47    1
45    25    48    1
46    26    27    ar
47    26    28    ar
48    29    30    1
49    29    31    ar
50    30    49    1
51    30    50    1
52    30    51    1
53    31    52    1
@<TRIPOS>SUBSTRUCTURE
1   ZINC000028704627 1     RESIDUE    1   A     ZIN   1
