@<TRIPOS>MOLECULE
ZINC000001535336
  27   28    0    0    0
SMALL
USER_CHARGES
NO_NAME
@<TRIPOS>ATOM
    1 C1        0.0180    -1.1779    -0.0044 C.1    1 <0>      -0.1700
    2 C2        0.0021    -0.0041     0.0020 C.1    1 <0>      -0.2000
    3 C3       -0.0179     1.4678     0.0101 C.3    1 <0>       0.1700
    4 O4        1.3227     1.9624    -0.0000 O.3    1 <0>      -0.3700
    5 C5        1.4162     3.3883     0.0067 C.3    1 <0>       0.0600
    6 H6        0.5576     3.8082     0.5307 H      1 <0>       0.0700
    7 C7        1.4426     3.9077    -1.4337 C.3    1 <0>       0.0300
    8 N8        2.6948     4.6404    -1.6645 N.3    1 <0>      -0.5300
    9 C9        2.7922     5.8108    -0.7814 C.3    1 <0>       0.0500
   10 C10       2.8033     5.3460     0.6776 C.3    1 <0>      -0.1500
   11 C11       2.7088     3.8153     0.7136 C.3    1 <0>      -0.0900
   12 C12       3.8992     3.2333    -0.0592 C.3    1 <0>      -0.1500
   13 C13       3.8597     3.7598    -1.5009 C.3    1 <0>       0.0500
   14 H14       0.0322    -2.2278    -0.0102 H      1 <0>       0.2200
   15 H15      -0.5451     1.8289    -0.8729 H      1 <0>       0.0700
   16 H16      -0.5281     1.8193     0.9069 H      1 <0>       0.0700
   17 H17       1.3806     3.0669    -2.1246 H      1 <0>       0.0900
   18 H18       0.5959     4.5748    -1.5953 H      1 <0>       0.0800
   19 H19       3.7124     6.3537    -0.9971 H      1 <0>       0.0800
   20 H20       1.9362     6.4646    -0.9483 H      1 <0>       0.0800
   21 H21       3.7290     5.6661     1.1558 H      1 <0>       0.0700
   22 H22       1.9508     5.7750     1.2041 H      1 <0>       0.0700
   23 H23       2.7089     3.4639     1.7454 H      1 <0>       0.0800
   24 H24       4.8299     3.5449     0.4149 H      1 <0>       0.0700
   25 H25       3.8355     2.1452    -0.0628 H      1 <0>       0.0700
   26 H26       3.7790     2.9210    -2.1923 H      1 <0>       0.0800
   27 H27       4.7729     4.3171    -1.7097 H      1 <0>       0.0800
@<TRIPOS>BOND
   1    1    2 3
   2    1   14 1
   3    2    3 1
   4    3    4 1
   5    3   15 1
   6    3   16 1
   7    4    5 1
   8    5    6 1
   9    5   11 1
  10    5    7 1
  11    7    8 1
  12    7   17 1
  13    7   18 1
  14    8   13 1
  15    8    9 1
  16    9   10 1
  17    9   19 1
  18    9   20 1
  19   10   11 1
  20   10   21 1
  21   10   22 1
  22   11   12 1
  23   11   23 1
  24   12   13 1
  25   12   24 1
  26   12   25 1
  27   13   26 1
  28   13   27 1
