@<TRIPOS>MOLECULE
ZINC000003781623
72    75    1     0     0
SMALL
USER_CHARGES
@<TRIPOS>ATOM
1      C1      1.8684    4.0237    5.1727 C.2      1 ZINC000003781623   -0.1200
2      C2      1.6811    2.8519    4.6179 C.2      1 ZINC000003781623   -0.2100
3      C3      2.8649    1.9976    4.2435 C.3      1 ZINC000003781623    0.1400
4      N4      2.7351    0.6808    4.8722 N.pl3    1 ZINC000003781623   -0.6200
5      C5      3.7071   -0.2782    4.6721 C.ar     1 ZINC000003781623    0.6700
6      N6      4.7638   -0.0053    3.9134 N.ar     1 ZINC000003781623   -0.6000
7      C7      5.7005   -0.9290    3.7210 C.ar     1 ZINC000003781623    0.6900
8      N8      6.7977   -0.6455    2.9332 N.pl3    1 ZINC000003781623   -0.6500
9      C9      7.8298   -1.6634    2.7212 C.3      1 ZINC000003781623    0.1200
10     C10     8.9100   -1.1055    1.8307 C.2      1 ZINC000003781623   -0.2100
11     C11    10.1583   -1.1197    2.2277 C.2      1 ZINC000003781623   -0.1200
12     N12     5.5804   -2.1253    4.2876 N.ar     1 ZINC000003781623   -0.6200
13     H13     6.2641   -2.7991    4.1478 H        1 ZINC000003781623    0.4400
14     C14     4.5235   -2.3984    5.0465 C.ar     1 ZINC000003781623    0.6400
15     N15     4.3991   -3.6404    5.6353 N.3      1 ZINC000003781623   -0.4700
16     C16     4.4613   -4.7083    4.6292 C.3      1 ZINC000003781623    0.0500
17     C17     4.4667   -6.0697    5.3282 C.3      1 ZINC000003781623   -0.1400
18     C18     3.1961   -6.2103    6.1710 C.3      1 ZINC000003781623    0.0200
19     N19     3.2234   -7.4909    6.8904 N.4      1 ZINC000003781623   -0.5100
20     H20     3.3541   -8.2439    6.2317 H        1 ZINC000003781623    0.4300
21     H21     3.9841   -7.4881    7.5533 H        1 ZINC000003781623    0.4300
22     C22     1.9530   -7.6791    7.6036 C.3      1 ZINC000003781623   -0.0100
23     C23     1.9815   -9.0128    8.3528 C.3      1 ZINC000003781623   -0.0100
24     C24     0.7306   -9.1500    9.1819 C.ar     1 ZINC000003781623   -0.1100
25     C25     0.8239   -9.4449   10.5293 C.ar     1 ZINC000003781623   -0.0700
26     C26    -0.3226   -9.5709   11.2906 C.ar     1 ZINC000003781623   -0.1500
27     C27    -1.5650   -9.4013   10.7035 C.ar     1 ZINC000003781623    0.1200
28     F28    -2.6864   -9.5238   11.4468 F        1 ZINC000003781623   -0.1300
29     C29    -1.6572   -9.1055    9.3540 C.ar     1 ZINC000003781623   -0.1500
30     C30    -0.5092   -8.9752    8.5957 C.ar     1 ZINC000003781623   -0.0900
31     C31     2.0532  -10.1448    7.3606 C.ar     1 ZINC000003781623   -0.1400
32     C32     1.1433  -10.2117    6.3220 C.ar     1 ZINC000003781623   -0.0900
33     C33     1.2082  -11.2493    5.4115 C.ar     1 ZINC000003781623   -0.1500
34     C34     2.1852  -12.2220    5.5397 C.ar     1 ZINC000003781623    0.1200
35     F35     2.2497  -13.2367    4.6500 F        1 ZINC000003781623   -0.1200
36     C36     3.0962  -12.1538    6.5801 C.ar     1 ZINC000003781623   -0.1400
37     C37     3.0324  -11.1126    7.4866 C.ar     1 ZINC000003781623   -0.0800
38     C38     3.1312   -5.0589    7.1783 C.3      1 ZINC000003781623   -0.1500
39     C39     3.1645   -3.7268    6.4257 C.3      1 ZINC000003781623    0.0700
40     N40     3.5893   -1.4733    5.2427 N.ar     1 ZINC000003781623   -0.6000
41     H41     2.8711    4.3776    5.3618 H        1 ZINC000003781623    0.1100
42     H42     1.0202    4.6378    5.4369 H        1 ZINC000003781623    0.1200
43     H43     0.6784    2.4980    4.4287 H        1 ZINC000003781623    0.1200
44     H44     2.9008    1.8812    3.1604 H        1 ZINC000003781623    0.1000
45     H45     3.7816    2.4760    4.5881 H        1 ZINC000003781623    0.0900
46     H46     1.9659    0.4829    5.4292 H        1 ZINC000003781623    0.4300
47     H47     6.8854    0.2276    2.5199 H        1 ZINC000003781623    0.4500
48     H48     8.2611   -1.9488    3.6806 H        1 ZINC000003781623    0.0900
49     H49     7.3849   -2.5388    2.2480 H        1 ZINC000003781623    0.0900
50     H50     8.6550   -0.6940    0.8653 H        1 ZINC000003781623    0.1300
51     H51    10.4133   -1.5312    3.1932 H        1 ZINC000003781623    0.1100
52     H52    10.9325   -0.7199    1.5896 H        1 ZINC000003781623    0.1200
53     H53     3.5934   -4.6403    3.9733 H        1 ZINC000003781623    0.0900
54     H54     5.3715   -4.5991    4.0396 H        1 ZINC000003781623    0.1100
55     H55     4.4971   -6.8624    4.5807 H        1 ZINC000003781623    0.1200
56     H56     5.3418   -6.1438    5.9739 H        1 ZINC000003781623    0.1100
57     H57     2.3220   -6.1764    5.5208 H        1 ZINC000003781623    0.1500
58     H58     1.8119   -6.8655    8.3151 H        1 ZINC000003781623    0.1500
59     H59     1.1313   -7.6821    6.8874 H        1 ZINC000003781623    0.1400
60     H60     2.8546   -9.0449    9.0044 H        1 ZINC000003781623    0.1100
61     H61     1.7931   -9.5772   10.9870 H        1 ZINC000003781623    0.1400
62     H62    -0.2495   -9.8020   12.3430 H        1 ZINC000003781623    0.1500
63     H63    -2.6258   -8.9733    8.8949 H        1 ZINC000003781623    0.1400
64     H64    -0.5809   -8.7441    7.5431 H        1 ZINC000003781623    0.1300
65     H65     0.3814   -9.4528    6.2222 H        1 ZINC000003781623    0.1300
66     H66     0.4968  -11.3017    4.6006 H        1 ZINC000003781623    0.1500
67     H67     3.8585  -12.9122    6.6812 H        1 ZINC000003781623    0.1500
68     H68     3.7431  -11.0590    8.2980 H        1 ZINC000003781623    0.1400
69     H69     2.2075   -5.1294    7.7526 H        1 ZINC000003781623    0.1200
70     H70     3.9853   -5.1171    7.8531 H        1 ZINC000003781623    0.1100
71     H71     3.1328   -2.9048    7.1408 H        1 ZINC000003781623    0.1300
72     H72     2.3027   -3.6634    5.7613 H        1 ZINC000003781623    0.0900
@<TRIPOS>BOND
1     1     2     2
2     1     41    1
3     1     42    1
4     2     3     1
5     2     43    1
6     3     4     1
7     3     44    1
8     3     45    1
9     4     5     1
10    4     46    1
11    5     40    ar
12    5     6     ar
13    6     7     ar
14    7     8     1
15    7     12    ar
16    8     9     1
17    8     47    1
18    9     10    1
19    9     48    1
20    9     49    1
21    10    11    2
22    10    50    1
23    11    51    1
24    11    52    1
25    12    13    1
26    12    14    ar
27    14    15    1
28    14    40    ar
29    15    39    1
30    15    16    1
31    16    17    1
32    16    53    1
33    16    54    1
34    17    18    1
35    17    55    1
36    17    56    1
37    18    19    1
38    18    38    1
39    18    57    1
40    19    20    1
41    19    21    1
42    19    22    1
43    22    23    1
44    22    58    1
45    22    59    1
46    23    24    1
47    23    31    1
48    23    60    1
49    24    30    ar
50    24    25    ar
51    25    26    ar
52    25    61    1
53    26    27    ar
54    26    62    1
55    27    28    1
56    27    29    ar
57    29    30    ar
58    29    63    1
59    30    64    1
60    31    37    ar
61    31    32    ar
62    32    33    ar
63    32    65    1
64    33    34    ar
65    33    66    1
66    34    35    1
67    34    36    ar
68    36    37    ar
69    36    67    1
70    37    68    1
71    38    39    1
72    38    69    1
73    38    70    1
74    39    71    1
75    39    72    1
@<TRIPOS>SUBSTRUCTURE
1   ZINC000003781623 1     RESIDUE    1   A     ZIN   1
