@<TRIPOS>MOLECULE
ZINC000001481729
51    53    1     0     0
SMALL
USER_CHARGES
@<TRIPOS>ATOM
1      C1     -0.0187    1.5258    0.0104 C.3      1 ZINC000001481729   -0.1800
2      C2      0.0021   -0.0041    0.0020 C.3      1 ZINC000001481729    0.0300
3      H3      0.5293   -0.3651    0.8851 H        1 ZINC000001481729    0.1500
4      C4     -1.4333   -0.5336    0.0129 C.3      1 ZINC000001481729    0.0300
5      O5     -2.1582    0.0324   -1.0808 O.3      1 ZINC000001481729   -0.3200
6      C6     -3.4589   -0.3373   -1.2163 C.ar     1 ZINC000001481729    0.1200
7      C7     -4.0274   -1.2221   -0.3118 C.ar     1 ZINC000001481729   -0.2000
8      C8     -5.3501   -1.5961   -0.4514 C.ar     1 ZINC000001481729   -0.0800
9      C9     -6.1068   -1.0896   -1.4917 C.ar     1 ZINC000001481729   -0.1400
10     C10    -5.5422   -0.2078   -2.3950 C.ar     1 ZINC000001481729   -0.0700
11     C11    -4.2220    0.1740   -2.2562 C.ar     1 ZINC000001481729   -0.1000
12     C12    -3.6075    1.1354   -3.2406 C.3      1 ZINC000001481729   -0.0400
13     C13    -2.8952    0.3620   -4.3202 C.ar     1 ZINC000001481729   -0.0700
14     C14    -1.5640    0.0236   -4.1643 C.ar     1 ZINC000001481729   -0.1200
15     C15    -0.9106   -0.6858   -5.1546 C.ar     1 ZINC000001481729   -0.1300
16     C16    -1.5885   -1.0572   -6.3007 C.ar     1 ZINC000001481729   -0.1200
17     C17    -2.9199   -0.7195   -6.4562 C.ar     1 ZINC000001481729   -0.1100
18     C18    -3.5745   -0.0138   -5.4640 C.ar     1 ZINC000001481729   -0.1100
19     N19     0.6897   -0.4778   -1.2066 N.4      1 ZINC000001481729   -0.3800
20     H20     0.2009   -0.1431   -2.0234 H        1 ZINC000001481729    0.4200
21     C21     0.7057   -1.9455   -1.2151 C.3      1 ZINC000001481729   -0.0200
22     C22     1.3487   -2.4449   -2.5107 C.3      1 ZINC000001481729   -0.1500
23     C23     2.7834   -1.9167   -2.5987 C.3      1 ZINC000001481729   -0.1400
24     C24     2.7601   -0.3878   -2.5141 C.3      1 ZINC000001481729   -0.1500
25     C25     2.0654    0.0339   -1.2174 C.3      1 ZINC000001481729   -0.0100
26     H26     1.0039    1.9031    0.0027 H        1 ZINC000001481729    0.0900
27     H27    -0.5459    1.8868   -0.8726 H        1 ZINC000001481729    0.0900
28     H28    -0.5289    1.8773    0.9072 H        1 ZINC000001481729    0.1100
29     H29    -1.4207   -1.6194   -0.0826 H        1 ZINC000001481729    0.0900
30     H30    -1.9156   -0.2570    0.9504 H        1 ZINC000001481729    0.1100
31     H31    -3.4365   -1.6185    0.5006 H        1 ZINC000001481729    0.1300
32     H32    -5.7933   -2.2849    0.2526 H        1 ZINC000001481729    0.1300
33     H33    -7.1404   -1.3834   -1.5993 H        1 ZINC000001481729    0.1300
34     H34    -6.1352    0.1862   -3.2070 H        1 ZINC000001481729    0.1300
35     H35    -4.3908    1.7470   -3.6884 H        1 ZINC000001481729    0.0900
36     H36    -2.8950    1.7785   -2.7240 H        1 ZINC000001481729    0.0800
37     H37    -1.0344    0.3137   -3.2689 H        1 ZINC000001481729    0.1000
38     H38     0.1296   -0.9496   -5.0330 H        1 ZINC000001481729    0.1200
39     H39    -1.0778   -1.6108   -7.0747 H        1 ZINC000001481729    0.1300
40     H40    -3.4494   -1.0093   -7.3518 H        1 ZINC000001481729    0.1300
41     H41    -4.6147    0.2500   -5.5855 H        1 ZINC000001481729    0.1300
42     H42     1.2799   -2.3071   -0.3621 H        1 ZINC000001481729    0.1300
43     H43    -0.3159   -2.3200   -1.1492 H        1 ZINC000001481729    0.1300
44     H44     1.3612   -3.5348   -2.5143 H        1 ZINC000001481729    0.1100
45     H45     0.7750   -2.0841   -3.3644 H        1 ZINC000001481729    0.0900
46     H46     3.3710   -2.3185   -1.7732 H        1 ZINC000001481729    0.0800
47     H47     3.2270   -2.2226   -3.5462 H        1 ZINC000001481729    0.1000
48     H48     3.7816   -0.0073   -2.5200 H        1 ZINC000001481729    0.1100
49     H49     2.2157    0.0157   -3.3678 H        1 ZINC000001481729    0.0900
50     H50     2.0467    1.1218   -1.1530 H        1 ZINC000001481729    0.1300
51     H51     2.6114   -0.3704   -0.3651 H        1 ZINC000001481729    0.1300
@<TRIPOS>BOND
1     1     2     1
2     1     26    1
3     1     27    1
4     1     28    1
5     2     3     1
6     2     4     1
7     2     19    1
8     4     5     1
9     4     29    1
10    4     30    1
11    5     6     1
12    6     11    ar
13    6     7     ar
14    7     8     ar
15    7     31    1
16    8     9     ar
17    8     32    1
18    9     10    ar
19    9     33    1
20    10    11    ar
21    10    34    1
22    11    12    1
23    12    13    1
24    12    35    1
25    12    36    1
26    13    18    ar
27    13    14    ar
28    14    15    ar
29    14    37    1
30    15    16    ar
31    15    38    1
32    16    17    ar
33    16    39    1
34    17    18    ar
35    17    40    1
36    18    41    1
37    19    20    1
38    19    25    1
39    19    21    1
40    21    22    1
41    21    42    1
42    21    43    1
43    22    23    1
44    22    44    1
45    22    45    1
46    23    24    1
47    23    46    1
48    23    47    1
49    24    25    1
50    24    48    1
51    24    49    1
52    25    50    1
53    25    51    1
@<TRIPOS>SUBSTRUCTURE
1   ZINC000001481729 1     RESIDUE    1   A     ZIN   1
