@<TRIPOS>MOLECULE
ZINC000001542016
46    47    1     0     0
SMALL
USER_CHARGES
@<TRIPOS>ATOM
1      C1     -0.0187    1.5258    0.0104 C.3      1 ZINC000001542016   -0.1400
2      C2      0.0021   -0.0041    0.0020 C.3      1 ZINC000001542016   -0.0400
3      H3     -1.0205   -0.3814    0.0098 H        1 ZINC000001542016    0.1200
4      C4      0.7309   -0.5033    1.2229 C.2      1 ZINC000001542016    0.4700
5      O5      1.7215   -1.1839    1.0989 O.2      1 ZINC000001542016   -0.4900
6      O6      0.2797   -0.1918    2.4481 O.3      1 ZINC000001542016   -0.3500
7      C7      1.0317   -0.7071    3.5783 C.3      1 ZINC000001542016    0.0700
8      C8      0.3709   -0.2516    4.8809 C.3      1 ZINC000001542016   -0.1200
9      C9      1.1633   -0.7945    6.0718 C.3      1 ZINC000001542016   -0.1100
10     C10     0.5025   -0.3390    7.3743 C.3      1 ZINC000001542016    0.0300
11     O11     1.2426   -0.8461    8.4866 O.3      1 ZINC000001542016   -0.2200
12     N12     0.7114   -0.4797    9.7470 N.pl3    1 ZINC000001542016    0.1200
13     O13    -0.2913    0.2091    9.8084 O.2      1 ZINC000001542016   -0.1300
14     O14     1.2571   -0.8534   10.7698 O.2      1 ZINC000001542016   -0.0700
15     C15     0.7074   -0.4901   -1.2379 C.ar     1 ZINC000001542016   -0.0500
16     C16     2.0266   -0.1397   -1.4618 C.ar     1 ZINC000001542016   -0.0900
17     C17     2.6788   -0.5809   -2.5956 C.ar     1 ZINC000001542016   -0.0800
18     C18     2.0065   -1.3815   -3.5162 C.ar     1 ZINC000001542016   -0.0700
19     C19     2.7027   -1.8590   -4.7363 C.ar     1 ZINC000001542016   -0.0600
20     C20     3.4014   -0.9601   -5.5398 C.ar     1 ZINC000001542016   -0.1000
21     C21     4.0471   -1.4098   -6.6737 C.ar     1 ZINC000001542016   -0.1200
22     C22     4.0012   -2.7499   -7.0133 C.ar     1 ZINC000001542016   -0.1100
23     C23     3.3087   -3.6465   -6.2196 C.ar     1 ZINC000001542016   -0.1200
24     C24     2.6649   -3.2089   -5.0799 C.ar     1 ZINC000001542016   -0.1000
25     C25     0.6756   -1.7330   -3.2860 C.ar     1 ZINC000001542016    0.1100
26     F26     0.0167   -2.5092   -4.1741 F        1 ZINC000001542016   -0.1300
27     C27     0.0348   -1.2892   -2.1443 C.ar     1 ZINC000001542016   -0.1400
28     H28     1.0039    1.9031    0.0027 H        1 ZINC000001542016    0.0700
29     H29    -0.5459    1.8868   -0.8726 H        1 ZINC000001542016    0.0800
30     H30    -0.5289    1.8773    0.9072 H        1 ZINC000001542016    0.0800
31     H31     1.0454   -1.7963    3.5394 H        1 ZINC000001542016    0.0800
32     H32     2.0533   -0.3291    3.5376 H        1 ZINC000001542016    0.0800
33     H33     0.3571    0.8376    4.9198 H        1 ZINC000001542016    0.0900
34     H34    -0.6507   -0.6295    4.9215 H        1 ZINC000001542016    0.0800
35     H35     1.1770   -1.8837    6.0328 H        1 ZINC000001542016    0.0900
36     H36     2.1848   -0.4166    6.0311 H        1 ZINC000001542016    0.0900
37     H37     0.4887    0.7502    7.4133 H        1 ZINC000001542016    0.0900
38     H38    -0.5191   -0.7170    7.4150 H        1 ZINC000001542016    0.0900
39     H39     2.5477    0.4810   -0.7479 H        1 ZINC000001542016    0.1300
40     H40     3.7086   -0.3056   -2.7689 H        1 ZINC000001542016    0.1400
41     H41     3.4373    0.0865   -5.2759 H        1 ZINC000001542016    0.1300
42     H42     4.5890   -0.7140   -7.2971 H        1 ZINC000001542016    0.1300
43     H43     4.5076   -3.0974   -7.9016 H        1 ZINC000001542016    0.1200
44     H44     3.2758   -4.6917   -6.4897 H        1 ZINC000001542016    0.1300
45     H45     2.1248   -3.9099   -4.4607 H        1 ZINC000001542016    0.1200
46     H46    -0.9950   -1.5600   -1.9641 H        1 ZINC000001542016    0.1400
@<TRIPOS>BOND
1     1     2     1
2     1     28    1
3     1     29    1
4     1     30    1
5     2     3     1
6     2     4     1
7     2     15    1
8     4     5     2
9     4     6     1
10    6     7     1
11    7     8     1
12    7     31    1
13    7     32    1
14    8     9     1
15    8     33    1
16    8     34    1
17    9     10    1
18    9     35    1
19    9     36    1
20    10    11    1
21    10    37    1
22    10    38    1
23    11    12    1
24    12    13    2
25    12    14    2
26    15    27    ar
27    15    16    ar
28    16    17    ar
29    16    39    1
30    17    18    ar
31    17    40    1
32    18    19    1
33    18    25    ar
34    19    24    ar
35    19    20    ar
36    20    21    ar
37    20    41    1
38    21    22    ar
39    21    42    1
40    22    23    ar
41    22    43    1
42    23    24    ar
43    23    44    1
44    24    45    1
45    25    26    1
46    25    27    ar
47    27    46    1
@<TRIPOS>SUBSTRUCTURE
1   ZINC000001542016 1     RESIDUE    1   A     ZIN   1
