@<TRIPOS>MOLECULE
ZINC000001999492
58    59    1     0     0
SMALL
USER_CHARGES
@<TRIPOS>ATOM
1      C1     -0.0179    1.4678    0.0101 C.3      1 ZINC000001999492   -0.0400
2      C2      0.0021   -0.0041    0.0020 C.1      1 ZINC000001999492   -0.1700
3      C3      0.0180   -1.1779   -0.0044 C.1      1 ZINC000001999492   -0.2100
4      C4      0.0380   -2.6498   -0.0125 C.3      1 ZINC000001999492    0.2400
5      O5      0.7068   -3.1106   -1.1882 O.3      1 ZINC000001999492   -0.3600
6      C6      2.0619   -2.6700   -1.2965 C.3      1 ZINC000001999492    0.0700
7      C7      2.6755   -3.2200   -2.5856 C.3      1 ZINC000001999492    0.0800
8      H8      2.0557   -2.9321   -3.4348 H        1 ZINC000001999492    0.0600
9      C9      4.0833   -2.6482   -2.7647 C.3      1 ZINC000001999492    0.0700
10     O10     4.6115   -3.0685   -4.0242 O.3      1 ZINC000001999492   -0.3800
11     C11     5.9298   -2.5862   -4.2918 C.3      1 ZINC000001999492    0.0700
12     C12     6.3915   -3.0953   -5.6587 C.3      1 ZINC000001999492   -0.0900
13     C13     7.7496   -2.4792   -6.0004 C.3      1 ZINC000001999492   -0.1500
14     C14     6.5184   -4.6196   -5.6190 C.3      1 ZINC000001999492   -0.1500
15     N15     2.7484   -4.6850   -2.5070 N.3      1 ZINC000001999492   -0.5100
16     C16     1.3922   -5.2803   -2.3953 C.3      1 ZINC000001999492    0.0500
17     C17     1.6096   -6.7455   -2.8494 C.3      1 ZINC000001999492   -0.1300
18     C18     2.6428   -6.6041   -3.9907 C.3      1 ZINC000001999492   -0.1400
19     C19     3.3379   -5.2533   -3.7387 C.3      1 ZINC000001999492    0.0500
20     C20     0.7780   -3.1566    1.2270 C.3      1 ZINC000001999492   -0.1400
21     C21     0.0618   -2.6632    2.4858 C.3      1 ZINC000001999492   -0.1200
22     C22    -1.3736   -3.1928    2.4967 C.3      1 ZINC000001999492   -0.1200
23     C23    -2.1136   -2.6859    1.2571 C.3      1 ZINC000001999492   -0.1200
24     C24    -1.3974   -3.1794   -0.0017 C.3      1 ZINC000001999492   -0.1000
25     H25     1.0047    1.8451    0.0024 H        1 ZINC000001999492    0.0800
26     H26    -0.5451    1.8289   -0.8729 H        1 ZINC000001999492    0.0800
27     H27    -0.5281    1.8193    0.9069 H        1 ZINC000001999492    0.0800
28     H28     2.0891   -1.5805   -1.3172 H        1 ZINC000001999492    0.0600
29     H29     2.6310   -3.0315   -0.4401 H        1 ZINC000001999492    0.0700
30     H30     4.0399   -1.5594   -2.7341 H        1 ZINC000001999492    0.0500
31     H31     4.7268   -3.0088   -1.9623 H        1 ZINC000001999492    0.0600
32     H32     5.9247   -1.4962   -4.2928 H        1 ZINC000001999492    0.0500
33     H33     6.6116   -2.9456   -3.5210 H        1 ZINC000001999492    0.0500
34     H34     5.6623   -2.8111   -6.4175 H        1 ZINC000001999492    0.0800
35     H35     8.4787   -2.7634   -5.2416 H        1 ZINC000001999492    0.0600
36     H36     8.0785   -2.8419   -6.9742 H        1 ZINC000001999492    0.0600
37     H37     7.6592   -1.3933   -6.0287 H        1 ZINC000001999492    0.0600
38     H38     5.5508   -5.0585   -5.3756 H        1 ZINC000001999492    0.0600
39     H39     6.8473   -4.9823   -6.5929 H        1 ZINC000001999492    0.0500
40     H40     7.2475   -4.9038   -4.8603 H        1 ZINC000001999492    0.0500
41     H41     1.0404   -5.2452   -1.3642 H        1 ZINC000001999492    0.0900
42     H42     0.6930   -4.7715   -3.0589 H        1 ZINC000001999492    0.0500
43     H43     2.0146   -7.3458   -2.0347 H        1 ZINC000001999492    0.0700
44     H44     0.6800   -7.1759   -3.2219 H        1 ZINC000001999492    0.0700
45     H45     3.3680   -7.4166   -3.9473 H        1 ZINC000001999492    0.0700
46     H46     2.1398   -6.5961   -4.9576 H        1 ZINC000001999492    0.0600
47     H47     3.1608   -4.5820   -4.5791 H        1 ZINC000001999492    0.0600
48     H48     4.4084   -5.4064   -3.6016 H        1 ZINC000001999492    0.0800
49     H49     0.7927   -4.2465    1.2210 H        1 ZINC000001999492    0.0800
50     H50     1.8005   -2.7793    1.2193 H        1 ZINC000001999492    0.0700
51     H51     0.5890   -3.0243    3.3689 H        1 ZINC000001999492    0.0700
52     H52     0.0470   -1.5733    2.4918 H        1 ZINC000001999492    0.0600
53     H53    -1.3588   -4.2827    2.4907 H        1 ZINC000001999492    0.0700
54     H54    -1.8838   -2.8413    3.3935 H        1 ZINC000001999492    0.0600
55     H55    -3.1362   -3.0632    1.2649 H        1 ZINC000001999492    0.0700
56     H56    -2.1283   -1.5961    1.2631 H        1 ZINC000001999492    0.0600
57     H57    -1.9246   -2.8183   -0.8847 H        1 ZINC000001999492    0.0700
58     H58    -1.3826   -4.2692   -0.0077 H        1 ZINC000001999492    0.0800
@<TRIPOS>BOND
1     1     2     1
2     1     25    1
3     1     26    1
4     1     27    1
5     2     3     3
6     3     4     1
7     4     24    1
8     4     5     1
9     4     20    1
10    5     6     1
11    6     7     1
12    6     28    1
13    6     29    1
14    7     8     1
15    7     9     1
16    7     15    1
17    9     10    1
18    9     30    1
19    9     31    1
20    10    11    1
21    11    12    1
22    11    32    1
23    11    33    1
24    12    13    1
25    12    14    1
26    12    34    1
27    13    35    1
28    13    36    1
29    13    37    1
30    14    38    1
31    14    39    1
32    14    40    1
33    15    19    1
34    15    16    1
35    16    17    1
36    16    41    1
37    16    42    1
38    17    18    1
39    17    43    1
40    17    44    1
41    18    19    1
42    18    45    1
43    18    46    1
44    19    47    1
45    19    48    1
46    20    21    1
47    20    49    1
48    20    50    1
49    21    22    1
50    21    51    1
51    21    52    1
52    22    23    1
53    22    53    1
54    22    54    1
55    23    24    1
56    23    55    1
57    23    56    1
58    24    57    1
59    24    58    1
@<TRIPOS>SUBSTRUCTURE
1   ZINC000001999492 1     RESIDUE    1   A     ZIN   1
