@<TRIPOS>MOLECULE
ZINC000003875356
52    55    1     0     0
SMALL
USER_CHARGES
@<TRIPOS>ATOM
1      C1      0.0072    1.5136   -0.0354 C.3      1 ZINC000003875356   -0.1600
2      C2      0.0173   -0.0163   -0.0199 C.3      1 ZINC000003875356   -0.1500
3      C3     -1.4218   -0.5357   -0.0107 C.3      1 ZINC000003875356    0.1400
4      O4     -2.0967   -0.1432   -1.2076 O.3      1 ZINC000003875356   -0.5500
5      C5     -2.1768   -0.0031    1.2326 C.3      1 ZINC000003875356   -0.1500
6      C6     -2.5247   -1.2445    2.0987 C.3      1 ZINC000003875356   -0.1100
7      C7     -1.4715   -2.2707    1.6662 C.3      1 ZINC000003875356   -0.0800
8      H8     -0.5043   -2.0307    2.1078 H        1 ZINC000003875356    0.0700
9      C9     -1.8223   -3.7249    1.9233 C.3      1 ZINC000003875356   -0.0800
10     H10    -2.7636   -3.9734    1.4331 H        1 ZINC000003875356    0.0900
11     C11    -1.9364   -3.9708    3.4306 C.3      1 ZINC000003875356   -0.1100
12     C12    -2.3591   -5.4215    3.6717 C.3      1 ZINC000003875356   -0.1000
13     C13    -1.3721   -6.3404    2.9752 C.2      1 ZINC000003875356   -0.0200
14     C14    -0.8741   -7.3592    3.6755 C.2      1 ZINC000003875356   -0.2400
15     C15     0.0722   -8.2883    3.0485 C.2      1 ZINC000003875356    0.3900
16     O16     0.8258   -8.9737    3.7075 O.2      1 ZINC000003875356   -0.4600
17     C17     0.0584   -8.3474    1.5335 C.3      1 ZINC000003875356   -0.1700
18     C18     0.1292   -6.9102    1.0193 C.3      1 ZINC000003875356   -0.1100
19     C19    -1.0197   -6.0678    1.5454 C.3      1 ZINC000003875356   -0.0600
20     H20    -1.9018   -6.2873    0.9439 H        1 ZINC000003875356    0.0900
21     C21    -0.6875   -4.5843    1.3474 C.3      1 ZINC000003875356   -0.0700
22     H22     0.2244   -4.3489    1.8962 H        1 ZINC000003875356    0.0700
23     C23    -0.4565   -4.3179   -0.1372 C.3      1 ZINC000003875356   -0.1200
24     C24    -0.2384   -2.8232   -0.4199 C.3      1 ZINC000003875356   -0.1000
25     C25    -1.4346   -2.0545    0.1294 C.3      1 ZINC000003875356   -0.0500
26     C26    -2.7296   -2.6273   -0.4500 C.3      1 ZINC000003875356   -0.1400
27     H27     1.0324    1.8836   -0.0419 H        1 ZINC000003875356    0.0600
28     H28    -0.5114    1.8645   -0.9276 H        1 ZINC000003875356    0.0500
29     H29    -0.5066    1.8826    0.8523 H        1 ZINC000003875356    0.0600
30     H30     0.5311   -0.3853   -0.9075 H        1 ZINC000003875356    0.0700
31     H31     0.5359   -0.3672    0.8723 H        1 ZINC000003875356    0.0700
32     H32    -2.1377    0.8137   -1.3403 H        1 ZINC000003875356    0.3700
33     H33    -1.5380    0.6781    1.7948 H        1 ZINC000003875356    0.0700
34     H34    -3.0899    0.5068    0.9259 H        1 ZINC000003875356    0.0700
35     H35    -2.4262   -1.0145    3.1596 H        1 ZINC000003875356    0.0700
36     H36    -3.5287   -1.6035    1.8724 H        1 ZINC000003875356    0.0700
37     H37    -0.9712   -3.7892    3.9034 H        1 ZINC000003875356    0.0700
38     H38    -2.6828   -3.2986    3.8539 H        1 ZINC000003875356    0.0700
39     H39    -2.3591   -5.6291    4.7417 H        1 ZINC000003875356    0.0800
40     H40    -3.3579   -5.5833    3.2661 H        1 ZINC000003875356    0.0800
41     H41    -1.1671   -7.5006    4.7053 H        1 ZINC000003875356    0.1300
42     H42     0.9204   -8.9113    1.1770 H        1 ZINC000003875356    0.0900
43     H43    -0.8620   -8.8190    1.1895 H        1 ZINC000003875356    0.1000
44     H44     1.0716   -6.4647    1.3380 H        1 ZINC000003875356    0.0700
45     H45     0.0929   -6.9203   -0.0700 H        1 ZINC000003875356    0.0800
46     H46     0.4219   -4.8736   -0.4655 H        1 ZINC000003875356    0.0700
47     H47    -1.3242   -4.6630   -0.6994 H        1 ZINC000003875356    0.0700
48     H48     0.6534   -2.4732    0.1000 H        1 ZINC000003875356    0.0600
49     H49    -0.1323   -2.6597   -1.4924 H        1 ZINC000003875356    0.0700
50     H50    -2.7666   -3.7009   -0.2654 H        1 ZINC000003875356    0.0600
51     H51    -3.5844   -2.1471    0.0263 H        1 ZINC000003875356    0.0500
52     H52    -2.7604   -2.4419   -1.5237 H        1 ZINC000003875356    0.0600
@<TRIPOS>BOND
1     1     2     1
2     1     27    1
3     1     28    1
4     1     29    1
5     2     3     1
6     2     30    1
7     2     31    1
8     3     25    1
9     3     4     1
10    3     5     1
11    4     32    1
12    5     6     1
13    5     33    1
14    5     34    1
15    6     7     1
16    6     35    1
17    6     36    1
18    7     8     1
19    7     25    1
20    7     9     1
21    9     10    1
22    9     21    1
23    9     11    1
24    11    12    1
25    11    37    1
26    11    38    1
27    12    13    1
28    12    39    1
29    12    40    1
30    13    19    1
31    13    14    2
32    14    15    1
33    14    41    1
34    15    16    2
35    15    17    1
36    17    18    1
37    17    42    1
38    17    43    1
39    18    19    1
40    18    44    1
41    18    45    1
42    19    20    1
43    19    21    1
44    21    22    1
45    21    23    1
46    23    24    1
47    23    46    1
48    23    47    1
49    24    25    1
50    24    48    1
51    24    49    1
52    25    26    1
53    26    50    1
54    26    51    1
55    26    52    1
@<TRIPOS>SUBSTRUCTURE
1   ZINC000003875356 1     RESIDUE    1   A     ZIN   1
