@<TRIPOS>MOLECULE
ZINC000043130440
58    61    1     0     0
SMALL
USER_CHARGES
@<TRIPOS>ATOM
1      C1      0.0795    1.8175    0.1455 C.3      1 ZINC000043130440   -0.1900
2      C2      0.0813    0.2930    0.0163 C.3      1 ZINC000043130440    0.1600
3      H3      0.4718    0.0088   -0.9609 H        1 ZINC000043130440    0.0900
4      C4     -1.3472   -0.2387    0.1743 C.3      1 ZINC000043130440    0.0300
5      N5     -1.3192   -1.7071    0.2042 N.3      1 ZINC000043130440   -0.4800
6      C6     -2.6155   -2.2340    0.1826 C.ar     1 ZINC000043130440    0.1000
7      C7     -3.7109   -1.3820    0.1328 C.ar     1 ZINC000043130440   -0.1300
8      C8     -4.9898   -1.9028    0.1111 C.ar     1 ZINC000043130440   -0.0900
9      C9     -5.1803   -3.2764    0.1395 C.ar     1 ZINC000043130440    0.0700
10     O10    -6.4401   -3.7884    0.1186 O.3      1 ZINC000043130440   -0.3100
11     C11    -6.5624   -5.2118    0.1500 C.3      1 ZINC000043130440    0.6000
12     F12    -5.9758   -5.7046    1.3206 F        1 ZINC000043130440   -0.1700
13     F13    -7.9161   -5.5642    0.1227 F        1 ZINC000043130440   -0.1300
14     F14    -5.9152   -5.7602   -0.9625 F        1 ZINC000043130440   -0.1700
15     C15    -4.0867   -4.1281    0.1888 C.ar     1 ZINC000043130440   -0.1600
16     C16    -2.8069   -3.6091    0.2053 C.ar     1 ZINC000043130440   -0.1000
17     C17    -0.5690   -2.2023    1.3660 C.3      1 ZINC000043130440    0.0400
18     C18     0.8914   -1.7510    1.2569 C.3      1 ZINC000043130440    0.1700
19     H19     1.3611   -2.2346    0.4004 H        1 ZINC000043130440    0.0900
20     C20     1.6426   -2.1277    2.5355 C.3      1 ZINC000043130440   -0.2300
21     N21     0.9210   -0.2914    1.0730 N.am     1 ZINC000043130440   -0.9900
22     S22     1.8678    0.6675    2.0355 S.o2     1 ZINC000043130440    2.6900
23     O23     3.1597    0.0757    2.0447 O.2      1 ZINC000043130440   -0.9700
24     O24     1.6295    2.0071    1.6256 O.2      1 ZINC000043130440   -0.9400
25     C25     1.2467    0.5321    3.6788 C.ar     1 ZINC000043130440   -0.6700
26     C26     2.0165   -0.0633    4.6586 C.ar     1 ZINC000043130440   -0.0300
27     C27     1.5303   -0.1696    5.9485 C.ar     1 ZINC000043130440   -0.1500
28     C28     0.2757    0.3200    6.2545 C.ar     1 ZINC000043130440   -0.0600
29     C29    -0.4980    0.9169    5.2731 C.ar     1 ZINC000043130440   -0.1100
30     C30    -0.0097    1.0282    3.9849 C.ar     1 ZINC000043130440    0.0200
31     C31    -1.0354    1.7112    3.1060 C.3      1 ZINC000043130440   -0.1000
32     C32    -2.3647    1.6114    3.8840 C.3      1 ZINC000043130440   -0.1500
33     H33    -2.9144    0.7145    3.5984 H        1 ZINC000043130440    0.0700
34     C34    -3.2053    2.8435    3.6688 C.2      1 ZINC000043130440    0.5000
35     O35    -4.4116    2.7409    3.5244 O.co2    1 ZINC000043130440   -0.6900
36     O36    -2.6791    3.9429    3.6391 O.co2    1 ZINC000043130440   -0.6900
37     C37    -1.8831    1.5229    5.3495 C.3      1 ZINC000043130440   -0.0600
38     H38     1.0625    2.2059   -0.1207 H        1 ZINC000043130440    0.0900
39     H39    -0.6708    2.2380   -0.5241 H        1 ZINC000043130440    0.0700
40     H40    -0.1546    2.0948    1.1733 H        1 ZINC000043130440    0.1000
41     H41    -1.7740    0.1360    1.1046 H        1 ZINC000043130440    0.0700
42     H42    -1.9551    0.0964   -0.6661 H        1 ZINC000043130440    0.1000
43     H43    -3.5628   -0.3124    0.1114 H        1 ZINC000043130440    0.1500
44     H44    -5.8419   -1.2404    0.0724 H        1 ZINC000043130440    0.1400
45     H45    -4.2359   -5.1975    0.2109 H        1 ZINC000043130440    0.1300
46     H46    -1.9555   -4.2725    0.2437 H        1 ZINC000043130440    0.1300
47     H47    -1.0066   -1.8002    2.2798 H        1 ZINC000043130440    0.0600
48     H48    -0.6124   -3.2911    1.3899 H        1 ZINC000043130440    0.0900
49     H49     1.7145   -3.2129    2.6083 H        1 ZINC000043130440    0.0900
50     H50     2.6441   -1.6983    2.5084 H        1 ZINC000043130440    0.1100
51     H51     1.1045   -1.7404    3.4006 H        1 ZINC000043130440    0.0800
52     H52     2.9973   -0.4458    4.4175 H        1 ZINC000043130440    0.1400
53     H53     2.1308   -0.6352    6.7159 H        1 ZINC000043130440    0.1300
54     H54    -0.1035    0.2367    7.2623 H        1 ZINC000043130440    0.1200
55     H55    -0.7653    2.7559    2.9513 H        1 ZINC000043130440    0.1200
56     H56    -1.1175    1.1953    2.1494 H        1 ZINC000043130440    0.0800
57     H57    -2.5436    0.8755    5.9263 H        1 ZINC000043130440    0.0700
58     H58    -1.8427    2.5168    5.7950 H        1 ZINC000043130440    0.0900
@<TRIPOS>BOND
1     1     2     1
2     1     38    1
3     1     39    1
4     1     40    1
5     2     3     1
6     2     21    1
7     2     4     1
8     4     5     1
9     4     41    1
10    4     42    1
11    5     6     1
12    5     17    1
13    6     16    ar
14    6     7     ar
15    7     8     ar
16    7     43    1
17    8     9     ar
18    8     44    1
19    9     10    1
20    9     15    ar
21    10    11    1
22    11    12    1
23    11    13    1
24    11    14    1
25    15    16    ar
26    15    45    1
27    16    46    1
28    17    18    1
29    17    47    1
30    17    48    1
31    18    19    1
32    18    20    1
33    18    21    1
34    20    49    1
35    20    50    1
36    20    51    1
37    21    22    am
38    22    23    2
39    22    24    2
40    22    25    1
41    25    30    ar
42    25    26    ar
43    26    27    ar
44    26    52    1
45    27    28    ar
46    27    53    1
47    28    29    ar
48    28    54    1
49    29    37    1
50    29    30    ar
51    30    31    1
52    31    32    1
53    31    55    1
54    31    56    1
55    32    33    1
56    32    34    1
57    32    37    1
58    34    35    ar
59    34    36    ar
60    37    57    1
61    37    58    1
@<TRIPOS>SUBSTRUCTURE
1   ZINC000043130440 1     RESIDUE    1   A     ZIN   1
