@<TRIPOS>MOLECULE
ZINC000005599842
55    57    1     0     0
SMALL
USER_CHARGES
@<TRIPOS>ATOM
1      C1     -0.0211    1.4526    0.0071 C.3      1 ZINC000005599842   -0.0700
2      N2      0.0019   -0.0162    0.0097 N.4      1 ZINC000005599842   -0.3800
3      H3     -0.9444   -0.3664    0.0207 H        1 ZINC000005599842    0.4200
4      C4      0.6852   -0.4955   -1.1977 C.3      1 ZINC000005599842   -0.0100
5      C5      2.0948    0.0968   -1.2597 C.3      1 ZINC000005599842   -0.1500
6      C6      2.8806   -0.3389   -0.0195 C.3      1 ZINC000005599842   -0.1400
7      C7      2.1206    0.1015    1.2350 C.3      1 ZINC000005599842   -0.1400
8      C8      0.7117   -0.4909    1.2035 C.3      1 ZINC000005599842    0.0300
9      H9      0.7758   -1.5788    1.1791 H        1 ZINC000005599842    0.1400
10     C10    -0.0527   -0.0537    2.4547 C.3      1 ZINC000005599842   -0.1500
11     C11    -1.4171   -0.7454    2.4865 C.3      1 ZINC000005599842   -0.0900
12     C12    -2.1700   -0.3147    3.7189 C.ar     1 ZINC000005599842   -0.1300
13     C13    -2.1165   -1.0828    4.8652 C.ar     1 ZINC000005599842   -0.0900
14     C14    -2.8076   -0.6885    5.9965 C.ar     1 ZINC000005599842   -0.1300
15     C15    -3.5537    0.4755    5.9840 C.ar     1 ZINC000005599842   -0.0900
16     C16    -3.6111    1.2486    4.8408 C.ar     1 ZINC000005599842   -0.1200
17     C17    -2.9141    0.8583    3.7048 C.ar     1 ZINC000005599842    0.1500
18     N18    -2.9697    1.6388    2.5461 N.am     1 ZINC000005599842   -0.6700
19     C19    -4.1046    2.2923    2.2275 C.2      1 ZINC000005599842    0.5500
20     O20    -5.0539    2.2698    2.9888 O.2      1 ZINC000005599842   -0.5100
21     C21    -4.1954    3.0290    0.9659 C.2      1 ZINC000005599842   -0.2400
22     C22    -5.3308    3.6828    0.6472 C.2      1 ZINC000005599842    0.0200
23     C23    -5.4222    4.4236   -0.6215 C.ar     1 ZINC000005599842   -0.0900
24     C24    -4.3357    4.4470   -1.5015 C.ar     1 ZINC000005599842   -0.1000
25     C25    -4.4292    5.1429   -2.6883 C.ar     1 ZINC000005599842   -0.1300
26     C26    -5.5943    5.8174   -3.0092 C.ar     1 ZINC000005599842   -0.1000
27     C27    -6.6738    5.7994   -2.1432 C.ar     1 ZINC000005599842   -0.1200
28     C28    -6.5980    5.1029   -0.9556 C.ar     1 ZINC000005599842   -0.0900
29     H29     1.0007    1.8319   -0.0048 H        1 ZINC000005599842    0.1300
30     H30    -0.5503    1.8062   -0.8777 H        1 ZINC000005599842    0.1300
31     H31    -0.5308    1.8095    0.9021 H        1 ZINC000005599842    0.1100
32     H32     0.7495   -1.5832   -1.1708 H        1 ZINC000005599842    0.1300
33     H33     0.1231   -0.1874   -2.0793 H        1 ZINC000005599842    0.1300
34     H34     2.6012   -0.2617   -2.1559 H        1 ZINC000005599842    0.1100
35     H35     2.0317    1.1846   -1.2869 H        1 ZINC000005599842    0.0900
36     H36     2.9881   -1.4236   -0.0186 H        1 ZINC000005599842    0.0800
37     H37     3.8663    0.1262   -0.0306 H        1 ZINC000005599842    0.1000
38     H38     2.6455   -0.2536    2.1219 H        1 ZINC000005599842    0.1100
39     H39     2.0580    1.1894    1.2595 H        1 ZINC000005599842    0.0900
40     H40     0.5155   -0.3302    3.3428 H        1 ZINC000005599842    0.1200
41     H41    -0.1936    1.0270    2.4354 H        1 ZINC000005599842    0.0800
42     H42    -1.9854   -0.4689    1.5984 H        1 ZINC000005599842    0.0600
43     H43    -1.2763   -1.8260    2.5059 H        1 ZINC000005599842    0.0900
44     H44    -1.5346   -1.9925    4.8782 H        1 ZINC000005599842    0.1300
45     H45    -2.7647   -1.2914    6.8915 H        1 ZINC000005599842    0.1300
46     H46    -4.0925    0.7803    6.8690 H        1 ZINC000005599842    0.1300
47     H47    -4.1941    2.1577    4.8317 H        1 ZINC000005599842    0.1400
48     H48    -2.1914    1.7100    1.9714 H        1 ZINC000005599842    0.3900
49     H49    -3.3531    3.0490    0.2903 H        1 ZINC000005599842    0.1300
50     H50    -6.1732    3.6628    1.3228 H        1 ZINC000005599842    0.1400
51     H51    -3.4256    3.9217   -1.2521 H        1 ZINC000005599842    0.1200
52     H52    -3.5909    5.1619   -3.3690 H        1 ZINC000005599842    0.1300
53     H53    -5.6613    6.3610   -3.9400 H        1 ZINC000005599842    0.1300
54     H54    -7.5795    6.3285   -2.4005 H        1 ZINC000005599842    0.1300
55     H55    -7.4412    5.0898   -0.2808 H        1 ZINC000005599842    0.1300
@<TRIPOS>BOND
1     1     2     1
2     1     29    1
3     1     30    1
4     1     31    1
5     2     3     1
6     2     8     1
7     2     4     1
8     4     5     1
9     4     32    1
10    4     33    1
11    5     6     1
12    5     34    1
13    5     35    1
14    6     7     1
15    6     36    1
16    6     37    1
17    7     8     1
18    7     38    1
19    7     39    1
20    8     9     1
21    8     10    1
22    10    11    1
23    10    40    1
24    10    41    1
25    11    12    1
26    11    42    1
27    11    43    1
28    12    17    ar
29    12    13    ar
30    13    14    ar
31    13    44    1
32    14    15    ar
33    14    45    1
34    15    16    ar
35    15    46    1
36    16    17    ar
37    16    47    1
38    17    18    1
39    18    19    am
40    18    48    1
41    19    20    2
42    19    21    1
43    21    22    2
44    21    49    1
45    22    23    1
46    22    50    1
47    23    28    ar
48    23    24    ar
49    24    25    ar
50    24    51    1
51    25    26    ar
52    25    52    1
53    26    27    ar
54    26    53    1
55    27    28    ar
56    27    54    1
57    28    55    1
@<TRIPOS>SUBSTRUCTURE
1   ZINC000005599842 1     RESIDUE    1   A     ZIN   1
