@<TRIPOS>MOLECULE
ZINC000013658656
34    36    1     0     0
SMALL
USER_CHARGES
@<TRIPOS>ATOM
1      C1      2.2220    0.1342   -0.7295 C.3      1 ZINC000013658656   -0.1500
2      C2      1.4626   -1.1898   -0.6232 C.3      1 ZINC000013658656   -0.1400
3      C3      0.0178   -0.9165   -0.2005 C.3      1 ZINC000013658656    0.1100
4      N4     -0.7093   -2.1843   -0.0987 N.am     1 ZINC000013658656   -0.5500
5      C5     -1.3486   -2.6740   -1.1830 C.2      1 ZINC000013658656    0.5900
6      O6     -1.3266   -2.0742   -2.2421 O.2      1 ZINC000013658656   -0.4700
7      C7     -2.0682   -3.9426   -1.0561 C.2      1 ZINC000013658656   -0.0900
8      C8     -2.0597   -4.5846    0.1762 C.2      1 ZINC000013658656    0.2700
9      N9     -2.7897   -5.7209    0.0221 N.pl3    1 ZINC000013658656   -0.5600
10     C10    -3.2248   -5.7589   -1.2705 C.2      1 ZINC000013658656    0.2100
11     N11    -2.7965   -4.7062   -1.9052 N.2      1 ZINC000013658656   -0.4100
12     N12    -1.3803   -4.0103    1.2276 N.am     1 ZINC000013658656   -0.4700
13     C13    -1.3657   -4.6497    2.4743 C.ar     1 ZINC000013658656    0.1100
14     C14    -2.3529   -4.3713    3.4102 C.ar     1 ZINC000013658656   -0.0800
15     C15    -2.3366   -5.0032    4.6381 C.ar     1 ZINC000013658656   -0.1000
16     C16    -1.3371   -5.9127    4.9363 C.ar     1 ZINC000013658656   -0.0200
17     Cl17   -1.3190   -6.7049    6.4809 Cl       1 ZINC000013658656   -0.0500
18     C18    -0.3523   -6.1922    4.0051 C.ar     1 ZINC000013658656   -0.1000
19     C19    -0.3672   -5.5669    2.7738 C.ar     1 ZINC000013658656   -0.0800
20     C20    -0.7262   -2.8459    1.0703 C.2      1 ZINC000013658656    0.7200
21     O21    -0.1375   -2.3705    2.0221 O.2      1 ZINC000013658656   -0.5200
22     H22     3.2513   -0.0604   -1.0306 H        1 ZINC000013658656    0.0600
23     H23     1.7404    0.7707   -1.4718 H        1 ZINC000013658656    0.0600
24     H24     2.2152    0.6357    0.2383 H        1 ZINC000013658656    0.0600
25     H25     1.4694   -1.6912   -1.5910 H        1 ZINC000013658656    0.0700
26     H26     1.9442   -1.8262    0.1192 H        1 ZINC000013658656    0.0700
27     H27     0.0110   -0.4151    0.7673 H        1 ZINC000013658656    0.1000
28     H28    -0.4638   -0.2801   -0.9429 H        1 ZINC000013658656    0.1000
29     H29    -2.9685   -6.3844    0.7066 H        1 ZINC000013658656    0.4300
30     H30    -3.8308   -6.5423   -1.7011 H        1 ZINC000013658656    0.2300
31     H31    -3.1327   -3.6610    3.1782 H        1 ZINC000013658656    0.1400
32     H32    -3.1042   -4.7870    5.3664 H        1 ZINC000013658656    0.1500
33     H33     0.4264   -6.9027    4.2401 H        1 ZINC000013658656    0.1500
34     H34     0.4016   -5.7854    2.0474 H        1 ZINC000013658656    0.1400
@<TRIPOS>BOND
1     1     2     1
2     1     22    1
3     1     23    1
4     1     24    1
5     2     3     1
6     2     25    1
7     2     26    1
8     3     4     1
9     3     27    1
10    3     28    1
11    4     20    am
12    4     5     am
13    5     6     2
14    5     7     1
15    7     11    1
16    7     8     2
17    8     9     1
18    8     12    1
19    9     10    1
20    9     29    1
21    10    11    2
22    10    30    1
23    12    13    1
24    12    20    am
25    13    19    ar
26    13    14    ar
27    14    15    ar
28    14    31    1
29    15    16    ar
30    15    32    1
31    16    17    1
32    16    18    ar
33    18    19    ar
34    18    33    1
35    19    34    1
36    20    21    2
@<TRIPOS>SUBSTRUCTURE
1   ZINC000013658656 1     RESIDUE    1   A     ZIN   1
