@<TRIPOS>MOLECULE
ZINC000004215193
  73   76    0    0    0
SMALL
USER_CHARGES
NO_NAME
@<TRIPOS>ATOM
    1 C1       -0.0187     1.5258     0.0104 C.3    1 <0>      -0.1200
    2 C2        0.0021    -0.0041     0.0020 C.3    1 <0>      -0.1200
    3 C3        0.7421    -0.5109     1.2415 C.3    1 <0>      -0.1100
    4 C4       -1.4117    -0.5257     0.0127 C.2    1 <0>       0.5100
    5 O5       -1.8097    -1.2271    -0.9017 O.co2  1 <0>      -0.6900
    6 O6       -2.1576    -0.2463     0.9358 O.co2  1 <0>      -0.6900
    7 C7        0.7074    -0.4901    -1.2379 C.ar   1 <0>       0.0200
    8 C8        1.2160     0.4245    -2.1437 C.ar   1 <0>      -0.1500
    9 C9        1.8623    -0.0123    -3.2807 C.ar   1 <0>      -0.0600
   10 C10       2.0036    -1.3834    -3.5172 C.ar   1 <0>      -0.2000
   11 C11       2.6925    -1.8580    -4.7280 C.2    1 <0>       0.4000
   12 O12       3.1393    -1.0595    -5.5237 O.2    1 <0>      -0.4700
   13 C13       2.8426    -3.3364    -4.9790 C.3    1 <0>      -0.1700
   14 C14       3.5900    -3.5568    -6.2956 C.3    1 <0>      -0.1100
   15 C15       3.7424    -5.0577    -6.5504 C.3    1 <0>       0.0600
   16 N16       4.4601    -5.2694    -7.8146 N.3    1 <0>      -0.5400
   17 C17       3.9265    -4.4038    -8.8740 C.3    1 <0>       0.0500
   18 C18       4.7877    -4.5440   -10.1312 C.3    1 <0>      -0.1100
   19 C19       4.7808    -6.0053   -10.5884 C.3    1 <0>       0.0900
   20 O20       5.6291    -6.1528   -11.7290 O.3    1 <0>      -0.3600
   21 C21       5.2246    -7.1910   -12.6238 C.3    1 <0>       0.1700
   22 C22       5.6363    -6.8322   -14.0283 C.ar   1 <0>      -0.0800
   23 C23       6.8658    -6.2440   -14.2592 C.ar   1 <0>      -0.0900
   24 C24       7.2435    -5.9150   -15.5476 C.ar   1 <0>      -0.1200
   25 C25       6.3920    -6.1746   -16.6052 C.ar   1 <0>      -0.1200
   26 C26       5.1629    -6.7636   -16.3743 C.ar   1 <0>      -0.1200
   27 C27       4.7870    -7.0966   -15.0864 C.ar   1 <0>      -0.1100
   28 C28       5.8836    -8.4853   -12.2222 C.ar   1 <0>      -0.1000
   29 C29       7.1625    -8.4761   -11.6975 C.ar   1 <0>      -0.0900
   30 C30       7.7671    -9.6634   -11.3291 C.ar   1 <0>      -0.1200
   31 C31       7.0925   -10.8599   -11.4850 C.ar   1 <0>      -0.1200
   32 C32       5.8133   -10.8691   -12.0088 C.ar   1 <0>      -0.1200
   33 C33       5.2071    -9.6814   -12.3732 C.ar   1 <0>      -0.1100
   34 C34       5.2955    -6.8905    -9.4500 C.3    1 <0>      -0.1300
   35 C35       4.4195    -6.6824    -8.2125 C.3    1 <0>       0.0600
   36 C36       1.4874    -2.3012    -2.5968 C.ar   1 <0>      -0.0800
   37 C37       0.8482    -1.8486    -1.4620 C.ar   1 <0>      -0.1000
   38 H38       1.0039     1.9031     0.0027 H      1 <0>       0.0400
   39 H39      -0.5459     1.8868    -0.8726 H      1 <0>       0.0500
   40 H40      -0.5289     1.8773     0.9072 H      1 <0>       0.0600
   41 H41       0.2319    -0.1594     2.1383 H      1 <0>       0.0600
   42 H42       0.7568    -1.6008     1.2356 H      1 <0>       0.0500
   43 H43       1.7647    -0.1336     1.2338 H      1 <0>       0.0400
   44 H44       1.1061     1.4830    -1.9596 H      1 <0>       0.1300
   45 H45       2.2580     0.7026    -3.9870 H      1 <0>       0.1200
   46 H46       3.4048    -3.7884    -4.1619 H      1 <0>       0.1000
   47 H47       1.8563    -3.7966    -5.0396 H      1 <0>       0.1000
   48 H48       3.0278    -3.1048    -7.1127 H      1 <0>       0.0700
   49 H49       4.5763    -3.0966    -6.2350 H      1 <0>       0.0800
   50 H50       4.3047    -5.5097    -5.7333 H      1 <0>       0.0800
   51 H51       2.7562    -5.5180    -6.6110 H      1 <0>       0.0400
   52 H52       2.9017    -4.6976    -9.1012 H      1 <0>       0.0300
   53 H53       3.9408    -3.3671    -8.5376 H      1 <0>       0.0900
   54 H54       4.3822    -3.9132   -10.9223 H      1 <0>       0.0700
   55 H55       5.8097    -4.2372    -9.9083 H      1 <0>       0.0800
   56 H56       3.7646    -6.3004   -10.8497 H      1 <0>       0.0600
   57 H57       4.1415    -7.3061   -12.5808 H      1 <0>       0.0800
   58 H58       7.5311    -6.0412   -13.4330 H      1 <0>       0.1300
   59 H59       8.2038    -5.4547   -15.7280 H      1 <0>       0.1200
   60 H60       6.6868    -5.9168   -17.6117 H      1 <0>       0.1200
   61 H61       4.4974    -6.9661   -17.2005 H      1 <0>       0.1200
   62 H62       3.8267    -7.5568   -14.9061 H      1 <0>       0.1200
   63 H63       7.6895    -7.5413   -11.5757 H      1 <0>       0.1300
   64 H64       8.7665    -9.6562   -10.9198 H      1 <0>       0.1200
   65 H65       7.5651   -11.7876   -11.1978 H      1 <0>       0.1200
   66 H66       5.2865   -11.8039   -12.1309 H      1 <0>       0.1200
   67 H67       4.2077    -9.6885   -12.7824 H      1 <0>       0.1200
   68 H68       5.2528    -7.9363    -9.7544 H      1 <0>       0.0700
   69 H69       6.3254    -6.6207    -9.2164 H      1 <0>       0.0800
   70 H70       4.7920    -7.3006    -7.3957 H      1 <0>       0.0800
   71 H71       3.3924    -6.9654    -8.4429 H      1 <0>       0.0300
   72 H72       1.5922    -3.3616    -2.7727 H      1 <0>       0.1200
   73 H73       0.4493    -2.5560    -0.7501 H      1 <0>       0.1200
@<TRIPOS>BOND
   1    1    2 1
   2    1   38 1
   3    1   39 1
   4    1   40 1
   5    2    3 1
   6    2    4 1
   7    2    7 1
   8    3   41 1
   9    3   42 1
  10    3   43 1
  11    4    5 ar
  12    4    6 ar
  13    7   37 ar
  14    7    8 ar
  15    8    9 ar
  16    8   44 1
  17    9   10 ar
  18    9   45 1
  19   10   11 1
  20   10   36 ar
  21   11   12 2
  22   11   13 1
  23   13   14 1
  24   13   46 1
  25   13   47 1
  26   14   15 1
  27   14   48 1
  28   14   49 1
  29   15   16 1
  30   15   50 1
  31   15   51 1
  32   16   35 1
  33   16   17 1
  34   17   18 1
  35   17   52 1
  36   17   53 1
  37   18   19 1
  38   18   54 1
  39   18   55 1
  40   19   20 1
  41   19   34 1
  42   19   56 1
  43   20   21 1
  44   21   22 1
  45   21   28 1
  46   21   57 1
  47   22   27 ar
  48   22   23 ar
  49   23   24 ar
  50   23   58 1
  51   24   25 ar
  52   24   59 1
  53   25   26 ar
  54   25   60 1
  55   26   27 ar
  56   26   61 1
  57   27   62 1
  58   28   33 ar
  59   28   29 ar
  60   29   30 ar
  61   29   63 1
  62   30   31 ar
  63   30   64 1
  64   31   32 ar
  65   31   65 1
  66   32   33 ar
  67   32   66 1
  68   33   67 1
  69   34   35 1
  70   34   68 1
  71   34   69 1
  72   35   70 1
  73   35   71 1
  74   36   37 ar
  75   36   72 1
  76   37   73 1
