@<TRIPOS>MOLECULE
ZINC000068199944
  32   33    0    0    0
SMALL
USER_CHARGES
NO_NAME
@<TRIPOS>ATOM
    1 C1       -0.0173     1.4248     0.0099 C.3    1 <0>       0.0300
    2 O2        0.0021    -0.0041     0.0020 O.3    1 <0>      -0.3400
    3 C3        0.6518    -0.5703    -1.1379 C.3    1 <0>       0.0600
    4 C4        0.6131    -2.0967    -1.0411 C.3    1 <0>       0.0000
    5 C5       -0.8363    -2.5801    -0.9601 C.3    1 <0>       0.0800
    6 O6       -1.4613    -2.0200     0.1966 O.3    1 <0>      -0.5200
    7 C7        1.3895    -2.5617     0.1821 C.2    1 <0>       0.3500
    8 O8        1.0931    -2.2417     1.3082 O.2    1 <0>      -0.3400
    9 C9        2.5756    -3.4672    -0.1378 C.3    1 <0>      -0.1400
   10 C10       2.0126    -4.6665    -0.9189 C.3    1 <0>      -0.1300
   11 C11       1.2358    -4.1544    -2.1316 C.3    1 <0>      -0.0200
   12 N12       1.2797    -2.6938    -2.2103 N.4    1 <0>      -0.3600
   13 H13       0.7945    -2.3998    -3.0447 H      1 <0>       0.4300
   14 C14       2.6636    -2.2232    -2.2816 C.3    1 <0>      -0.0200
   15 C15       3.4831    -2.6775    -1.0962 C.3    1 <0>      -0.1400
   16 H16       1.0053     1.8021     0.0021 H      1 <0>       0.0500
   17 H17      -0.5445     1.7859    -0.8732 H      1 <0>       0.0500
   18 H18      -0.5275     1.7763     0.9067 H      1 <0>       0.1000
   19 H19       0.1385    -0.2506    -2.0447 H      1 <0>       0.0800
   20 H20       1.6883    -0.2344    -1.1694 H      1 <0>       0.0700
   21 H21      -1.3752    -2.2639    -1.8532 H      1 <0>       0.0800
   22 H22      -0.8533    -3.6678    -0.8915 H      1 <0>       0.0700
   23 H23      -2.3843    -2.2843     0.3117 H      1 <0>       0.4000
   24 H24       3.1070    -3.7731     0.7634 H      1 <0>       0.1500
   25 H25       2.8332    -5.3012    -1.2534 H      1 <0>       0.1200
   26 H26       1.3460    -5.2403    -0.2750 H      1 <0>       0.1100
   27 H27       1.6715    -4.5743    -3.0382 H      1 <0>       0.1500
   28 H28       0.1976    -4.4768    -2.0529 H      1 <0>       0.1400
   29 H29       3.1302    -2.6213    -3.1827 H      1 <0>       0.1500
   30 H30       2.6687    -1.1343    -2.3292 H      1 <0>       0.1300
   31 H31       3.8803    -1.8077    -0.5730 H      1 <0>       0.1100
   32 H32       4.3060    -3.3039    -1.4406 H      1 <0>       0.1200
@<TRIPOS>BOND
   1    1    2 1
   2    1   16 1
   3    1   17 1
   4    1   18 1
   5    2    3 1
   6    3    4 1
   7    3   19 1
   8    3   20 1
   9    4   12 1
  10    4    5 1
  11    4    7 1
  12    5    6 1
  13    5   21 1
  14    5   22 1
  15    6   23 1
  16    7    8 2
  17    7    9 1
  18    9   15 1
  19    9   10 1
  20    9   24 1
  21   10   11 1
  22   10   25 1
  23   10   26 1
  24   11   12 1
  25   11   27 1
  26   11   28 1
  27   12   13 1
  28   12   14 1
  29   14   15 1
  30   14   29 1
  31   14   30 1
  32   15   31 1
  33   15   32 1
