@<TRIPOS>MOLECULE
ZINC000000006881
27    28    1     0     0
SMALL
USER_CHARGES
@<TRIPOS>ATOM
1      N1     -0.0167    1.3792    0.0096 N.pl3    1 ZINC000000006881   -0.8200
2      C2      0.0021   -0.0041    0.0020 C.ar     1 ZINC000000006881    0.6100
3      N3     -1.1473   -0.6626    0.0040 N.ar     1 ZINC000000006881   -0.6200
4      C4     -1.1690   -1.9904   -0.0036 C.ar     1 ZINC000000006881    0.5100
5      N5     -2.3716   -2.6743   -0.0020 N.pl3    1 ZINC000000006881   -0.8300
6      C6      0.0520   -2.6900   -0.0137 C.ar     1 ZINC000000006881   -0.2700
7      C7      0.0794   -4.1725   -0.0229 C.ar     1 ZINC000000006881   -0.0100
8      C8      0.0923   -4.8644   -1.2326 C.ar     1 ZINC000000006881   -0.0800
9      C9      0.1178   -6.2445   -1.2359 C.ar     1 ZINC000000006881   -0.1000
10     C10     0.1301   -6.9422   -0.0420 C.ar     1 ZINC000000006881   -0.0900
11     C11     0.1174   -6.2618    1.1637 C.ar     1 ZINC000000006881   -0.0300
12     Cl12    0.1336   -7.1453    2.6579 Cl       1 ZINC000000006881   -0.0400
13     C13     0.0982   -4.8798    1.1792 C.ar     1 ZINC000000006881   -0.0300
14     Cl14    0.0823   -4.0268    2.6911 Cl       1 ZINC000000006881   -0.0400
15     C15     1.2343   -1.9531   -0.0154 C.ar     1 ZINC000000006881    0.2300
16     C16     2.5694   -2.6519   -0.0261 C.3      1 ZINC000000006881    0.1200
17     F17     2.9760   -2.8605   -1.3484 F        1 ZINC000000006881   -0.2000
18     N18     1.1695   -0.6314   -0.0125 N.ar     1 ZINC000000006881   -0.5900
19     H19     0.8167    1.8756    0.0043 H        1 ZINC000000006881    0.4200
20     H20    -0.8632    1.8527    0.0162 H        1 ZINC000000006881    0.4200
21     H21    -3.2084   -2.1838    0.0047 H        1 ZINC000000006881    0.4100
22     H22    -2.3779   -3.6443   -0.0075 H        1 ZINC000000006881    0.4100
23     H23     0.0820   -4.3214   -2.1662 H        1 ZINC000000006881    0.1400
24     H24     0.1278   -6.7808   -2.1733 H        1 ZINC000000006881    0.1400
25     H25     0.1493   -8.0220   -0.0501 H        1 ZINC000000006881    0.1500
26     H26     3.3066   -2.0348    0.4876 H        1 ZINC000000006881    0.1000
27     H27     2.4811   -3.6118    0.4827 H        1 ZINC000000006881    0.0900
@<TRIPOS>BOND
1     1     2     1
2     1     19    1
3     1     20    1
4     2     18    ar
5     2     3     ar
6     3     4     ar
7     4     5     1
8     4     6     ar
9     5     21    1
10    5     22    1
11    6     7     1
12    6     15    ar
13    7     13    ar
14    7     8     ar
15    8     9     ar
16    8     23    1
17    9     10    ar
18    9     24    1
19    10    11    ar
20    10    25    1
21    11    12    1
22    11    13    ar
23    13    14    1
24    15    16    1
25    15    18    ar
26    16    17    1
27    16    26    1
28    16    27    1
@<TRIPOS>SUBSTRUCTURE
1   ZINC000000006881 1     RESIDUE    1   A     ZIN   1
