@<TRIPOS>MOLECULE
ZINC000006092007
26    26    1     0     0
SMALL
USER_CHARGES
@<TRIPOS>ATOM
1      N1     -0.0196    1.3829   -0.0217 N.pl3    1 ZINC000006092007   -0.8500
2      C2      0.0006   -0.0040   -0.0137 C.ar     1 ZINC000006092007    0.2900
3      C3     -1.1848   -0.7189    0.0928 C.ar     1 ZINC000006092007   -0.2100
4      C4     -1.1620   -2.1001    0.1006 C.ar     1 ZINC000006092007    0.0500
5      Cl5    -2.6490   -2.9860    0.2336 Cl       1 ZINC000006092007   -0.0700
6      C6      0.0416   -2.7847    0.0024 C.ar     1 ZINC000006092007   -0.1900
7      C7      1.2276   -2.0952   -0.1041 C.ar     1 ZINC000006092007    0.0000
8      C8      1.2224   -0.6946   -0.1194 C.ar     1 ZINC000006092007   -0.2500
9      C9      2.4817    0.0469   -0.2330 C.2      1 ZINC000006092007    0.4100
10     O10     2.4838    1.2566   -0.1412 O.2      1 ZINC000006092007   -0.4700
11     C11     3.7739   -0.6935   -0.4637 C.3      1 ZINC000006092007   -0.1800
12     C12     4.9281    0.3077   -0.5434 C.3      1 ZINC000006092007    0.0400
13     H13     4.9357    0.9256    0.3545 H        1 ZINC000006092007    0.0800
14     N14     4.7538    1.1629   -1.7250 N.3      1 ZINC000006092007   -0.8300
15     C15     6.2333   -0.4380   -0.6510 C.2      1 ZINC000006092007    0.5000
16     O16     6.6801   -0.7297   -1.7473 O.co2    1 ZINC000006092007   -0.6900
17     O17     6.8424   -0.7494    0.3582 O.co2    1 ZINC000006092007   -0.7000
18     H18     0.8133    1.8801   -0.0197 H        1 ZINC000006092007    0.4200
19     H19    -0.8665    1.8555   -0.0333 H        1 ZINC000006092007    0.3900
20     H20    -2.1258   -0.1946    0.1701 H        1 ZINC000006092007    0.1300
21     H21     0.0473   -3.8646    0.0098 H        1 ZINC000006092007    0.1400
22     H22     2.1610   -2.6332   -0.1798 H        1 ZINC000006092007    0.1400
23     H23     3.9488   -1.3848    0.3606 H        1 ZINC000006092007    0.1000
24     H24     3.7113   -1.2510   -1.3983 H        1 ZINC000006092007    0.1000
25     H25     4.7435    0.6131   -2.5710 H        1 ZINC000006092007    0.3400
26     H26     3.9174    1.7217   -1.6467 H        1 ZINC000006092007    0.3300
@<TRIPOS>BOND
1     1     2     1
2     1     18    1
3     1     19    1
4     2     8     ar
5     2     3     ar
6     3     4     ar
7     3     20    1
8     4     5     1
9     4     6     ar
10    6     7     ar
11    6     21    1
12    7     8     ar
13    7     22    1
14    8     9     1
15    9     10    2
16    9     11    1
17    11    12    1
18    11    23    1
19    11    24    1
20    12    13    1
21    12    14    1
22    12    15    1
23    14    25    1
24    14    26    1
25    15    16    ar
26    15    17    ar
@<TRIPOS>SUBSTRUCTURE
1   ZINC000006092007 1     RESIDUE    1   A     ZIN   1
