@<TRIPOS>MOLECULE
ZINC000040435195
  52   55    0    0    0
SMALL
USER_CHARGES
NO_NAME
@<TRIPOS>ATOM
    1 C1       -0.2408     1.8494    -0.3100 C.3    1 <0>       0.0200
    2 O2       -0.2363     0.4446    -0.0480 O.3    1 <0>      -0.3200
    3 C3       -1.4420    -0.1865    -0.0415 C.ar   1 <0>       0.0300
    4 C4       -2.1711    -0.2861     1.1371 C.ar   1 <0>       0.1800
    5 N5       -1.6626     0.2635     2.3139 N.pl3  1 <0>      -0.6500
    6 C6       -1.9693     1.6515     2.6855 C.3    1 <0>       0.1400
    7 C7       -2.5475     1.6659     4.1041 C.3    1 <0>      -0.1000
    8 H8       -2.6898     2.6967     4.4285 H      1 <0>       0.1000
    9 C9       -3.8927     0.9370     4.1146 C.3    1 <0>      -0.1600
   10 C10      -1.5763     0.9609     5.0537 C.3    1 <0>      -0.1300
   11 C11      -1.4013    -0.4957     4.6182 C.3    1 <0>       0.0000
   12 H12      -2.3702    -0.9952     4.6210 H      1 <0>       0.1500
   13 N13      -0.4942    -1.1802     5.5491 N.4    1 <0>      -0.6300
   14 H14      -0.8832    -1.1520     6.4797 H      1 <0>       0.4400
   15 H15      -0.3791    -2.1405     5.2616 H      1 <0>       0.4400
   16 H16       0.4028    -0.7182     5.5454 H      1 <0>       0.4300
   17 C17      -0.8151    -0.5366     3.2086 C.3    1 <0>       0.1300
   18 C18      -3.4072    -0.9305     1.1524 C.ar   1 <0>      -0.1700
   19 C19      -3.9176    -1.4733     0.0081 C.ar   1 <0>      -0.0200
   20 C20      -3.1988    -1.3834    -1.1859 C.ar   1 <0>      -0.1800
   21 C21      -1.9531    -0.7306    -1.2176 C.ar   1 <0>       0.2000
   22 N22      -1.2425    -0.6422    -2.3976 N.pl3  1 <0>      -0.4600
   23 C23       0.0508     0.0460    -2.3876 C.3    1 <0>       0.0300
   24 C24       0.8317     0.1014    -3.7022 C.3    1 <0>      -0.1800
   25 C25       0.1563     1.3626    -3.1598 C.3    1 <0>      -0.1900
   26 C26      -1.6844    -1.1587    -3.5499 C.2    1 <0>       0.1400
   27 C27      -2.8931    -1.8224    -3.6430 C.2    1 <0>      -0.2900
   28 C28      -3.3429    -2.3753    -4.9243 C.2    1 <0>       0.5300
   29 O29      -2.6461    -2.2508    -5.9230 O.co2  1 <0>      -0.7000
   30 O30      -4.4153    -2.9613    -4.9954 O.co2  1 <0>      -0.6600
   31 C31      -3.7250    -1.9596    -2.4349 C.2    1 <0>       0.4100
   32 O32      -4.7984    -2.5359    -2.4654 O.2    1 <0>      -0.4400
   33 H33       0.7815     2.2267    -0.2861 H      1 <0>       0.0900
   34 H34      -0.6734     2.0342    -1.2932 H      1 <0>       0.0600
   35 H35      -0.8339     2.3587     0.4495 H      1 <0>       0.0400
   36 H36      -1.0572     2.2475     2.6567 H      1 <0>       0.0600
   37 H37      -2.6996     2.0634     1.9890 H      1 <0>       0.0900
   38 H38      -3.7498    -0.0941     3.7912 H      1 <0>       0.0600
   39 H39      -4.3037     0.9475     5.1241 H      1 <0>       0.0600
   40 H40      -4.5829     1.4382     3.4361 H      1 <0>       0.0700
   41 H41      -0.6110     1.4664     5.0269 H      1 <0>       0.0900
   42 H42      -1.9739     0.9914     6.0682 H      1 <0>       0.0900
   43 H43      -0.7812    -1.5676     2.8566 H      1 <0>       0.0900
   44 H44       0.1915    -0.1186     3.2192 H      1 <0>       0.0700
   45 H45      -3.9643    -1.0013     2.0749 H      1 <0>       0.1300
   46 H46      -4.8756    -1.9716     0.0265 H      1 <0>       0.1400
   47 H47       0.6239    -0.0436    -1.4648 H      1 <0>       0.1800
   48 H48       1.9188     0.0482    -3.6444 H      1 <0>       0.1100
   49 H49       0.3832    -0.3741    -4.5744 H      1 <0>       0.1100
   50 H50      -0.7364     1.7168    -3.6752 H      1 <0>       0.1000
   51 H51       0.7992     2.1391    -2.7451 H      1 <0>       0.1100
   52 H52      -1.0769    -1.0533    -4.4365 H      1 <0>       0.1700
@<TRIPOS>BOND
   1    1    2 1
   2    1   33 1
   3    1   34 1
   4    1   35 1
   5    2    3 1
   6    3   21 ar
   7    3    4 ar
   8    4    5 1
   9    4   18 ar
  10    5   17 1
  11    5    6 1
  12    6    7 1
  13    6   36 1
  14    6   37 1
  15    7    8 1
  16    7    9 1
  17    7   10 1
  18    9   38 1
  19    9   39 1
  20    9   40 1
  21   10   11 1
  22   10   41 1
  23   10   42 1
  24   11   12 1
  25   11   13 1
  26   11   17 1
  27   13   14 1
  28   13   15 1
  29   13   16 1
  30   17   43 1
  31   17   44 1
  32   18   19 ar
  33   18   45 1
  34   19   20 ar
  35   19   46 1
  36   20   31 1
  37   20   21 ar
  38   21   22 1
  39   22   23 1
  40   22   26 1
  41   23   25 1
  42   23   24 1
  43   23   47 1
  44   24   25 1
  45   24   48 1
  46   24   49 1
  47   25   50 1
  48   25   51 1
  49   26   27 2
  50   26   52 1
  51   27   28 1
  52   27   31 1
  53   28   29 ar
  54   28   30 ar
  55   31   32 2
