@<TRIPOS>MOLECULE
ZINC000001541366
48    50    1     0     0
SMALL
USER_CHARGES
@<TRIPOS>ATOM
1      O1      0.0021   -0.0041    0.0020 O.co2    1 ZINC000001541366   -0.6900
2      C2     -0.0145    1.2207    0.0088 C.2      1 ZINC000001541366    0.5000
3      O3      1.0378    1.8476    0.0021 O.co2    1 ZINC000001541366   -0.7000
4      C4     -1.2506    1.9122    0.0184 C.2      1 ZINC000001541366   -0.1200
5      C5     -2.4120    1.2205    0.0201 C.2      1 ZINC000001541366   -0.1200
6      C6     -3.6949    1.9381    0.0301 C.ar     1 ZINC000001541366    0.1600
7      N7     -3.7087    3.2685    0.0319 N.ar     1 ZINC000001541366   -0.4300
8      C8     -4.8343    3.9466    0.0407 C.ar     1 ZINC000001541366    0.1000
9      C9     -4.7918    5.4530    0.0419 C.3      1 ZINC000001541366   -0.0400
10     S10    -4.7872    6.0591   -1.6679 S.3      1 ZINC000001541366   -0.0900
11     C11    -4.7364    7.8090   -1.4680 C.ar     1 ZINC000001541366   -0.1200
12     C12    -5.9186    8.5343   -1.3744 C.ar     1 ZINC000001541366    0.0100
13     Cl13   -7.4483    7.7172   -1.4538 Cl       1 ZINC000001541366   -0.0400
14     C14    -5.8746    9.9067   -1.2177 C.ar     1 ZINC000001541366   -0.1200
15     C15    -4.6565   10.5585   -1.1540 C.ar     1 ZINC000001541366   -0.0700
16     C16    -3.4783    9.8405   -1.2471 C.ar     1 ZINC000001541366   -0.1200
17     C17    -3.5139    8.4672   -1.3977 C.ar     1 ZINC000001541366    0.0100
18     Cl18   -2.0341    7.5669   -1.5144 Cl       1 ZINC000001541366   -0.0200
19     C19    -6.0611    3.2989    0.0486 C.ar     1 ZINC000001541366   -0.1300
20     C20    -6.1015    1.9151    0.0471 C.ar     1 ZINC000001541366   -0.1700
21     C21    -4.8981    1.2163    0.0319 C.ar     1 ZINC000001541366    0.0900
22     O22    -4.8884   -0.1402    0.0298 O.3      1 ZINC000001541366   -0.2900
23     C23    -6.1568   -0.7981    0.0438 C.3      1 ZINC000001541366    0.0600
24     C24    -5.9456   -2.3134    0.0391 C.3      1 ZINC000001541366   -0.0800
25     C25    -7.2833   -3.0072    0.0539 C.ar     1 ZINC000001541366   -0.0800
26     C26    -7.8853   -3.3221    1.2578 C.ar     1 ZINC000001541366   -0.1100
27     C27    -9.1124   -3.9584    1.2713 C.ar     1 ZINC000001541366   -0.1200
28     C28    -9.7376   -4.2796    0.0810 C.ar     1 ZINC000001541366   -0.1200
29     C29    -9.1360   -3.9639   -1.1229 C.ar     1 ZINC000001541366   -0.1200
30     C30    -7.9109   -3.3237   -1.1364 C.ar     1 ZINC000001541366   -0.1100
31     H31    -1.2653    2.9920    0.0243 H        1 ZINC000001541366    0.1100
32     H32    -2.3973    0.1406    0.0142 H        1 ZINC000001541366    0.1400
33     H33    -5.6675    5.8408    0.5625 H        1 ZINC000001541366    0.1000
34     H34    -3.8883    5.7906    0.5495 H        1 ZINC000001541366    0.1000
35     H35    -6.7926   10.4710   -1.1454 H        1 ZINC000001541366    0.1400
36     H36    -4.6254   11.6311   -1.0315 H        1 ZINC000001541366    0.1500
37     H37    -2.5290   10.3532   -1.1976 H        1 ZINC000001541366    0.1500
38     H38    -6.9777    3.8699    0.0561 H        1 ZINC000001541366    0.1300
39     H39    -7.0453    1.3901    0.0530 H        1 ZINC000001541366    0.1400
40     H40    -6.7054   -0.5105    0.9407 H        1 ZINC000001541366    0.0600
41     H41    -6.7264   -0.5079   -0.8391 H        1 ZINC000001541366    0.0600
42     H42    -5.3970   -2.6010   -0.8578 H        1 ZINC000001541366    0.0900
43     H43    -5.3760   -2.6036    0.9221 H        1 ZINC000001541366    0.0900
44     H44    -7.3969   -3.0712    2.1877 H        1 ZINC000001541366    0.1200
45     H45    -9.5825   -4.2051    2.2119 H        1 ZINC000001541366    0.1200
46     H46   -10.6960   -4.7774    0.0916 H        1 ZINC000001541366    0.1200
47     H47    -9.6243   -4.2151   -2.0528 H        1 ZINC000001541366    0.1200
48     H48    -7.4409   -3.0770   -2.0769 H        1 ZINC000001541366    0.1200
@<TRIPOS>BOND
1     1     2     ar
2     2     3     ar
3     2     4     1
4     4     5     2
5     4     31    1
6     5     6     1
7     5     32    1
8     6     21    ar
9     6     7     ar
10    7     8     ar
11    8     9     1
12    8     19    ar
13    9     10    1
14    9     33    1
15    9     34    1
16    10    11    1
17    11    17    ar
18    11    12    ar
19    12    13    1
20    12    14    ar
21    14    15    ar
22    14    35    1
23    15    16    ar
24    15    36    1
25    16    17    ar
26    16    37    1
27    17    18    1
28    19    20    ar
29    19    38    1
30    20    21    ar
31    20    39    1
32    21    22    1
33    22    23    1
34    23    24    1
35    23    40    1
36    23    41    1
37    24    25    1
38    24    42    1
39    24    43    1
40    25    30    ar
41    25    26    ar
42    26    27    ar
43    26    44    1
44    27    28    ar
45    27    45    1
46    28    29    ar
47    28    46    1
48    29    30    ar
49    29    47    1
50    30    48    1
@<TRIPOS>SUBSTRUCTURE
1   ZINC000001541366 1     RESIDUE    1   A     ZIN   1
