@<TRIPOS>MOLECULE
ZINC000003806286
77    79    1     0     0
SMALL
USER_CHARGES
@<TRIPOS>ATOM
1      C1      0.2617   -0.8106    1.8448 C.3      1 ZINC000003806286   -0.1500
2      C2      0.2074   -2.1274    1.0678 C.3      1 ZINC000003806286   -0.1200
3      C3      0.8774   -1.9433   -0.2953 C.3      1 ZINC000003806286   -0.1300
4      C4      0.8231   -3.2601   -1.0724 C.3      1 ZINC000003806286    0.1500
5      N5      1.4647   -3.0838   -2.3776 N.am     1 ZINC000003806286   -0.4300
6      O6      0.6734   -2.9826   -3.5475 O.3      1 ZINC000003806286   -0.6900
7      C7      2.8080   -3.0178   -2.4648 C.2      1 ZINC000003806286    0.6700
8      O8      3.4874   -3.1046   -1.4601 O.2      1 ZINC000003806286   -0.6400
9      N9      3.3982   -2.8555   -3.6655 N.am     1 ZINC000003806286   -0.6600
10     C10     4.7852   -2.6685   -3.7452 C.ar     1 ZINC000003806286    0.2300
11     C11     5.4794   -2.1452   -2.6633 C.ar     1 ZINC000003806286   -0.1500
12     C12     6.8469   -1.9606   -2.7416 C.ar     1 ZINC000003806286   -0.0500
13     C13     7.5969   -1.3926   -1.5643 C.3      1 ZINC000003806286    0.1300
14     H14     7.0552   -1.6064   -0.6429 H        1 ZINC000003806286    0.1000
15     C15     7.7601    0.1331   -1.7340 C.3      1 ZINC000003806286   -0.1400
16     C16     9.2011    0.3712   -1.2061 C.3      1 ZINC000003806286   -0.1400
17     C17     9.8997   -0.9358   -1.6584 C.3      1 ZINC000003806286    0.1200
18     H18    10.2051   -0.8599   -2.7020 H        1 ZINC000003806286    0.0800
19     C19    11.0938   -1.2202   -0.7842 C.ar     1 ZINC000003806286   -0.0100
20     C20    10.9283   -1.8960    0.4102 C.ar     1 ZINC000003806286   -0.2100
21     C21    12.0245   -2.1600    1.2173 C.ar     1 ZINC000003806286    0.1500
22     O22    11.8607   -2.8253    2.3921 O.3      1 ZINC000003806286   -0.3000
23     C23    10.5310   -3.2229    2.7325 C.3      1 ZINC000003806286    0.0200
24     C24    13.2909   -1.7443    0.8238 C.ar     1 ZINC000003806286    0.0300
25     O25    14.3694   -2.0019    1.6129 O.3      1 ZINC000003806286   -0.3100
26     C26    15.0599   -3.2324    1.3864 C.3      1 ZINC000003806286    0.0400
27     C27    13.4531   -1.0651   -0.3778 C.ar     1 ZINC000003806286    0.1500
28     O28    14.6904   -0.6566   -0.7675 O.3      1 ZINC000003806286   -0.3000
29     C29    14.7822    0.0358   -2.0141 C.3      1 ZINC000003806286    0.0200
30     C30    12.3525   -0.8096   -1.1817 C.ar     1 ZINC000003806286   -0.2300
31     O31     8.9081   -1.9657   -1.5012 O.3      1 ZINC000003806286   -0.3600
32     C32     7.5287   -2.2959   -3.8963 C.ar     1 ZINC000003806286   -0.2200
33     C33     6.8430   -2.8194   -4.9823 C.ar     1 ZINC000003806286    0.1300
34     O34     7.5155   -3.1486   -6.1176 O.3      1 ZINC000003806286   -0.3100
35     C35     8.9275   -2.9287   -6.1221 C.3      1 ZINC000003806286    0.0300
36     C36     5.4692   -3.0124   -4.9070 C.ar     1 ZINC000003806286    0.0100
37     O37     4.7929   -3.5262   -5.9702 O.3      1 ZINC000003806286   -0.3200
38     C38     4.6604   -4.9478   -6.0293 C.3      1 ZINC000003806286    0.0700
39     C39     3.8767   -5.3353   -7.2849 C.3      1 ZINC000003806286   -0.1200
40     C40     3.7348   -6.8574   -7.3481 C.3      1 ZINC000003806286   -0.1500
41     H41     1.3013   -0.5157    1.9879 H        1 ZINC000003806286    0.0500
42     H42    -0.2618   -0.0361    1.2843 H        1 ZINC000003806286    0.0500
43     H43    -0.2156   -0.9418    2.8159 H        1 ZINC000003806286    0.0500
44     H44     0.7309   -2.9019    1.6283 H        1 ZINC000003806286    0.0600
45     H45    -0.8322   -2.4223    0.9248 H        1 ZINC000003806286    0.0600
46     H46     0.3539   -1.1688   -0.8558 H        1 ZINC000003806286    0.0600
47     H47     1.9170   -1.6484   -0.1523 H        1 ZINC000003806286    0.0700
48     H48     1.3467   -4.0346   -0.5119 H        1 ZINC000003806286    0.0500
49     H49    -0.2164   -3.5550   -1.2154 H        1 ZINC000003806286    0.0600
50     H50     2.8633   -2.8682   -4.4746 H        1 ZINC000003806286    0.4200
51     H51     4.9503   -1.8817   -1.7594 H        1 ZINC000003806286    0.1600
52     H52     7.6793    0.4176   -2.7831 H        1 ZINC000003806286    0.0800
53     H53     7.0311    0.6710   -1.1279 H        1 ZINC000003806286    0.0900
54     H54     9.6538    1.2426   -1.6792 H        1 ZINC000003806286    0.0900
55     H55     9.2110    0.4664   -0.1203 H        1 ZINC000003806286    0.0800
56     H56     9.9437   -2.2184    0.7155 H        1 ZINC000003806286    0.1400
57     H57    10.5412   -3.7425    3.6906 H        1 ZINC000003806286    0.1000
58     H58     9.8951   -2.3405    2.8045 H        1 ZINC000003806286    0.0600
59     H59    10.1424   -3.8889    1.9621 H        1 ZINC000003806286    0.0600
60     H60    14.3763   -4.0668    1.5431 H        1 ZINC000003806286    0.0400
61     H61    15.4336   -3.2562    0.3627 H        1 ZINC000003806286    0.0400
62     H62    15.8965   -3.3127    2.0805 H        1 ZINC000003806286    0.0900
63     H63    15.8212    0.3046   -2.2047 H        1 ZINC000003806286    0.1000
64     H64    14.4209   -0.6089   -2.8153 H        1 ZINC000003806286    0.0600
65     H65    14.1747    0.9399   -1.9732 H        1 ZINC000003806286    0.0600
66     H66    12.4777   -0.2823   -2.1158 H        1 ZINC000003806286    0.1400
67     H67     8.5972   -2.1496   -3.9531 H        1 ZINC000003806286    0.1300
68     H68     9.3891   -3.5153   -5.3278 H        1 ZINC000003806286    0.0500
69     H69     9.3394   -3.2326   -7.0845 H        1 ZINC000003806286    0.0900
70     H70     9.1310   -1.8706   -5.9576 H        1 ZINC000003806286    0.0500
71     H71     5.6498   -5.4039   -6.0633 H        1 ZINC000003806286    0.0500
72     H72     4.1281   -5.3001   -5.1457 H        1 ZINC000003806286    0.0500
73     H73     2.8873   -4.8792   -7.2509 H        1 ZINC000003806286    0.0700
74     H74     4.4090   -4.9830   -8.1685 H        1 ZINC000003806286    0.0700
75     H75     3.1766   -7.1334   -8.2427 H        1 ZINC000003806286    0.0600
76     H76     4.7243   -7.3134   -7.3822 H        1 ZINC000003806286    0.0500
77     H77     3.2026   -7.2096   -6.4645 H        1 ZINC000003806286    0.0600
@<TRIPOS>BOND
1     1     2     1
2     1     41    1
3     1     42    1
4     1     43    1
5     2     3     1
6     2     44    1
7     2     45    1
8     3     4     1
9     3     46    1
10    3     47    1
11    4     5     1
12    4     48    1
13    4     49    1
14    5     6     1
15    5     7     am
16    7     8     2
17    7     9     am
18    9     10    1
19    9     50    1
20    10    36    ar
21    10    11    ar
22    11    12    ar
23    11    51    1
24    12    13    1
25    12    32    ar
26    13    14    1
27    13    31    1
28    13    15    1
29    15    16    1
30    15    52    1
31    15    53    1
32    16    17    1
33    16    54    1
34    16    55    1
35    17    18    1
36    17    19    1
37    17    31    1
38    19    30    ar
39    19    20    ar
40    20    21    ar
41    20    56    1
42    21    22    1
43    21    24    ar
44    22    23    1
45    23    57    1
46    23    58    1
47    23    59    1
48    24    25    1
49    24    27    ar
50    25    26    1
51    26    60    1
52    26    61    1
53    26    62    1
54    27    28    1
55    27    30    ar
56    28    29    1
57    29    63    1
58    29    64    1
59    29    65    1
60    30    66    1
61    32    33    ar
62    32    67    1
63    33    34    1
64    33    36    ar
65    34    35    1
66    35    68    1
67    35    69    1
68    35    70    1
69    36    37    1
70    37    38    1
71    38    39    1
72    38    71    1
73    38    72    1
74    39    40    1
75    39    73    1
76    39    74    1
77    40    75    1
78    40    76    1
79    40    77    1
@<TRIPOS>SUBSTRUCTURE
1   ZINC000003806286 1     RESIDUE    1   A     ZIN   1
