@<TRIPOS>MOLECULE
ZINC000003979155
43    47    1     0     0
SMALL
USER_CHARGES
@<TRIPOS>ATOM
1      C1     -0.0187    1.5258    0.0104 C.3      1 ZINC000003979155   -0.1600
2      C2      0.0021   -0.0041    0.0020 C.3      1 ZINC000003979155   -0.1400
3      C3      0.7182   -0.4975   -1.2568 C.3      1 ZINC000003979155    0.1400
4      O4      0.0304   -0.0217   -2.4155 O.3      1 ZINC000003979155   -0.5200
5      C5      2.1394    0.0165   -1.2640 C.2      1 ZINC000003979155    0.4700
6      O6      2.4669    0.9660   -1.9356 O.2      1 ZINC000003979155   -0.4200
7      O7      3.0266   -0.6390   -0.4810 O.3      1 ZINC000003979155   -0.3700
8      C8      3.2110   -2.0400   -0.8133 C.3      1 ZINC000003979155    0.1400
9      C9      1.8830   -2.7087   -1.0510 C.2      1 ZINC000003979155   -0.2300
10     C10     0.7395   -2.0053   -1.2666 C.2      1 ZINC000003979155    0.0400
11     C11    -0.4587   -2.6929   -1.5004 C.2      1 ZINC000003979155   -0.1400
12     C12    -0.4792   -4.0714   -1.5027 C.2      1 ZINC000003979155    0.1900
13     C13    -1.6007   -5.0146   -1.7215 C.ar     1 ZINC000003979155    0.1700
14     C14    -1.0989   -6.3235   -1.6198 C.ar     1 ZINC000003979155   -0.1500
15     C15    -1.9229   -7.3930   -1.7803 C.ar     1 ZINC000003979155   -0.0200
16     C16    -3.2849   -7.1485   -2.0489 C.ar     1 ZINC000003979155   -0.0700
17     C17    -4.1921   -8.2029   -2.2258 C.ar     1 ZINC000003979155   -0.1300
18     C18    -5.5058   -7.9274   -2.4835 C.ar     1 ZINC000003979155    0.1300
19     O19    -6.3852   -8.9487   -2.6548 O.3      1 ZINC000003979155   -0.5000
20     C20    -5.9550   -6.6055   -2.5725 C.ar     1 ZINC000003979155   -0.1200
21     C21    -5.0999   -5.5621   -2.4068 C.ar     1 ZINC000003979155   -0.0700
22     C22    -3.7387   -5.8069   -2.1400 C.ar     1 ZINC000003979155    0.1300
23     N23    -2.8825   -4.7988   -1.9738 N.ar     1 ZINC000003979155   -0.4300
24     C24     0.3749   -6.2042   -1.3286 C.3      1 ZINC000003979155    0.1400
25     N25     0.6742   -4.7672   -1.2746 N.am     1 ZINC000003979155   -0.5000
26     C26     1.8326   -4.1179   -1.0505 C.2      1 ZINC000003979155    0.5500
27     O27     2.8514   -4.7572   -0.8439 O.2      1 ZINC000003979155   -0.5300
28     H28     1.0039    1.9031    0.0027 H        1 ZINC000003979155    0.0600
29     H29    -0.5459    1.8868   -0.8726 H        1 ZINC000003979155    0.0600
30     H30    -0.5289    1.8773    0.9072 H        1 ZINC000003979155    0.0700
31     H31     0.5293   -0.3651    0.8851 H        1 ZINC000003979155    0.0900
32     H32    -1.0205   -0.3814    0.0098 H        1 ZINC000003979155    0.1000
33     H33    -0.0191    0.9422   -2.4754 H        1 ZINC000003979155    0.3900
34     H34     3.8190   -2.1183   -1.7145 H        1 ZINC000003979155    0.1000
35     H35     3.7228   -2.5399    0.0091 H        1 ZINC000003979155    0.1400
36     H36    -1.3697   -2.1410   -1.6792 H        1 ZINC000003979155    0.1600
37     H37    -1.5445   -8.4016   -1.7044 H        1 ZINC000003979155    0.1500
38     H38    -3.8547   -9.2267   -2.1591 H        1 ZINC000003979155    0.1400
39     H39    -6.8097   -9.2434   -1.8375 H        1 ZINC000003979155    0.4000
40     H40    -6.9976   -6.4111   -2.7764 H        1 ZINC000003979155    0.1400
41     H41    -5.4634   -4.5477   -2.4795 H        1 ZINC000003979155    0.1500
42     H42     0.6055   -6.6703   -0.3706 H        1 ZINC000003979155    0.1200
43     H43     0.9523   -6.6767   -2.1233 H        1 ZINC000003979155    0.1200
@<TRIPOS>BOND
1     1     2     1
2     1     28    1
3     1     29    1
4     1     30    1
5     2     3     1
6     2     31    1
7     2     32    1
8     3     10    1
9     3     4     1
10    3     5     1
11    4     33    1
12    5     6     2
13    5     7     1
14    7     8     1
15    8     9     1
16    8     34    1
17    8     35    1
18    9     26    1
19    9     10    2
20    10    11    1
21    11    12    2
22    11    36    1
23    12    25    1
24    12    13    1
25    13    23    ar
26    13    14    ar
27    14    15    ar
28    14    24    1
29    15    16    ar
30    15    37    1
31    16    22    ar
32    16    17    ar
33    17    18    ar
34    17    38    1
35    18    19    1
36    18    20    ar
37    19    39    1
38    20    21    ar
39    20    40    1
40    21    22    ar
41    21    41    1
42    22    23    ar
43    24    25    1
44    24    42    1
45    24    43    1
46    25    26    am
47    26    27    2
@<TRIPOS>SUBSTRUCTURE
1   ZINC000003979155 1     RESIDUE    1   A     ZIN   1
