@<TRIPOS>MOLECULE
ZINC000000899213
34    35    1     0     0
SMALL
USER_CHARGES
@<TRIPOS>ATOM
1      C1     -0.0173    1.4248    0.0099 C.3      1 ZINC000000899213    0.0300
2      O2      0.0021   -0.0041    0.0020 O.3      1 ZINC000000899213   -0.3200
3      C3      0.6058   -0.6071   -1.0557 C.ar     1 ZINC000000899213    0.1700
4      C4      0.6546   -1.9890   -1.1281 C.ar     1 ZINC000000899213   -0.2000
5      C5      1.2754   -2.6076   -2.2158 C.ar     1 ZINC000000899213    0.0600
6      C6      1.3296   -4.0783   -2.2979 C.2      1 ZINC000000899213   -0.2200
7      C7      1.9269   -4.6706   -3.3444 C.2      1 ZINC000000899213    0.0000
8      C8      1.9811   -6.1408   -3.4266 C.ar     1 ZINC000000899213   -0.2400
9      C9      1.4065   -6.9209   -2.4191 C.ar     1 ZINC000000899213   -0.0400
10     C10     1.4597   -8.2954   -2.5002 C.ar     1 ZINC000000899213   -0.2700
11     C11     2.0832   -8.9059   -3.5810 C.ar     1 ZINC000000899213    0.2800
12     O12     2.1328  -10.2614   -3.6569 O.3      1 ZINC000000899213   -0.7200
13     C13     2.6557   -8.1349   -4.5845 C.ar     1 ZINC000000899213   -0.2700
14     C14     2.6024   -6.7597   -4.5151 C.ar     1 ZINC000000899213   -0.0400
15     C15     1.8442   -1.8280   -3.2256 C.ar     1 ZINC000000899213   -0.2000
16     C16     1.7902   -0.4468   -3.1440 C.ar     1 ZINC000000899213    0.1700
17     O17     2.3433    0.3129   -4.1259 O.3      1 ZINC000000899213   -0.3200
18     C18     2.2515    1.7313   -3.9781 C.3      1 ZINC000000899213    0.0300
19     C19     1.1674    0.1630   -2.0643 C.ar     1 ZINC000000899213   -0.3200
20     H20     1.0053    1.8021    0.0021 H        1 ZINC000000899213    0.0500
21     H21    -0.5445    1.7859   -0.8732 H        1 ZINC000000899213    0.0500
22     H22    -0.5275    1.7763    0.9067 H        1 ZINC000000899213    0.1000
23     H23     0.2136   -2.5876   -0.3447 H        1 ZINC000000899213    0.1300
24     H24     0.8889   -4.6794   -1.5164 H        1 ZINC000000899213    0.1200
25     H25     2.3676   -4.0695   -4.1260 H        1 ZINC000000899213    0.1100
26     H26     0.9218   -6.4471   -1.5782 H        1 ZINC000000899213    0.1000
27     H27     1.0163   -8.8990   -1.7221 H        1 ZINC000000899213    0.1000
28     H28     3.1397   -8.6140   -5.4227 H        1 ZINC000000899213    0.1000
29     H29     3.0475   -6.1610   -5.2960 H        1 ZINC000000899213    0.1000
30     H30     2.3256   -2.3017   -4.0683 H        1 ZINC000000899213    0.1300
31     H31     2.7312    2.2169   -4.8280 H        1 ZINC000000899213    0.1000
32     H32     1.2027    2.0251   -3.9362 H        1 ZINC000000899213    0.0500
33     H33     2.7507    2.0337   -3.0576 H        1 ZINC000000899213    0.0500
34     H34     1.1273    1.2406   -2.0042 H        1 ZINC000000899213    0.1300
@<TRIPOS>BOND
1     1     2     1
2     1     20    1
3     1     21    1
4     1     22    1
5     2     3     1
6     3     19    ar
7     3     4     ar
8     4     5     ar
9     4     23    1
10    5     6     1
11    5     15    ar
12    6     7     2
13    6     24    1
14    7     8     1
15    7     25    1
16    8     14    ar
17    8     9     ar
18    9     10    ar
19    9     26    1
20    10    11    ar
21    10    27    1
22    11    12    1
23    11    13    ar
24    13    14    ar
25    13    28    1
26    14    29    1
27    15    16    ar
28    15    30    1
29    16    17    1
30    16    19    ar
31    17    18    1
32    18    31    1
33    18    32    1
34    18    33    1
35    19    34    1
@<TRIPOS>SUBSTRUCTURE
1   ZINC000000899213 1     RESIDUE    1   A     ZIN   1
