@<TRIPOS>MOLECULE
ZINC000014209416
  52   52    0    0    0
SMALL
USER_CHARGES
NO_NAME
@<TRIPOS>ATOM
    1 C1        0.7269    -1.6634    -1.0309 C.3    1 <0>      -0.1400
    2 C2       -0.2382    -2.8061    -0.7090 C.3    1 <0>      -0.0900
    3 C3        0.3278    -3.6434     0.4397 C.3    1 <0>      -0.1400
    4 C4       -1.5738    -2.2369    -0.3051 C.2    1 <0>       0.4400
    5 O5       -1.7370    -1.0400    -0.2775 O.2    1 <0>      -0.4500
    6 O6       -2.5821    -3.0595     0.0241 O.3    1 <0>      -0.3600
    7 C7       -3.8752    -2.4492     0.2764 C.3    1 <0>       0.2700
    8 H8       -3.7430    -1.5587     0.8909 H      1 <0>       0.1000
    9 O9       -4.4904    -2.0793    -0.9858 O.3    1 <0>      -0.3700
   10 C10      -4.2609    -0.8310    -1.4350 C.2    1 <0>       0.6300
   11 O11      -3.6551    -0.0377    -0.7421 O.2    1 <0>      -0.5300
   12 N12      -4.7031    -0.4613    -2.6533 N.am   1 <0>      -0.7000
   13 C13      -4.4534     0.8970    -3.1422 C.3    1 <0>       0.1500
   14 C14      -5.1490     1.0894    -4.4912 C.3    1 <0>      -0.0400
   15 H15      -6.2022     0.8244    -4.3980 H      1 <0>       0.0900
   16 C16      -4.4879     0.1914    -5.5387 C.3    1 <0>      -0.1800
   17 C17      -5.2640     0.2681    -6.8281 C.2    1 <0>       0.4900
   18 O18      -6.2246     1.0135    -6.9180 O.co2  1 <0>      -0.6900
   19 O19      -4.9314    -0.4152    -7.7815 O.co2  1 <0>      -0.7100
   20 C20      -5.0294     2.5300    -4.9171 C.ar   1 <0>      -0.0300
   21 C21      -3.7811     3.0931    -5.1067 C.ar   1 <0>      -0.1100
   22 C22      -3.6707     4.4143    -5.4973 C.ar   1 <0>      -0.1200
   23 C23      -4.8098     5.1733    -5.6985 C.ar   1 <0>      -0.0400
   24 Cl24     -4.6719     6.8327    -6.1896 Cl     1 <0>      -0.0900
   25 C25      -6.0587     4.6093    -5.5085 C.ar   1 <0>      -0.1200
   26 C26      -6.1680     3.2864    -5.1234 C.ar   1 <0>      -0.0600
   27 C27      -4.7752    -3.4458     1.0097 C.3    1 <0>      -0.0800
   28 C28      -4.8601    -4.7443     0.2049 C.3    1 <0>      -0.1500
   29 C29      -4.1899    -3.7400     2.3923 C.3    1 <0>      -0.1500
   30 H30       1.6930    -2.0751    -1.3230 H      1 <0>       0.0700
   31 H31       0.3237    -1.0669    -1.8492 H      1 <0>       0.0700
   32 H32       0.8517    -1.0340    -0.1497 H      1 <0>       0.0600
   33 H33      -0.3629    -3.4355    -1.5901 H      1 <0>       0.1100
   34 H34      -0.3597    -4.4575     0.6691 H      1 <0>       0.0700
   35 H35       1.2939    -4.0551     0.1476 H      1 <0>       0.0700
   36 H36       0.4526    -3.0140     1.3209 H      1 <0>       0.0600
   37 H37      -5.1867    -1.0946    -3.2065 H      1 <0>       0.4100
   38 H38      -4.8447     1.6188    -2.4253 H      1 <0>       0.0700
   39 H39      -3.3806     1.0486    -3.2616 H      1 <0>       0.0700
   40 H40      -3.4646     0.5256    -5.7101 H      1 <0>       0.0600
   41 H41      -4.4787    -0.8382    -5.1809 H      1 <0>       0.0600
   42 H42      -2.8920     2.5005    -4.9494 H      1 <0>       0.1300
   43 H43      -2.6955     4.8541    -5.6451 H      1 <0>       0.1300
   44 H44      -6.9483     5.2015    -5.6651 H      1 <0>       0.1300
   45 H45      -7.1429     2.8459    -4.9754 H      1 <0>       0.1300
   46 H46      -5.7729    -3.0211     1.1204 H      1 <0>       0.1000
   47 H47      -3.8623    -5.1689     0.0942 H      1 <0>       0.0600
   48 H48      -5.5012    -5.4542     0.7273 H      1 <0>       0.0600
   49 H49      -5.2771    -4.5346    -0.7801 H      1 <0>       0.0600
   50 H50      -3.1921    -4.1647     2.2816 H      1 <0>       0.0700
   51 H51      -4.1294    -2.8150     2.9656 H      1 <0>       0.0600
   52 H52      -4.8310    -4.4500     2.9147 H      1 <0>       0.0700
@<TRIPOS>BOND
   1    1    2 1
   2    1   30 1
   3    1   31 1
   4    1   32 1
   5    2    3 1
   6    2    4 1
   7    2   33 1
   8    3   34 1
   9    3   35 1
  10    3   36 1
  11    4    5 2
  12    4    6 1
  13    6    7 1
  14    7    8 1
  15    7    9 1
  16    7   27 1
  17    9   10 1
  18   10   11 2
  19   10   12 am
  20   12   13 1
  21   12   37 1
  22   13   14 1
  23   13   38 1
  24   13   39 1
  25   14   15 1
  26   14   16 1
  27   14   20 1
  28   16   17 1
  29   16   40 1
  30   16   41 1
  31   17   18 ar
  32   17   19 ar
  33   20   26 ar
  34   20   21 ar
  35   21   22 ar
  36   21   42 1
  37   22   23 ar
  38   22   43 1
  39   23   24 1
  40   23   25 ar
  41   25   26 ar
  42   25   44 1
  43   26   45 1
  44   27   28 1
  45   27   29 1
  46   27   46 1
  47   28   47 1
  48   28   48 1
  49   28   49 1
  50   29   50 1
  51   29   51 1
  52   29   52 1
