@<TRIPOS>MOLECULE
ZINC000001537184
43    45    1     0     0
SMALL
USER_CHARGES
@<TRIPOS>ATOM
1      C1     -0.0187    1.5258    0.0104 C.3      1 ZINC000001537184   -0.1500
2      C2      0.0021   -0.0041    0.0020 C.3      1 ZINC000001537184   -0.0400
3      C3      0.7421   -0.5109    1.2415 C.3      1 ZINC000001537184   -0.1500
4      C4     -1.4117   -0.5257    0.0127 C.2      1 ZINC000001537184   -0.1800
5      C5     -1.8314   -1.3033   -1.0031 C.2      1 ZINC000001537184   -0.0200
6      C6     -3.1957   -1.8423   -1.0502 C.ar     1 ZINC000001537184   -0.0400
7      C7     -3.6061   -2.6450   -2.1132 C.ar     1 ZINC000001537184   -0.1000
8      C8     -4.8970   -3.1390   -2.1383 C.ar     1 ZINC000001537184   -0.0900
9      C9     -5.7977   -2.8519   -1.1204 C.ar     1 ZINC000001537184   -0.0600
10     C10    -5.4075   -2.0627   -0.0561 C.ar     1 ZINC000001537184   -0.0100
11     C11    -4.1081   -1.5535   -0.0180 C.ar     1 ZINC000001537184   -0.1600
12     C12    -3.6695   -0.7021    1.1077 C.2      1 ZINC000001537184    0.3600
13     O13    -4.4253   -0.4284    2.0165 O.2      1 ZINC000001537184   -0.3800
14     C14    -2.2619   -0.1902    1.0931 C.2      1 ZINC000001537184    0.3600
15     O15    -1.8559    0.5131    1.9970 O.2      1 ZINC000001537184   -0.3900
16     C16    -6.3306   -1.7273    1.0858 C.3      1 ZINC000001537184   -0.0900
17     C17    -7.7849   -1.9786    0.6929 C.3      1 ZINC000001537184   -0.1300
18     C18    -7.8924   -3.3969    0.1203 C.3      1 ZINC000001537184   -0.1100
19     C19    -7.1866   -3.4252   -1.2336 C.3      1 ZINC000001537184   -0.0300
20     C20    -7.9921   -2.6004   -2.2395 C.3      1 ZINC000001537184   -0.1400
21     C21    -7.0968   -4.8712   -1.7254 C.3      1 ZINC000001537184   -0.1400
22     H22     1.0039    1.9031    0.0027 H        1 ZINC000001537184    0.0600
23     H23    -0.5459    1.8868   -0.8726 H        1 ZINC000001537184    0.0500
24     H24    -0.5289    1.8773    0.9072 H        1 ZINC000001537184    0.0700
25     H25     0.5123   -0.3556   -0.8948 H        1 ZINC000001537184    0.0800
26     H26     1.7647   -0.1336    1.2338 H        1 ZINC000001537184    0.0600
27     H27     0.2319   -0.1594    2.1383 H        1 ZINC000001537184    0.0700
28     H28     0.7568   -1.6008    1.2356 H        1 ZINC000001537184    0.0500
29     H29    -1.1460   -1.5363   -1.8046 H        1 ZINC000001537184    0.1400
30     H30    -2.9195   -2.8795   -2.9132 H        1 ZINC000001537184    0.1400
31     H31    -5.2112   -3.7593   -2.9646 H        1 ZINC000001537184    0.1400
32     H32    -6.0784   -2.3475    1.9459 H        1 ZINC000001537184    0.0900
33     H33    -6.2065   -0.6775    1.3518 H        1 ZINC000001537184    0.1000
34     H34    -8.4236   -1.8880    1.5715 H        1 ZINC000001537184    0.0700
35     H35    -8.0920   -1.2540   -0.0612 H        1 ZINC000001537184    0.0700
36     H36    -7.4141   -4.1036    0.7983 H        1 ZINC000001537184    0.0700
37     H37    -8.9418   -3.6626   -0.0072 H        1 ZINC000001537184    0.0700
38     H38    -8.0674   -1.5714   -1.8882 H        1 ZINC000001537184    0.0600
39     H39    -7.4915   -2.6181   -3.2076 H        1 ZINC000001537184    0.0600
40     H40    -8.9914   -3.0242   -2.3395 H        1 ZINC000001537184    0.0600
41     H41    -8.1008   -5.2831   -1.8280 H        1 ZINC000001537184    0.0600
42     H42    -6.5935   -4.8957   -2.6919 H        1 ZINC000001537184    0.0600
43     H43    -6.5322   -5.4650   -1.0066 H        1 ZINC000001537184    0.0600
@<TRIPOS>BOND
1     1     2     1
2     1     22    1
3     1     23    1
4     1     24    1
5     2     3     1
6     2     4     1
7     2     25    1
8     3     26    1
9     3     27    1
10    3     28    1
11    4     14    1
12    4     5     2
13    5     6     1
14    5     29    1
15    6     11    ar
16    6     7     ar
17    7     8     ar
18    7     30    1
19    8     9     ar
20    8     31    1
21    9     19    1
22    9     10    ar
23    10    11    ar
24    10    16    1
25    11    12    1
26    12    13    2
27    12    14    1
28    14    15    2
29    16    17    1
30    16    32    1
31    16    33    1
32    17    18    1
33    17    34    1
34    17    35    1
35    18    19    1
36    18    36    1
37    18    37    1
38    19    20    1
39    19    21    1
40    20    38    1
41    20    39    1
42    20    40    1
43    21    41    1
44    21    42    1
45    21    43    1
@<TRIPOS>SUBSTRUCTURE
1   ZINC000001537184 1     RESIDUE    1   A     ZIN   1
