@<TRIPOS>MOLECULE
ZINC000100023874
  32   33    0    0    0
SMALL
USER_CHARGES
NO_NAME
@<TRIPOS>ATOM
    1 N1       -0.0049     1.2880     0.4230 N.2    1 <0>      -0.7900
    2 C2        0.0211    -0.0123     0.5116 C.2    1 <0>       0.6400
    3 N3       -1.1518    -0.7151     0.6615 N.pl3  1 <0>      -0.8400
    4 N4        1.2223    -0.6821     0.4552 N.pl3  1 <0>      -0.6000
    5 N5        2.4170     0.0337     0.3026 N.2    1 <0>      -0.1900
    6 C6        3.5492    -0.5976     0.2494 C.2    1 <0>       0.1000
    7 C7        3.7353    -2.0935     0.3313 C.3    1 <0>      -0.1200
    8 C8        5.2493    -2.3197     0.2199 C.3    1 <0>      -0.0900
    9 C9        5.8740    -0.9526     0.0789 C.ar   1 <0>      -0.0300
   10 C10       7.2109    -0.5773    -0.0569 C.ar   1 <0>      -0.1500
   11 C11       8.2706    -1.6102    -0.0779 C.cat  1 <0>       0.6100
   12 N12       9.2735    -1.5528     0.7959 N.pl3  1 <0>      -0.7500
   13 N13       8.2210    -2.5968    -0.9705 N.pl3  1 <0>      -0.7500
   14 H14       8.8721    -3.3149    -0.9364 H      1 <0>       0.4300
   15 H15       7.5337    -2.5974    -1.6550 H      1 <0>       0.4500
   16 C16       7.5493     0.7714    -0.1733 C.ar   1 <0>      -0.0500
   17 C17       6.5610     1.7355    -0.1538 C.ar   1 <0>      -0.1100
   18 C18       5.2376     1.3727    -0.0195 C.ar   1 <0>      -0.0200
   19 C19       4.8803     0.0206     0.0918 C.ar   1 <0>      -0.0300
   20 H20       0.8222     1.7836     0.3173 H      1 <0>       0.3500
   21 H21      -1.9983    -0.2431     0.7013 H      1 <0>       0.4300
   22 H22      -1.1325    -1.6827     0.7274 H      1 <0>       0.4000
   23 H23       1.2417    -1.6496     0.5211 H      1 <0>       0.3800
   24 H24       3.3665    -2.4684     1.2860 H      1 <0>       0.1000
   25 H25       3.2184    -2.5842    -0.4934 H      1 <0>       0.1000
   26 H26       5.6216    -2.8103     1.1193 H      1 <0>       0.1000
   27 H27       5.4736    -2.9260    -0.6577 H      1 <0>       0.0900
   28 H28       9.3096    -0.8340     1.4462 H      1 <0>       0.4500
   29 H29       9.9681    -2.2298     0.7821 H      1 <0>       0.4300
   30 H30       8.5843     1.0612    -0.2784 H      1 <0>       0.1500
   31 H31       6.8259     2.7786    -0.2438 H      1 <0>       0.1500
   32 H32       4.4712     2.1335    -0.0052 H      1 <0>       0.1500
@<TRIPOS>BOND
   1    1    2 2
   2    1   20 1
   3    2    3 1
   4    2    4 1
   5    3   21 1
   6    3   22 1
   7    4    5 1
   8    4   23 1
   9    5    6 2
  10    6   19 1
  11    6    7 1
  12    7    8 1
  13    7   24 1
  14    7   25 1
  15    8    9 1
  16    8   26 1
  17    8   27 1
  18    9   19 ar
  19    9   10 ar
  20   10   11 1
  21   10   16 ar
  22   11   12 ar
  23   11   13 ar
  24   12   28 1
  25   12   29 1
  26   13   14 1
  27   13   15 1
  28   16   17 ar
  29   16   30 1
  30   17   18 ar
  31   17   31 1
  32   18   19 ar
  33   18   32 1
