@<TRIPOS>MOLECULE
ZINC000043128334
87    88    1     0     0
SMALL
USER_CHARGES
@<TRIPOS>ATOM
1      C1     -1.5945   -4.4627    0.3178 C.2      1 ZINC000043128334   -0.1800
2      C2     -0.5317   -3.7654    0.6343 C.2      1 ZINC000043128334   -0.1500
3      C3      0.6507   -4.4436    1.2770 C.3      1 ZINC000043128334    0.0900
4      N4      1.8591   -4.1742    0.4863 N.3      1 ZINC000043128334   -0.6300
5      C5      2.9818   -4.7921    1.0573 C.ar     1 ZINC000043128334    0.0600
6      C6      3.2417   -6.1337    0.7654 C.ar     1 ZINC000043128334    0.0900
7      O7      2.4035   -6.8210   -0.0585 O.3      1 ZINC000043128334   -0.4900
8      C8      4.3466   -6.7651    1.3095 C.ar     1 ZINC000043128334   -0.1700
9      C9      5.1980   -6.0688    2.1533 C.ar     1 ZINC000043128334    0.1700
10     N10     6.3402   -6.7046    2.6778 N.am     1 ZINC000043128334   -0.7000
11     C11     6.9192   -6.1904    3.7665 C.2      1 ZINC000043128334    0.5900
12     O12     6.2362   -5.9108    4.7316 O.2      1 ZINC000043128334   -0.5200
13     C13     8.3475   -5.9036    3.8730 C.2      1 ZINC000043128334   -0.2000
14     C14     9.3082   -6.3386    2.8043 C.3      1 ZINC000043128334   -0.1000
15     C15     8.7655   -5.2115    4.9544 C.2      1 ZINC000043128334    0.0000
16     C16    10.1434   -4.8239    5.1658 C.2      1 ZINC000043128334   -0.1200
17     C17    10.5221   -3.6288    5.6002 C.2      1 ZINC000043128334   -0.1400
18     C18     9.5849   -2.4997    5.9135 C.3      1 ZINC000043128334    0.1300
19     H19     9.6149   -2.3046    6.9888 H        1 ZINC000043128334    0.0900
20     O20     8.2459   -2.8127    5.5391 O.3      1 ZINC000043128334   -0.3500
21     C21     7.3158   -2.7771    6.6234 C.3      1 ZINC000043128334    0.0300
22     C22    10.0251   -1.2321    5.1763 C.3      1 ZINC000043128334    0.1500
23     H23    10.9785   -0.8962    5.5844 H        1 ZINC000043128334    0.1000
24     O24    10.1796   -1.5215    3.7622 O.3      1 ZINC000043128334   -0.3400
25     C25    11.0968   -0.8027    3.0878 C.2      1 ZINC000043128334    0.6500
26     N26    11.2901   -1.0216    1.7721 N.am     1 ZINC000043128334   -0.8300
27     O27    11.7502    0.0434    3.6654 O.2      1 ZINC000043128334   -0.5800
28     C28     8.9930   -0.1427    5.3611 C.2      1 ZINC000043128334   -0.1700
29     C29     9.2787    0.9597    6.3504 C.3      1 ZINC000043128334   -0.1100
30     C30     7.8899   -0.1685    4.6621 C.2      1 ZINC000043128334   -0.0900
31     C31     6.8122    0.8741    4.7790 C.3      1 ZINC000043128334   -0.0900
32     H32     7.2679    1.8542    4.9645 H        1 ZINC000043128334    0.0700
33     C33     5.8867    0.5418    5.9462 C.3      1 ZINC000043128334   -0.1400
34     C34     6.0318    0.9677    3.4656 C.3      1 ZINC000043128334    0.1200
35     H35     5.6424    1.9881    3.3645 H        1 ZINC000043128334    0.0600
36     O36     6.9320    0.7255    2.3790 O.3      1 ZINC000043128334   -0.5500
37     C37     4.8717   -0.0171    3.4084 C.3      1 ZINC000043128334    0.1000
38     H38     5.1387   -0.9510    3.8948 H        1 ZINC000043128334    0.0700
39     O39     3.7292    0.5556    4.0632 O.3      1 ZINC000043128334   -0.3800
40     C40     2.8632   -0.4067    4.6684 C.3      1 ZINC000043128334    0.0300
41     C41     4.4677   -0.3086    1.9599 C.3      1 ZINC000043128334   -0.1300
42     C42     4.6824   -1.7874    1.6399 C.3      1 ZINC000043128334   -0.0800
43     H43     5.6588   -2.0942    2.0147 H        1 ZINC000043128334    0.0900
44     C44     4.6548   -1.9715    0.1186 C.3      1 ZINC000043128334   -0.1400
45     C45     3.5903   -2.6537    2.2759 C.3      1 ZINC000043128334   -0.0600
46     C46     3.8268   -4.0979    1.9041 C.ar     1 ZINC000043128334   -0.0400
47     C47     4.9424   -4.7348    2.4463 C.ar     1 ZINC000043128334    0.0700
48     O48     5.7724   -4.0089    3.2427 O.3      1 ZINC000043128334   -0.4700
49     H49    -1.6233   -5.5237    0.5175 H        1 ZINC000043128334    0.1000
50     H50    -2.4436   -3.9759   -0.1386 H        1 ZINC000043128334    0.1000
51     H51    -0.5028   -2.7044    0.4347 H        1 ZINC000043128334    0.1100
52     H52     0.7849   -4.0591    2.2880 H        1 ZINC000043128334    0.0800
53     H53     0.4752   -5.5186    1.3174 H        1 ZINC000043128334    0.0500
54     H54     1.7358   -4.4633   -0.4725 H        1 ZINC000043128334    0.3500
55     H55     2.6453   -6.7741   -0.9936 H        1 ZINC000043128334    0.3900
56     H56     4.5523   -7.7993    1.0785 H        1 ZINC000043128334    0.1300
57     H57     6.6968   -7.5201    2.2508 H        1 ZINC000043128334    0.4200
58     H58     9.3983   -5.5524    2.0548 H        1 ZINC000043128334    0.0700
59     H59    10.2847   -6.5298    3.2495 H        1 ZINC000043128334    0.0700
60     H60     8.9392   -7.2495    2.3329 H        1 ZINC000043128334    0.0600
61     H61     8.0156   -4.9789    5.7119 H        1 ZINC000043128334    0.1400
62     H62    10.9276   -5.5631    4.9735 H        1 ZINC000043128334    0.1200
63     H63    11.5936   -3.4594    5.7311 H        1 ZINC000043128334    0.1200
64     H64     7.3132   -1.7816    7.0672 H        1 ZINC000043128334    0.0500
65     H65     6.3178   -3.0127    6.2538 H        1 ZINC000043128334    0.0900
66     H66     7.6069   -3.5097    7.3761 H        1 ZINC000043128334    0.0400
67     H67    10.7685   -1.6970    1.3110 H        1 ZINC000043128334    0.4100
68     H68    11.9509   -0.5037    1.2862 H        1 ZINC000043128334    0.4200
69     H69     9.7957    1.7758    5.8457 H        1 ZINC000043128334    0.0700
70     H70     8.3404    1.3263    6.7669 H        1 ZINC000043128334    0.0700
71     H71     9.9063    0.5735    7.1535 H        1 ZINC000043128334    0.0600
72     H72     7.7416   -0.9911    3.9621 H        1 ZINC000043128334    0.1300
73     H73     6.4629    0.5172    6.8711 H        1 ZINC000043128334    0.0500
74     H74     5.1100    1.3028    6.0221 H        1 ZINC000043128334    0.0700
75     H75     5.4262   -0.4319    5.7789 H        1 ZINC000043128334    0.0600
76     H76     7.6656    1.3534    2.3285 H        1 ZINC000043128334    0.3800
77     H77     2.4883   -1.0888    3.9053 H        1 ZINC000043128334    0.0500
78     H78     3.4156   -0.9706    5.4200 H        1 ZINC000043128334    0.0400
79     H79     2.0253    0.1053    5.1415 H        1 ZINC000043128334    0.0800
80     H80     3.4080   -0.0664    1.8344 H        1 ZINC000043128334    0.0600
81     H81     5.0486    0.3033    1.2756 H        1 ZINC000043128334    0.0800
82     H82     5.4480   -1.3763   -0.3338 H        1 ZINC000043128334    0.0500
83     H83     4.8070   -3.0234   -0.1229 H        1 ZINC000043128334    0.0500
84     H84     3.6897   -1.6456   -0.2693 H        1 ZINC000043128334    0.0500
85     H85     3.6358   -2.5544    3.3653 H        1 ZINC000043128334    0.0600
86     H86     2.6095   -2.3270    1.9358 H        1 ZINC000043128334    0.0800
87     H87     5.5365   -4.0306    4.1802 H        1 ZINC000043128334    0.3800
@<TRIPOS>BOND
1     1     2     2
2     1     49    1
3     1     50    1
4     2     3     1
5     2     51    1
6     3     4     1
7     3     52    1
8     3     53    1
9     4     5     1
10    4     54    1
11    5     46    ar
12    5     6     ar
13    6     7     1
14    6     8     ar
15    7     55    1
16    8     9     ar
17    8     56    1
18    9     47    ar
19    9     10    1
20    10    11    am
21    10    57    1
22    11    12    2
23    11    13    1
24    13    14    1
25    13    15    2
26    14    58    1
27    14    59    1
28    14    60    1
29    15    16    1
30    15    61    1
31    16    17    2
32    16    62    1
33    17    18    1
34    17    63    1
35    18    19    1
36    18    20    1
37    18    22    1
38    20    21    1
39    21    64    1
40    21    65    1
41    21    66    1
42    22    23    1
43    22    24    1
44    22    28    1
45    24    25    1
46    25    26    am
47    25    27    2
48    26    67    1
49    26    68    1
50    28    29    1
51    28    30    2
52    29    69    1
53    29    70    1
54    29    71    1
55    30    31    1
56    30    72    1
57    31    32    1
58    31    33    1
59    31    34    1
60    33    73    1
61    33    74    1
62    33    75    1
63    34    35    1
64    34    36    1
65    34    37    1
66    36    76    1
67    37    38    1
68    37    39    1
69    37    41    1
70    39    40    1
71    40    77    1
72    40    78    1
73    40    79    1
74    41    42    1
75    41    80    1
76    41    81    1
77    42    43    1
78    42    44    1
79    42    45    1
80    44    82    1
81    44    83    1
82    44    84    1
83    45    46    1
84    45    85    1
85    45    86    1
86    46    47    ar
87    47    48    1
88    48    87    1
@<TRIPOS>SUBSTRUCTURE
1   ZINC000043128334 1     RESIDUE    1   A     ZIN   1
