@<TRIPOS>MOLECULE
ZINC000004215466
77    82    1     0     0
SMALL
USER_CHARGES
@<TRIPOS>ATOM
1      C1     -0.7837    1.3979   -0.5264 C.3      1 ZINC000004215466   -0.1500
2      C2     -0.9232   -0.0649   -0.8609 C.2      1 ZINC000004215466    0.4600
3      O3     -0.4411   -0.5002   -1.8798 O.2      1 ZINC000004215466   -0.5100
4      O4     -1.5829   -0.8842   -0.0271 O.3      1 ZINC000004215466   -0.3400
5      C5     -1.6780   -2.2806   -0.4132 C.3      1 ZINC000004215466    0.0200
6      C6     -2.4472   -3.0407    0.6364 C.2      1 ZINC000004215466    0.3400
7      O7     -2.8715   -2.4650    1.6094 O.2      1 ZINC000004215466   -0.4100
8      C8     -2.6870   -4.5194    0.4716 C.3      1 ZINC000004215466    0.1100
9      O9     -1.5847   -5.1268   -0.2052 O.3      1 ZINC000004215466   -0.5300
10     C10    -2.9042   -5.1854    1.8535 C.3      1 ZINC000004215466   -0.1200
11     H11    -2.8920   -4.4298    2.6390 H        1 ZINC000004215466    0.0900
12     C12    -1.8142   -6.2277    2.1113 C.3      1 ZINC000004215466   -0.1400
13     C13    -4.2964   -5.8714    1.7951 C.3      1 ZINC000004215466   -0.1100
14     C14    -4.5045   -6.0993    0.2940 C.3      1 ZINC000004215466   -0.0700
15     H15    -3.8984   -6.9366   -0.0521 H        1 ZINC000004215466    0.0800
16     C16    -5.9392   -6.2612   -0.1623 C.3      1 ZINC000004215466   -0.0600
17     H17    -6.4970   -5.3619    0.0991 H        1 ZINC000004215466    0.1100
18     C18    -6.6075   -7.4449    0.4597 C.2      1 ZINC000004215466   -0.1200
19     C19    -7.4883   -8.1998   -0.1870 C.2      1 ZINC000004215466   -0.1100
20     C20    -8.1340   -9.3654    0.5170 C.3      1 ZINC000004215466   -0.1200
21     C21    -7.8396   -7.9055   -1.5893 C.2      1 ZINC000004215466   -0.0100
22     C22    -8.5972   -8.8065   -2.2527 C.2      1 ZINC000004215466   -0.1200
23     C23    -8.8833   -8.5525   -3.6652 C.2      1 ZINC000004215466    0.1200
24     C24    -8.3441   -7.4578   -4.3298 C.2      1 ZINC000004215466   -0.2200
25     C25    -8.7858   -7.5150   -5.6434 C.2      1 ZINC000004215466    0.0600
26     N26    -9.5539   -8.5704   -5.7859 N.2      1 ZINC000004215466   -0.2900
27     N27    -9.6380   -9.2421   -4.5554 N.pl3    1 ZINC000004215466   -0.3100
28     C28   -10.3670  -10.4090   -4.2959 C.ar     1 ZINC000004215466    0.1600
29     C29    -9.8795  -11.3487   -3.3970 C.ar     1 ZINC000004215466   -0.1300
30     C30   -10.6012  -12.4985   -3.1428 C.ar     1 ZINC000004215466   -0.1000
31     C31   -11.8079  -12.7147   -3.7827 C.ar     1 ZINC000004215466   -0.1200
32     C32   -12.2959  -11.7812   -4.6787 C.ar     1 ZINC000004215466   -0.1000
33     C33   -11.5820  -10.6265   -4.9326 C.ar     1 ZINC000004215466   -0.1100
34     C34    -7.4685   -6.4384   -3.6685 C.3      1 ZINC000004215466   -0.0200
35     C35    -7.3404   -6.6290   -2.1830 C.3      1 ZINC000004215466   -0.0100
36     C36    -8.1700   -5.5153   -1.5409 C.3      1 ZINC000004215466   -0.1600
37     C37    -5.9143   -6.4048   -1.6907 C.3      1 ZINC000004215466   -0.0600
38     H38    -5.3120   -7.2728   -1.9591 H        1 ZINC000004215466    0.0800
39     C39    -5.2937   -5.1662   -2.3222 C.3      1 ZINC000004215466    0.1100
40     H40    -5.2353   -5.3048   -3.4018 H        1 ZINC000004215466    0.0700
41     O41    -6.1142   -4.0315   -2.0373 O.3      1 ZINC000004215466   -0.5500
42     C42    -3.8788   -4.9207   -1.7651 C.3      1 ZINC000004215466   -0.1300
43     C43    -3.9792   -4.7624   -0.2995 C.3      1 ZINC000004215466   -0.0400
44     C44    -4.9691   -3.6431    0.0296 C.3      1 ZINC000004215466   -0.1700
45     H45    -0.2217    1.8989   -1.3146 H        1 ZINC000004215466    0.1000
46     H46    -1.7731    1.8476   -0.4435 H        1 ZINC000004215466    0.1000
47     H47    -0.2553    1.5051    0.4209 H        1 ZINC000004215466    0.1000
48     H48    -2.1945   -2.3587   -1.3699 H        1 ZINC000004215466    0.1100
49     H49    -0.6766   -2.7011   -0.5055 H        1 ZINC000004215466    0.1100
50     H50    -0.7379   -5.0222    0.2498 H        1 ZINC000004215466    0.3800
51     H51    -0.8377   -5.7435    2.0968 H        1 ZINC000004215466    0.0500
52     H52    -1.9762   -6.6897    3.0851 H        1 ZINC000004215466    0.0600
53     H53    -1.8521   -6.9924    1.3355 H        1 ZINC000004215466    0.0700
54     H54    -4.2814   -6.8206    2.3308 H        1 ZINC000004215466    0.0700
55     H55    -5.0676   -5.2135    2.1958 H        1 ZINC000004215466    0.0700
56     H56    -6.3627   -7.6979    1.4807 H        1 ZINC000004215466    0.1100
57     H57    -7.7564   -9.4279    1.5375 H        1 ZINC000004215466    0.0700
58     H58    -9.2146   -9.2241    0.5374 H        1 ZINC000004215466    0.0700
59     H59    -7.8981  -10.2871   -0.0149 H        1 ZINC000004215466    0.0700
60     H60    -8.9791   -9.6863   -1.7563 H        1 ZINC000004215466    0.1300
61     H61    -8.5391   -6.8074   -6.4211 H        1 ZINC000004215466    0.1900
62     H62    -8.9368  -11.1807   -2.8974 H        1 ZINC000004215466    0.1300
63     H63   -10.2227  -13.2296   -2.4439 H        1 ZINC000004215466    0.1300
64     H64   -12.3703  -13.6148   -3.5826 H        1 ZINC000004215466    0.1300
65     H65   -13.2383  -11.9534   -5.1774 H        1 ZINC000004215466    0.1300
66     H66   -11.9638   -9.8977   -5.6321 H        1 ZINC000004215466    0.1300
67     H67    -6.4749   -6.4904   -4.1138 H        1 ZINC000004215466    0.0700
68     H68    -7.8814   -5.4477   -3.8588 H        1 ZINC000004215466    0.0800
69     H69    -9.2279   -5.6927   -1.7344 H        1 ZINC000004215466    0.0400
70     H70    -7.9941   -5.5054   -0.4652 H        1 ZINC000004215466    0.0600
71     H71    -7.8790   -4.5545   -1.9655 H        1 ZINC000004215466    0.1000
72     H72    -5.7818   -3.2027   -2.4084 H        1 ZINC000004215466    0.3700
73     H73    -3.2312   -5.7603   -2.0176 H        1 ZINC000004215466    0.0900
74     H74    -3.4716   -4.0000   -2.1829 H        1 ZINC000004215466    0.0600
75     H75    -5.9804   -3.9696   -0.2130 H        1 ZINC000004215466    0.1200
76     H76    -4.9089   -3.4055    1.0917 H        1 ZINC000004215466    0.0600
77     H77    -4.7233   -2.7570   -0.5555 H        1 ZINC000004215466    0.0500
@<TRIPOS>BOND
1     1     2     1
2     1     45    1
3     1     46    1
4     1     47    1
5     2     3     2
6     2     4     1
7     4     5     1
8     5     6     1
9     5     48    1
10    5     49    1
11    6     7     2
12    6     8     1
13    8     43    1
14    8     9     1
15    8     10    1
16    9     50    1
17    10    11    1
18    10    12    1
19    10    13    1
20    12    51    1
21    12    52    1
22    12    53    1
23    13    14    1
24    13    54    1
25    13    55    1
26    14    15    1
27    14    43    1
28    14    16    1
29    16    17    1
30    16    37    1
31    16    18    1
32    18    19    2
33    18    56    1
34    19    20    1
35    19    21    1
36    20    57    1
37    20    58    1
38    20    59    1
39    21    35    1
40    21    22    2
41    22    23    1
42    22    60    1
43    23    27    1
44    23    24    2
45    24    25    1
46    24    34    1
47    25    26    2
48    25    61    1
49    26    27    1
50    27    28    1
51    28    33    ar
52    28    29    ar
53    29    30    ar
54    29    62    1
55    30    31    ar
56    30    63    1
57    31    32    ar
58    31    64    1
59    32    33    ar
60    32    65    1
61    33    66    1
62    34    35    1
63    34    67    1
64    34    68    1
65    35    36    1
66    35    37    1
67    36    69    1
68    36    70    1
69    36    71    1
70    37    38    1
71    37    39    1
72    39    40    1
73    39    41    1
74    39    42    1
75    41    72    1
76    42    43    1
77    42    73    1
78    42    74    1
79    43    44    1
80    44    75    1
81    44    76    1
82    44    77    1
@<TRIPOS>SUBSTRUCTURE
1   ZINC000004215466 1     RESIDUE    1   A     ZIN   1
