@<TRIPOS>MOLECULE
ZINC000013684256
  46   49    0    0    0
SMALL
USER_CHARGES
NO_NAME
@<TRIPOS>ATOM
    1 C1        1.8404     0.5135     2.2129 C.3    1 <0>      -0.1000
    2 C2        1.2472    -0.6995     1.5438 C.2    1 <0>       0.0900
    3 C3        1.9539    -1.7085     1.0111 C.2    1 <0>      -0.1900
    4 C4        0.9889    -2.6697     0.4710 C.ar   1 <0>      -0.1400
    5 C5        1.1073    -3.8949    -0.1906 C.ar   1 <0>       0.1600
    6 F6        2.3279    -4.4140    -0.4470 F      1 <0>      -0.1200
    7 C7       -0.0333    -4.5729    -0.5807 C.ar   1 <0>       0.0200
    8 O8        0.0746    -5.7660    -1.2251 O.3    1 <0>      -0.2100
    9 C9        0.1974    -6.8851    -0.4738 C.2    1 <0>       0.4700
   10 N10       0.1959    -6.8079     0.8450 N.2    1 <0>      -0.6000
   11 C11       0.3152    -7.8927     1.6087 C.2    1 <0>       0.3200
   12 N12       0.4403    -9.0895     1.1041 N.2    1 <0>      -0.3300
   13 N13       0.4521    -9.2658    -0.2867 N.pl3  1 <0>      -0.2300
   14 C14       0.5644   -10.3557    -1.0813 C.2    1 <0>      -0.0100
   15 C15       0.5155    -9.9603    -2.3847 C.2    1 <0>       0.0600
   16 O16       0.5962   -10.7746    -3.4728 O.3    1 <0>      -0.2800
   17 C17       0.7466   -12.1741    -3.2259 C.3    1 <0>       0.0600
   18 C18       0.8189   -12.9222    -4.5586 C.3    1 <0>       0.1100
   19 H19       0.8442   -13.9957    -4.3718 H      1 <0>       0.0800
   20 C20      -0.4105   -12.5802    -5.4028 C.3    1 <0>      -0.1900
   21 O21       2.0015   -12.5327    -5.2599 O.3    1 <0>      -0.5600
   22 C22       0.3670    -8.5703    -2.4064 C.2    1 <0>      -0.0800
   23 C23       0.2677    -7.6982    -3.6313 C.3    1 <0>      -0.0800
   24 C24       0.3228    -8.1486    -1.0904 C.2    1 <0>      -0.0700
   25 C25      -1.2912    -4.0392    -0.3159 C.ar   1 <0>      -0.0600
   26 C26      -1.4186    -2.8321     0.3352 C.ar   1 <0>      -0.1200
   27 C27      -0.2842    -2.1341     0.7359 C.ar   1 <0>       0.1300
   28 N28      -0.0923    -0.9382     1.3946 N.pl3  1 <0>      -0.5900
   29 H29       1.9701     0.3147     3.2767 H      1 <0>       0.0800
   30 H30       2.8082     0.7388     1.7648 H      1 <0>       0.0900
   31 H31       1.1721     1.3644     2.0812 H      1 <0>       0.0700
   32 H32       3.0301    -1.7951     0.9849 H      1 <0>       0.1500
   33 H33       0.3084    -7.7777     2.6826 H      1 <0>       0.2200
   34 H34       0.6748   -11.3738    -0.7382 H      1 <0>       0.1800
   35 H35       1.6632   -12.3471    -2.6620 H      1 <0>       0.0700
   36 H36      -0.1067   -12.5356    -2.6522 H      1 <0>       0.0800
   37 H37      -0.4358   -11.5066    -5.5896 H      1 <0>       0.0800
   38 H38      -0.3590   -13.1131    -6.3522 H      1 <0>       0.0600
   39 H39      -1.3125   -12.8773    -4.8679 H      1 <0>       0.0700
   40 H40       2.1128   -12.9688    -6.1158 H      1 <0>       0.3800
   41 H41      -0.7780    -7.5973    -3.9217 H      1 <0>       0.0700
   42 H42       0.6801    -6.7136    -3.4107 H      1 <0>       0.0700
   43 H43       0.8293    -8.1527    -4.4475 H      1 <0>       0.0800
   44 H44      -2.1758    -4.5766    -0.6243 H      1 <0>       0.1400
   45 H45      -2.3999    -2.4275     0.5349 H      1 <0>       0.1400
   46 H46      -0.8008    -0.3530     1.7052 H      1 <0>       0.4200
@<TRIPOS>BOND
   1    1    2 1
   2    1   29 1
   3    1   30 1
   4    1   31 1
   5    2   28 1
   6    2    3 2
   7    3    4 1
   8    3   32 1
   9    4   27 ar
  10    4    5 ar
  11    5    6 1
  12    5    7 ar
  13    7    8 1
  14    7   25 ar
  15    8    9 1
  16    9   24 1
  17    9   10 2
  18   10   11 1
  19   11   12 2
  20   11   33 1
  21   12   13 1
  22   13   24 1
  23   13   14 1
  24   14   15 2
  25   14   34 1
  26   15   16 1
  27   15   22 1
  28   16   17 1
  29   17   18 1
  30   17   35 1
  31   17   36 1
  32   18   19 1
  33   18   20 1
  34   18   21 1
  35   20   37 1
  36   20   38 1
  37   20   39 1
  38   21   40 1
  39   22   23 1
  40   22   24 2
  41   23   41 1
  42   23   42 1
  43   23   43 1
  44   25   26 ar
  45   25   44 1
  46   26   27 ar
  47   26   45 1
  48   27   28 1
  49   28   46 1
