@<TRIPOS>MOLECULE
ZINC000000598322
  46   49    0    0    0
SMALL
USER_CHARGES
NO_NAME
@<TRIPOS>ATOM
    1 O1        0.9301     1.6400     0.6369 O.co2  1 <0>      -0.6900
    2 C2       -0.0133     1.2219    -0.0203 C.2    1 <0>       0.5200
    3 O3        0.1097     0.2045    -0.6885 O.co2  1 <0>      -0.6900
    4 C4       -1.2985     1.9397    -0.0022 C.ar   1 <0>      -0.1400
    5 C5       -2.3805     1.4600    -0.7486 C.ar   1 <0>      -0.0700
    6 C6       -3.5758     2.1315    -0.7292 C.ar   1 <0>      -0.1300
    7 C7       -3.7136     3.2891     0.0314 C.ar   1 <0>       0.1300
    8 N8       -4.9298     3.9687     0.0481 N.am   1 <0>      -0.6400
    9 C9       -6.0863     3.2830    -0.0459 C.2    1 <0>       0.6500
   10 O10      -6.0738     2.0681    -0.0477 O.2    1 <0>      -0.5500
   11 O11      -7.2555     3.9443    -0.1377 O.3    1 <0>      -0.3700
   12 C12      -8.4611     3.1412    -0.2358 C.3    1 <0>       0.0800
   13 C13      -9.6802     4.0609    -0.3310 C.3    1 <0>      -0.1000
   14 C14     -10.9506     3.2146    -0.4344 C.3    1 <0>       0.0000
   15 C15     -11.1990     2.4894     0.8654 C.ar   1 <0>      -0.0900
   16 C16     -10.4579     1.5595     1.5628 C.ar   1 <0>      -0.1000
   17 C17     -10.9356     1.0467     2.7562 C.ar   1 <0>      -0.1100
   18 C18     -12.1567     1.4661     3.2518 C.ar   1 <0>      -0.1200
   19 C19     -12.9049     2.3968     2.5608 C.ar   1 <0>      -0.1000
   20 C20     -12.4295     2.9180     1.3563 C.ar   1 <0>      -0.0600
   21 C21     -13.0146     3.9124     0.4231 C.ar   1 <0>      -0.0500
   22 C22     -14.2144     4.6238     0.4716 C.ar   1 <0>      -0.1000
   23 C23     -14.5331     5.5071    -0.5392 C.ar   1 <0>      -0.1200
   24 C24     -13.6679     5.6910    -1.6024 C.ar   1 <0>      -0.1100
   25 C25     -12.4765     4.9889    -1.6570 C.ar   1 <0>      -0.1000
   26 C26     -12.1506     4.1034    -0.6521 C.ar   1 <0>      -0.0800
   27 C27      -2.6399     3.7692     0.7756 C.ar   1 <0>      -0.1500
   28 C28      -1.4430     3.1003     0.7660 C.ar   1 <0>      -0.0700
   29 H29      -2.2741     0.5623    -1.3395 H      1 <0>       0.1300
   30 H30      -4.4114     1.7619    -1.3050 H      1 <0>       0.1300
   31 H31      -4.9441     4.9354     0.1273 H      1 <0>       0.4100
   32 H32      -8.4086     2.5142    -1.1259 H      1 <0>       0.0700
   33 H33      -8.5503     2.5101     0.6484 H      1 <0>       0.0800
   34 H34      -9.7327     4.6879     0.5590 H      1 <0>       0.0800
   35 H35      -9.5910     4.6920    -1.2153 H      1 <0>       0.0800
   36 H36     -10.8595     2.5001    -1.2525 H      1 <0>       0.1100
   37 H37      -9.5041     1.2306     1.1774 H      1 <0>       0.1300
   38 H38     -10.3542     0.3177     3.3010 H      1 <0>       0.1300
   39 H39     -12.5262     1.0633     4.1833 H      1 <0>       0.1300
   40 H40     -13.8579     2.7217     2.9514 H      1 <0>       0.1200
   41 H41     -14.8932     4.4827     1.2997 H      1 <0>       0.1200
   42 H42     -15.4619     6.0568    -0.5002 H      1 <0>       0.1300
   43 H43     -13.9226     6.3831    -2.3914 H      1 <0>       0.1300
   44 H44     -11.8023     5.1340    -2.4882 H      1 <0>       0.1300
   45 H45      -2.7507     4.6678     1.3644 H      1 <0>       0.1200
   46 H46      -0.6104     3.4733     1.3440 H      1 <0>       0.1300
@<TRIPOS>BOND
   1    1    2 ar
   2    2    3 ar
   3    2    4 1
   4    4   28 ar
   5    4    5 ar
   6    5    6 ar
   7    5   29 1
   8    6    7 ar
   9    6   30 1
  10    7    8 1
  11    7   27 ar
  12    8    9 am
  13    8   31 1
  14    9   10 2
  15    9   11 1
  16   11   12 1
  17   12   13 1
  18   12   32 1
  19   12   33 1
  20   13   14 1
  21   13   34 1
  22   13   35 1
  23   14   26 1
  24   14   15 1
  25   14   36 1
  26   15   20 ar
  27   15   16 ar
  28   16   17 ar
  29   16   37 1
  30   17   18 ar
  31   17   38 1
  32   18   19 ar
  33   18   39 1
  34   19   20 ar
  35   19   40 1
  36   20   21 1
  37   21   26 ar
  38   21   22 ar
  39   22   23 ar
  40   22   41 1
  41   23   24 ar
  42   23   42 1
  43   24   25 ar
  44   24   43 1
  45   25   26 ar
  46   25   44 1
  47   27   28 ar
  48   27   45 1
  49   28   46 1
