@<TRIPOS>MOLECULE
ZINC000000008704
36    38    1     0     0
SMALL
USER_CHARGES
@<TRIPOS>ATOM
1      C1     -0.7160    1.4333   -0.4282 C.3      1 ZINC000000008704   -0.1200
2      C2     -0.5109   -0.0558   -0.3204 C.ar     1 ZINC000000008704   -0.0500
3      C3     -0.4310   -0.8359   -1.4733 C.ar     1 ZINC000000008704   -0.0500
4      C4     -0.5045   -0.5398   -2.9157 C.2      1 ZINC000000008704   -0.1300
5      C5     -0.6937    0.7456   -3.5178 C.1      1 ZINC000000008704    0.2900
6      N6     -0.8437    1.7653   -3.9955 N.1      1 ZINC000000008704   -0.4300
7      C7     -0.3570   -1.7303   -3.5635 C.2      1 ZINC000000008704    0.1400
8      N8     -0.2001   -2.7279   -2.6579 N.pl3    1 ZINC000000008704   -0.5700
9      C9     -0.2396   -2.2216   -1.3740 C.ar     1 ZINC000000008704    0.0800
10     C10    -0.1305   -2.8086   -0.1111 C.ar     1 ZINC000000008704    0.1400
11     N11     0.0609   -4.1885    0.0065 N.am     1 ZINC000000008704   -1.0500
12     S12    -0.6381   -5.0177    1.2580 S.o2     1 ZINC000000008704    2.6900
13     O13    -0.3804   -6.3948    1.0205 O.2      1 ZINC000000008704   -0.9400
14     O14    -0.2492   -4.3484    2.4497 O.2      1 ZINC000000008704   -0.9400
15     C15    -2.3815   -4.8059    1.1148 C.ar     1 ZINC000000008704   -0.6800
16     C16    -3.0006   -3.7381    1.7395 C.ar     1 ZINC000000008704    0.0100
17     C17    -4.3692   -3.5642    1.6322 C.ar     1 ZINC000000008704   -0.1300
18     C18    -5.1256   -4.4555    0.9003 C.ar     1 ZINC000000008704   -0.0100
19     C19    -4.5071   -5.5354    0.2666 C.ar     1 ZINC000000008704   -0.0400
20     C20    -5.2861   -6.4648   -0.4950 C.1      1 ZINC000000008704    0.2400
21     N21    -5.9041   -7.2021   -1.0992 N.1      1 ZINC000000008704   -0.4000
22     C22    -3.1252   -5.7021    0.3751 C.ar     1 ZINC000000008704    0.0300
23     C23    -0.2121   -2.0198    1.0236 C.ar     1 ZINC000000008704   -0.1500
24     C24    -0.3961   -0.6495    0.9175 C.ar     1 ZINC000000008704   -0.1000
25     H25     0.2525    1.9304   -0.4823 H        1 ZINC000000008704    0.0700
26     H26    -1.2899    1.6568   -1.3275 H        1 ZINC000000008704    0.0600
27     H27    -1.2589    1.7896    0.4472 H        1 ZINC000000008704    0.0700
28     H28    -0.3645   -1.8596   -4.6357 H        1 ZINC000000008704    0.1900
29     H29    -0.0780   -3.6641   -2.8806 H        1 ZINC000000008704    0.4300
30     H30     0.6031   -4.6602   -0.6449 H        1 ZINC000000008704    0.4300
31     H31    -2.4131   -3.0371    2.3139 H        1 ZINC000000008704    0.1500
32     H32    -4.8463   -2.7288    2.1231 H        1 ZINC000000008704    0.1500
33     H33    -6.1937   -4.3188    0.8177 H        1 ZINC000000008704    0.1400
34     H34    -2.6406   -6.5351   -0.1124 H        1 ZINC000000008704    0.1500
35     H35    -0.1276   -2.4749    1.9993 H        1 ZINC000000008704    0.1700
36     H36    -0.4578   -0.0453    1.8106 H        1 ZINC000000008704    0.1400
@<TRIPOS>BOND
1     1     2     1
2     1     25    1
3     1     26    1
4     1     27    1
5     2     24    ar
6     2     3     ar
7     3     9     ar
8     3     4     1
9     4     5     1
10    4     7     2
11    5     6     3
12    7     8     1
13    7     28    1
14    8     9     1
15    8     29    1
16    9     10    ar
17    10    11    1
18    10    23    ar
19    11    12    am
20    11    30    1
21    12    13    2
22    12    14    2
23    12    15    1
24    15    22    ar
25    15    16    ar
26    16    17    ar
27    16    31    1
28    17    18    ar
29    17    32    1
30    18    19    ar
31    18    33    1
32    19    20    1
33    19    22    ar
34    20    21    3
35    22    34    1
36    23    24    ar
37    23    35    1
38    24    36    1
@<TRIPOS>SUBSTRUCTURE
1   ZINC000000008704 1     RESIDUE    1   A     ZIN   1
