@<TRIPOS>MOLECULE
ZINC000034074273
66    70    1     0     0
SMALL
USER_CHARGES
@<TRIPOS>ATOM
1      C1      3.1736    1.9802    1.0928 C.3      1 ZINC000034074273   -0.1600
2      C2      3.2002    0.4541    0.9872 C.3      1 ZINC000034074273    0.0000
3      H3      2.2806    0.1048    0.5175 H        1 ZINC000034074273    0.0900
4      C4      4.3829    0.0268    0.1590 C.2      1 ZINC000034074273   -0.1500
5      C5      5.2021   -0.9991    0.4741 C.2      1 ZINC000034074273    0.0700
6      C6      5.0356   -1.8531    1.7068 C.3      1 ZINC000034074273   -0.0500
7      C7      3.6189   -1.6551    2.2658 C.3      1 ZINC000034074273   -0.0900
8      H8      2.8934   -2.1286    1.6043 H        1 ZINC000034074273    0.1000
9      C9      3.5588   -2.3086    3.6503 C.3      1 ZINC000034074273   -0.1400
10     C10     2.2077   -2.0183    4.3033 C.3      1 ZINC000034074273   -0.0100
11     N11     2.0466   -0.5655    4.4504 N.4      1 ZINC000034074273   -0.3800
12     H12     2.8272   -0.1908    4.9683 H        1 ZINC000034074273    0.4200
13     C13     0.7983   -0.2809    5.1706 C.3      1 ZINC000034074273   -0.0100
14     C14     0.8979   -0.8233    6.5978 C.3      1 ZINC000034074273   -0.1200
15     C15    -0.4023   -0.5269    7.3479 C.3      1 ZINC000034074273   -0.1300
16     C16    -0.6290    0.9623    7.3912 C.2      1 ZINC000034074273    0.5000
17     O17    -1.5478    1.4576    6.7612 O.co2    1 ZINC000034074273   -0.6800
18     O18     0.1065    1.6718    8.0562 O.co2    1 ZINC000034074273   -0.6900
19     C19    -1.5719   -1.2001    6.6269 C.3      1 ZINC000034074273   -0.0800
20     C20    -2.8720   -0.9037    7.3771 C.3      1 ZINC000034074273   -0.1300
21     C21    -2.7724   -1.4461    8.8042 C.3      1 ZINC000034074273   -0.1200
22     C22    -1.6028   -0.7729    9.5252 C.3      1 ZINC000034074273   -0.1200
23     C23    -0.3027   -1.0693    8.7751 C.3      1 ZINC000034074273   -0.0900
24     C24     1.9982    0.0531    3.1222 C.3      1 ZINC000034074273   -0.0100
25     C25     3.3244   -0.1565    2.3917 C.3      1 ZINC000034074273   -0.1000
26     H26     4.1267    0.3407    2.9370 H        1 ZINC000034074273    0.1000
27     N27     6.1753   -1.1262   -0.4825 N.pl3    1 ZINC000034074273   -0.5800
28     C28     6.0047   -0.1735   -1.4452 C.ar     1 ZINC000034074273    0.1300
29     C29     6.7148    0.1186   -2.6075 C.ar     1 ZINC000034074273   -0.1200
30     C30     6.2572    1.1779   -3.3724 C.ar     1 ZINC000034074273   -0.0600
31     C31     5.1468    1.9236   -3.0135 C.ar     1 ZINC000034074273   -0.2000
32     C32     4.7136    3.0613   -3.9017 C.3      1 ZINC000034074273    0.5100
33     F33     5.5785    3.1527   -4.9976 F        1 ZINC000034074273   -0.1800
34     F34     3.4103    2.8294   -4.3544 F        1 ZINC000034074273   -0.1800
35     F35     4.7499    4.2579   -3.1779 F        1 ZINC000034074273   -0.1800
36     C36     4.4275    1.6587   -1.8738 C.ar     1 ZINC000034074273   -0.0100
37     C37     4.8676    0.5938   -1.0825 C.ar     1 ZINC000034074273   -0.1000
38     H38     4.0936    2.3280    1.5625 H        1 ZINC000034074273    0.0600
39     H39     3.0891    2.4120    0.0955 H        1 ZINC000034074273    0.0700
40     H40     2.3191    2.2879    1.6955 H        1 ZINC000034074273    0.0600
41     H41     5.1818   -2.9014    1.4465 H        1 ZINC000034074273    0.0900
42     H42     5.7685   -1.5568    2.4573 H        1 ZINC000034074273    0.0900
43     H43     3.6876   -3.3862    3.5481 H        1 ZINC000034074273    0.1100
44     H44     4.3567   -1.9074    4.2751 H        1 ZINC000034074273    0.0900
45     H45     1.4078   -2.4120    3.6761 H        1 ZINC000034074273    0.1300
46     H46     2.1684   -2.4905    5.2849 H        1 ZINC000034074273    0.1300
47     H47     0.6343    0.7962    5.2019 H        1 ZINC000034074273    0.1400
48     H48    -0.0350   -0.7605    4.6570 H        1 ZINC000034074273    0.1300
49     H49     1.0618   -1.9005    6.5665 H        1 ZINC000034074273    0.0700
50     H50     1.7311   -0.3438    7.1114 H        1 ZINC000034074273    0.0800
51     H51    -1.6428   -0.8137    5.6102 H        1 ZINC000034074273    0.0500
52     H52    -1.4079   -2.2773    6.5956 H        1 ZINC000034074273    0.0400
53     H53    -3.0360    0.1734    7.4083 H        1 ZINC000034074273    0.1000
54     H54    -3.7052   -1.3833    6.8634 H        1 ZINC000034074273    0.0500
55     H55    -3.6987   -1.2350    9.3386 H        1 ZINC000034074273    0.0600
56     H56    -2.6085   -2.5233    8.7729 H        1 ZINC000034074273    0.0500
57     H57    -1.7668    0.3042    9.5565 H        1 ZINC000034074273    0.0700
58     H58    -1.5319   -1.1593   10.5419 H        1 ZINC000034074273    0.0500
59     H59    -0.1387   -2.1465    8.7438 H        1 ZINC000034074273    0.0500
60     H60     0.5306   -0.5898    9.2887 H        1 ZINC000034074273    0.0600
61     H61     1.1927   -0.3982    2.5429 H        1 ZINC000034074273    0.1300
62     H62     1.8089    1.1213    3.2282 H        1 ZINC000034074273    0.1300
63     H63     6.8799   -1.7929   -0.4763 H        1 ZINC000034074273    0.4200
64     H64     7.5827   -0.4547   -2.8983 H        1 ZINC000034074273    0.1400
65     H65     6.7845    1.4318   -4.2801 H        1 ZINC000034074273    0.1400
66     H66     3.5629    2.2459   -1.6017 H        1 ZINC000034074273    0.1400
@<TRIPOS>BOND
1     1     2     1
2     1     38    1
3     1     39    1
4     1     40    1
5     2     3     1
6     2     25    1
7     2     4     1
8     4     37    1
9     4     5     2
10    5     6     1
11    5     27    1
12    6     7     1
13    6     41    1
14    6     42    1
15    7     8     1
16    7     25    1
17    7     9     1
18    9     10    1
19    9     43    1
20    9     44    1
21    10    11    1
22    10    45    1
23    10    46    1
24    11    12    1
25    11    13    1
26    11    24    1
27    13    14    1
28    13    47    1
29    13    48    1
30    14    15    1
31    14    49    1
32    14    50    1
33    15    23    1
34    15    16    1
35    15    19    1
36    16    17    ar
37    16    18    ar
38    19    20    1
39    19    51    1
40    19    52    1
41    20    21    1
42    20    53    1
43    20    54    1
44    21    22    1
45    21    55    1
46    21    56    1
47    22    23    1
48    22    57    1
49    22    58    1
50    23    59    1
51    23    60    1
52    24    25    1
53    24    61    1
54    24    62    1
55    25    26    1
56    27    28    1
57    27    63    1
58    28    37    ar
59    28    29    ar
60    29    30    ar
61    29    64    1
62    30    31    ar
63    30    65    1
64    31    32    1
65    31    36    ar
66    32    33    1
67    32    34    1
68    32    35    1
69    36    37    ar
70    36    66    1
@<TRIPOS>SUBSTRUCTURE
1   ZINC000034074273 1     RESIDUE    1   A     ZIN   1
