@<TRIPOS>MOLECULE
ZINC000000020222
25    24    1     0     0
SMALL
USER_CHARGES
@<TRIPOS>ATOM
1      C1     -0.0187    1.5258    0.0104 C.3      1 ZINC000000020222   -0.1200
2      C2      0.0021   -0.0041    0.0020 C.3      1 ZINC000000020222   -0.0300
3      C3      0.7421   -0.5109    1.2415 C.3      1 ZINC000000020222   -0.1300
4      S4     -1.6997   -0.6320    0.0149 S.3      1 ZINC000000020222   -0.2200
5      C5      0.7074   -0.4901   -1.2379 C.2      1 ZINC000000020222    0.5200
6      O6      1.8335   -0.9337   -1.1604 O.2      1 ZINC000000020222   -0.5400
7      N7      0.0869   -0.4317   -2.4328 N.am     1 ZINC000000020222   -0.6800
8      C8      0.7726   -0.9042   -3.6382 C.3      1 ZINC000000020222    0.0900
9      H9      1.3989   -1.7605   -3.3878 H        1 ZINC000000020222    0.0900
10     C10    -0.2634   -1.3187   -4.6850 C.3      1 ZINC000000020222   -0.0500
11     S11    -1.2986   -2.6502   -4.0170 S.3      1 ZINC000000020222   -0.2600
12     C12     1.6326    0.2020   -4.1931 C.2      1 ZINC000000020222    0.5000
13     O13     1.6693    1.2846   -3.6336 O.co2    1 ZINC000000020222   -0.6700
14     O14     2.2916    0.0143   -5.2015 O.co2    1 ZINC000000020222   -0.6900
15     H15     1.0039    1.9031    0.0027 H        1 ZINC000000020222    0.0800
16     H16    -0.5459    1.8868   -0.8726 H        1 ZINC000000020222    0.0700
17     H17    -0.5289    1.8773    0.9072 H        1 ZINC000000020222    0.0700
18     H18     0.2319   -0.1594    2.1383 H        1 ZINC000000020222    0.0700
19     H19     0.7568   -1.6008    1.2356 H        1 ZINC000000020222    0.0500
20     H20     1.7647   -0.1336    1.2338 H        1 ZINC000000020222    0.0800
21     H21    -1.5301   -1.9662    0.0061 H        1 ZINC000000020222    0.0900
22     H22    -0.8138   -0.0769   -2.4948 H        1 ZINC000000020222    0.4000
23     H23    -0.8897   -0.4624   -4.9353 H        1 ZINC000000020222    0.0800
24     H24     0.2468   -1.6702   -5.5817 H        1 ZINC000000020222    0.1000
25     H25    -2.1480   -2.9087   -5.0272 H        1 ZINC000000020222    0.0800
@<TRIPOS>BOND
1     1     2     1
2     1     15    1
3     1     16    1
4     1     17    1
5     2     3     1
6     2     4     1
7     2     5     1
8     3     18    1
9     3     19    1
10    3     20    1
11    4     21    1
12    5     6     2
13    5     7     am
14    7     8     1
15    7     22    1
16    8     9     1
17    8     10    1
18    8     12    1
19    10    11    1
20    10    23    1
21    10    24    1
22    11    25    1
23    12    13    ar
24    12    14    ar
@<TRIPOS>SUBSTRUCTURE
1   ZINC000000020222 1     RESIDUE    1   A     ZIN   1
