@<TRIPOS>MOLECULE
ZINC000043129461
72    75    1     0     0
SMALL
USER_CHARGES
@<TRIPOS>ATOM
1      C1     -0.3263   -2.3398   -1.0626 C.3      1 ZINC000043129461   -0.1800
2      C2     -1.1672   -1.8776    0.1292 C.3      1 ZINC000043129461   -0.0200
3      N3     -1.2268   -0.4099    0.1465 N.4      1 ZINC000043129461   -0.3800
4      H4     -0.2901   -0.0350    0.1343 H        1 ZINC000043129461    0.4300
5      C5     -1.9595    0.0644   -1.0351 C.3      1 ZINC000043129461   -0.0100
6      C6     -1.8980    1.5921   -1.0941 C.3      1 ZINC000043129461   -0.1500
7      C7     -2.5497    2.0791   -2.3898 C.3      1 ZINC000043129461    0.0600
8      O8     -2.4922    3.5058   -2.4449 O.3      1 ZINC000043129461   -0.3000
9      C9     -3.0312    4.1028   -3.5391 C.ar     1 ZINC000043129461    0.1700
10     C10    -3.6111    3.3177   -4.5390 C.ar     1 ZINC000043129461   -0.2100
11     C11    -4.1590    3.8906   -5.6469 C.ar     1 ZINC000043129461   -0.0300
12     C12    -4.1428    5.2830   -5.7881 C.ar     1 ZINC000043129461   -0.2200
13     C13    -3.5576    6.0881   -4.7793 C.ar     1 ZINC000043129461    0.2300
14     C14    -3.0053    5.4773   -3.6481 C.ar     1 ZINC000043129461   -0.1500
15     N15    -3.5552    7.4209   -4.9382 N.ar     1 ZINC000043129461   -0.5500
16     C16    -4.0855    7.9639   -6.0082 C.ar     1 ZINC000043129461    0.3600
17     N17    -4.6427    7.2531   -6.9754 N.ar     1 ZINC000043129461   -0.5800
18     C18    -4.6985    5.9285   -6.9187 C.ar     1 ZINC000043129461    0.4900
19     N19    -5.2820    5.2001   -7.9344 N.pl3    1 ZINC000043129461   -0.6000
20     C20    -5.8256    5.8580   -9.0448 C.2      1 ZINC000043129461    0.3000
21     N21    -6.4107    5.2849  -10.0703 N.2      1 ZINC000043129461   -0.3100
22     N22    -6.8131    6.2887  -10.9606 N.pl3    1 ZINC000043129461   -0.4600
23     C23    -6.4522    7.4799  -10.4387 C.2      1 ZINC000043129461    0.1000
24     C24    -6.6892    8.8307  -11.0636 C.3      1 ZINC000043129461   -0.0800
25     C25    -7.9610    9.4226  -10.5129 C.2      1 ZINC000043129461    0.5100
26     O26    -8.6109    8.8082   -9.6937 O.2      1 ZINC000043129461   -0.5000
27     N27    -8.3762   10.6349  -10.9308 N.am     1 ZINC000043129461   -0.6700
28     C28    -9.4959   11.2323  -10.3416 C.ar     1 ZINC000043129461    0.1700
29     C29   -10.3524   12.0117  -11.1080 C.ar     1 ZINC000043129461   -0.1600
30     C30   -11.4574   12.6008  -10.5246 C.ar     1 ZINC000043129461   -0.0700
31     C31   -11.7119   12.4160   -9.1787 C.ar     1 ZINC000043129461   -0.1700
32     C32   -10.8598   11.6397   -8.4103 C.ar     1 ZINC000043129461    0.1200
33     F33   -11.1109   11.4608   -7.0950 F        1 ZINC000043129461   -0.1300
34     C34    -9.7557   11.0422   -8.9909 C.ar     1 ZINC000043129461   -0.1600
35     C35    -5.8455    7.2467   -9.2528 C.2      1 ZINC000043129461   -0.2400
36     C36    -1.9176    0.0378    1.3633 C.3      1 ZINC000043129461   -0.0100
37     C37    -1.0899   -0.3482    2.5908 C.3      1 ZINC000043129461    0.1000
38     O38     0.1479    0.3656    2.5745 O.3      1 ZINC000043129461   -0.7700
39     P39     1.2686    0.2038    3.7190 P.3      1 ZINC000043129461    2.2000
40     O40     1.6455   -1.2875    3.8636 O.2      1 ZINC000043129461   -1.1000
41     O41     0.7124    0.7271    5.0621 O.3      1 ZINC000043129461   -1.0900
42     O42     2.5763    1.0509    3.3132 O.3      1 ZINC000043129461   -0.9000
43     H43    -0.2055   -3.4224   -1.0239 H        1 ZINC000043129461    0.1100
44     H44    -0.8276   -2.0630   -1.9900 H        1 ZINC000043129461    0.0800
45     H45     0.6531   -1.8632   -1.0228 H        1 ZINC000043129461    0.0800
46     H46    -2.1758   -2.2812    0.0405 H        1 ZINC000043129461    0.1300
47     H47    -0.7134   -2.2337    1.0540 H        1 ZINC000043129461    0.1400
48     H48    -1.5069   -0.3524   -1.9348 H        1 ZINC000043129461    0.1300
49     H49    -2.9996   -0.2551   -0.9701 H        1 ZINC000043129461    0.1300
50     H50    -2.4306    2.0104   -0.2400 H        1 ZINC000043129461    0.1000
51     H51    -0.8573    1.9151   -1.0670 H        1 ZINC000043129461    0.1000
52     H52    -2.0171    1.6607   -3.2439 H        1 ZINC000043129461    0.0700
53     H53    -3.5904    1.7560   -2.4169 H        1 ZINC000043129461    0.0800
54     H54    -3.6247    2.2430   -4.4324 H        1 ZINC000043129461    0.1400
55     H55    -4.6035    3.2730   -6.4133 H        1 ZINC000043129461    0.1300
56     H56    -2.5556    6.0767   -2.8704 H        1 ZINC000043129461    0.1500
57     H57    -4.0668    9.0395   -6.1039 H        1 ZINC000043129461    0.2000
58     H58    -5.3157    4.2323   -7.8796 H        1 ZINC000043129461    0.4300
59     H59    -7.2708    6.1516  -11.8047 H        1 ZINC000043129461    0.4400
60     H60    -5.8521    9.4896  -10.8330 H        1 ZINC000043129461    0.1300
61     H61    -6.7779    8.7205  -12.1443 H        1 ZINC000043129461    0.1100
62     H62    -7.8987   11.0932  -11.6399 H        1 ZINC000043129461    0.4200
63     H63   -10.1545   12.1575  -12.1596 H        1 ZINC000043129461    0.1300
64     H64   -12.1233   13.2069  -11.1211 H        1 ZINC000043129461    0.1400
65     H65   -12.5763   12.8780   -8.7251 H        1 ZINC000043129461    0.1400
66     H66    -9.0911   10.4368   -8.3924 H        1 ZINC000043129461    0.1500
67     H67    -5.4416    7.9952   -8.5872 H        1 ZINC000043129461    0.1900
68     H68    -2.0406    1.1204    1.3338 H        1 ZINC000043129461    0.1400
69     H69    -2.8967   -0.4377    1.4210 H        1 ZINC000043129461    0.1400
70     H70    -1.6428   -0.0961    3.4957 H        1 ZINC000043129461    0.1000
71     H71    -0.8916   -1.4199    2.5730 H        1 ZINC000043129461    0.0800
72     H72     3.2943    0.9994    3.9588 H        1 ZINC000043129461    0.4200
@<TRIPOS>BOND
1     1     2     1
2     1     43    1
3     1     44    1
4     1     45    1
5     2     3     1
6     2     46    1
7     2     47    1
8     3     4     1
9     3     5     1
10    3     36    1
11    5     6     1
12    5     48    1
13    5     49    1
14    6     7     1
15    6     50    1
16    6     51    1
17    7     8     1
18    7     52    1
19    7     53    1
20    8     9     1
21    9     14    ar
22    9     10    ar
23    10    11    ar
24    10    54    1
25    11    12    ar
26    11    55    1
27    12    18    ar
28    12    13    ar
29    13    14    ar
30    13    15    ar
31    14    56    1
32    15    16    ar
33    16    17    ar
34    16    57    1
35    17    18    ar
36    18    19    1
37    19    20    1
38    19    58    1
39    20    35    1
40    20    21    2
41    21    22    1
42    22    23    1
43    22    59    1
44    23    24    1
45    23    35    2
46    24    25    1
47    24    60    1
48    24    61    1
49    25    26    2
50    25    27    am
51    27    28    1
52    27    62    1
53    28    34    ar
54    28    29    ar
55    29    30    ar
56    29    63    1
57    30    31    ar
58    30    64    1
59    31    32    ar
60    31    65    1
61    32    33    1
62    32    34    ar
63    34    66    1
64    35    67    1
65    36    37    1
66    36    68    1
67    36    69    1
68    37    38    1
69    37    70    1
70    37    71    1
71    38    39    1
72    39    40    2
73    39    41    1
74    39    42    1
75    42    72    1
@<TRIPOS>SUBSTRUCTURE
1   ZINC000043129461 1     RESIDUE    1   A     ZIN   1
