@<TRIPOS>MOLECULE
ZINC000008214653
83    83    1     0     0
SMALL
USER_CHARGES
@<TRIPOS>ATOM
1      C1     -0.0187    1.5258    0.0104 C.3      1 ZINC000008214653   -0.1500
2      C2      0.0021   -0.0041    0.0020 C.3      1 ZINC000008214653   -0.1300
3      C3     -1.4333   -0.5336    0.0129 C.3      1 ZINC000008214653   -0.1200
4      C4     -1.4126   -2.0635    0.0045 C.3      1 ZINC000008214653   -0.1200
5      C5     -2.8479   -2.5931    0.0153 C.3      1 ZINC000008214653   -0.1200
6      C6     -2.8272   -4.1229    0.0069 C.3      1 ZINC000008214653   -0.1200
7      C7     -4.2626   -4.6525    0.0178 C.3      1 ZINC000008214653   -0.1200
8      C8     -4.2418   -6.1823    0.0094 C.3      1 ZINC000008214653   -0.1200
9      C9     -5.6772   -6.7119    0.0202 C.3      1 ZINC000008214653   -0.1200
10     C10    -5.6565   -8.2417    0.0118 C.3      1 ZINC000008214653   -0.1200
11     C11    -7.0918   -8.7713    0.0227 C.3      1 ZINC000008214653   -0.1200
12     C12    -7.0711  -10.3012    0.0143 C.3      1 ZINC000008214653   -0.1200
13     C13    -8.5065  -10.8307    0.0251 C.3      1 ZINC000008214653   -0.1200
14     C14    -8.4857  -12.3606    0.0167 C.3      1 ZINC000008214653   -0.1200
15     C15    -9.9211  -12.8902    0.0276 C.3      1 ZINC000008214653   -0.1200
16     C16    -9.9004  -14.4200    0.0191 C.3      1 ZINC000008214653   -0.1200
17     C17   -11.3358  -14.9496    0.0300 C.3      1 ZINC000008214653   -0.1200
18     C18   -11.3150  -16.4794    0.0216 C.3      1 ZINC000008214653    0.1300
19     O19   -12.6556  -16.9740    0.0317 O.3      1 ZINC000008214653   -0.7600
20     P20   -13.0110  -18.5443    0.0267 P.3      1 ZINC000008214653    2.2200
21     O21   -12.2984  -19.2374    1.2095 O.co2    1 ZINC000008214653   -1.1000
22     O22   -12.5369  -19.1754   -1.3015 O.co2    1 ZINC000008214653   -1.0900
23     O23   -14.6030  -18.7348    0.1732 O.3      1 ZINC000008214653   -0.7400
24     C24   -15.2248  -20.0145    0.3056 C.3      1 ZINC000008214653    0.1600
25     C25   -15.9976  -20.0742    1.6264 C.3      1 ZINC000008214653   -0.1700
26     C26   -16.7254  -21.4166    1.7249 C.3      1 ZINC000008214653    0.0000
27     N27   -17.6610  -21.5536    0.6023 N.4      1 ZINC000008214653   -0.2700
28     C28   -18.4129  -22.8077    0.7436 C.3      1 ZINC000008214653   -0.0400
29     C29   -18.5962  -20.4207    0.6051 C.3      1 ZINC000008214653   -0.0600
30     C30   -16.9200  -21.5693   -0.6647 C.3      1 ZINC000008214653    0.0000
31     C31   -16.1996  -20.2328   -0.8552 C.3      1 ZINC000008214653   -0.1700
32     H32     1.0039    1.9031    0.0027 H        1 ZINC000008214653    0.0500
33     H33    -0.5459    1.8868   -0.8726 H        1 ZINC000008214653    0.0500
34     H34    -0.5289    1.8773    0.9072 H        1 ZINC000008214653    0.0500
35     H35     0.5123   -0.3556   -0.8948 H        1 ZINC000008214653    0.0600
36     H36     0.5293   -0.3651    0.8851 H        1 ZINC000008214653    0.0600
37     H37    -1.9435   -0.1821    0.9097 H        1 ZINC000008214653    0.0600
38     H38    -1.9605   -0.1726   -0.8702 H        1 ZINC000008214653    0.0600
39     H39    -0.9024   -2.4150   -0.8923 H        1 ZINC000008214653    0.0600
40     H40    -0.8854   -2.4246    0.8875 H        1 ZINC000008214653    0.0600
41     H41    -3.3581   -2.2415    0.9121 H        1 ZINC000008214653    0.0600
42     H42    -3.3751   -2.2320   -0.8677 H        1 ZINC000008214653    0.0600
43     H43    -2.3170   -4.4744   -0.8899 H        1 ZINC000008214653    0.0600
44     H44    -2.3000   -4.4840    0.8900 H        1 ZINC000008214653    0.0600
45     H45    -4.7728   -4.3010    0.9146 H        1 ZINC000008214653    0.0600
46     H46    -4.7898   -4.2914   -0.8653 H        1 ZINC000008214653    0.0600
47     H47    -3.7316   -6.5338   -0.8874 H        1 ZINC000008214653    0.0600
48     H48    -3.7146   -6.5434    0.8924 H        1 ZINC000008214653    0.0600
49     H49    -6.1874   -6.3604    0.9170 H        1 ZINC000008214653    0.0600
50     H50    -6.2044   -6.3508   -0.8628 H        1 ZINC000008214653    0.0600
51     H51    -5.1463   -8.5933   -0.8850 H        1 ZINC000008214653    0.0600
52     H52    -5.1293   -8.6028    0.8949 H        1 ZINC000008214653    0.0600
53     H53    -7.6020   -8.4198    0.9195 H        1 ZINC000008214653    0.0600
54     H54    -7.6190   -8.4102   -0.8604 H        1 ZINC000008214653    0.0600
55     H55    -6.5609  -10.6527   -0.8825 H        1 ZINC000008214653    0.0600
56     H56    -6.5439  -10.6622    0.8973 H        1 ZINC000008214653    0.0600
57     H57    -9.0167  -10.4792    0.9219 H        1 ZINC000008214653    0.0600
58     H58    -9.0337  -10.4697   -0.8579 H        1 ZINC000008214653    0.0600
59     H59    -7.9755  -12.7121   -0.8801 H        1 ZINC000008214653    0.0600
60     H60    -7.9586  -12.7217    0.8998 H        1 ZINC000008214653    0.0600
61     H61   -10.4313  -12.5386    0.9244 H        1 ZINC000008214653    0.0600
62     H62   -10.4483  -12.5291   -0.8555 H        1 ZINC000008214653    0.0600
63     H63    -9.3902  -14.7715   -0.8776 H        1 ZINC000008214653    0.0700
64     H64    -9.3732  -14.7811    0.9022 H        1 ZINC000008214653    0.0600
65     H65   -11.8459  -14.5981    0.9268 H        1 ZINC000008214653    0.0700
66     H66   -11.8629  -14.5885   -0.8531 H        1 ZINC000008214653    0.0700
67     H67   -10.8048  -16.8309   -0.8752 H        1 ZINC000008214653    0.0500
68     H68   -10.7878  -16.8405    0.9047 H        1 ZINC000008214653    0.0500
69     H69   -14.4623  -20.7934    0.2925 H        1 ZINC000008214653    0.0800
70     H70   -15.3021  -19.9752    2.4598 H        1 ZINC000008214653    0.1200
71     H71   -16.7245  -19.2627    1.6597 H        1 ZINC000008214653    0.1000
72     H72   -15.9976  -22.2273    1.6917 H        1 ZINC000008214653    0.1300
73     H73   -17.2765  -21.4625    2.6642 H        1 ZINC000008214653    0.1300
74     H74   -18.9689  -22.7943    1.6811 H        1 ZINC000008214653    0.1200
75     H75   -19.1081  -22.9104   -0.0896 H        1 ZINC000008214653    0.1200
76     H76   -17.7197  -23.6488    0.7443 H        1 ZINC000008214653    0.1200
77     H77   -18.0391  -19.4894    0.5029 H        1 ZINC000008214653    0.1300
78     H78   -19.2915  -20.5215   -0.2282 H        1 ZINC000008214653    0.1200
79     H79   -19.1519  -20.4107    1.5428 H        1 ZINC000008214653    0.1200
80     H80   -16.1880  -22.3768   -0.6469 H        1 ZINC000008214653    0.1300
81     H81   -17.6147  -21.7279   -1.4895 H        1 ZINC000008214653    0.1300
82     H82   -16.9307  -19.4246   -0.8733 H        1 ZINC000008214653    0.1000
83     H83   -15.6485  -20.2471   -1.7955 H        1 ZINC000008214653    0.1200
@<TRIPOS>BOND
1     1     2     1
2     1     32    1
3     1     33    1
4     1     34    1
5     2     3     1
6     2     35    1
7     2     36    1
8     3     4     1
9     3     37    1
10    3     38    1
11    4     5     1
12    4     39    1
13    4     40    1
14    5     6     1
15    5     41    1
16    5     42    1
17    6     7     1
18    6     43    1
19    6     44    1
20    7     8     1
21    7     45    1
22    7     46    1
23    8     9     1
24    8     47    1
25    8     48    1
26    9     10    1
27    9     49    1
28    9     50    1
29    10    11    1
30    10    51    1
31    10    52    1
32    11    12    1
33    11    53    1
34    11    54    1
35    12    13    1
36    12    55    1
37    12    56    1
38    13    14    1
39    13    57    1
40    13    58    1
41    14    15    1
42    14    59    1
43    14    60    1
44    15    16    1
45    15    61    1
46    15    62    1
47    16    17    1
48    16    63    1
49    16    64    1
50    17    18    1
51    17    65    1
52    17    66    1
53    18    19    1
54    18    67    1
55    18    68    1
56    19    20    1
57    20    21    ar
58    20    22    ar
59    20    23    1
60    23    24    1
61    24    31    1
62    24    25    1
63    24    69    1
64    25    26    1
65    25    70    1
66    25    71    1
67    26    27    1
68    26    72    1
69    26    73    1
70    27    28    1
71    27    29    1
72    27    30    1
73    28    74    1
74    28    75    1
75    28    76    1
76    29    77    1
77    29    78    1
78    29    79    1
79    30    31    1
80    30    80    1
81    30    81    1
82    31    82    1
83    31    83    1
@<TRIPOS>SUBSTRUCTURE
1   ZINC000008214653 1     RESIDUE    1   A     ZIN   1
