@<TRIPOS>MOLECULE
ZINC000003782486
  76   79    0    0    0
SMALL
USER_CHARGES
NO_NAME
@<TRIPOS>ATOM
    1 C1       -3.3018    -0.7215     2.2984 C.3    1 <0>       0.0300
    2 O2       -2.8154    -2.0619     2.2045 O.3    1 <0>      -0.3700
    3 C3       -1.5839    -2.2829     2.8949 C.3    1 <0>       0.0600
    4 C4       -1.1667    -3.7216     2.7298 C.2    1 <0>       0.4600
    5 O5       -1.8535    -4.4798     2.0869 O.2    1 <0>      -0.4900
    6 O6       -0.0321    -4.1607     3.2970 O.3    1 <0>      -0.3100
    7 C7        0.2524    -5.5805     3.1887 C.3    1 <0>       0.1500
    8 C8        0.4067    -5.9640     1.7156 C.3    1 <0>      -0.2000
    9 C9        0.9276    -7.3990     1.6141 C.3    1 <0>      -0.0200
   10 N10       0.9455    -7.8150     0.2054 N.4    1 <0>      -0.3800
   11 H11       0.0270    -7.6912    -0.1936 H      1 <0>       0.4300
   12 C12       1.9151    -6.9963    -0.5346 C.3    1 <0>      -0.0600
   13 C13       1.3310    -9.2298     0.1174 C.3    1 <0>      -0.0100
   14 C14       1.2292    -9.6967    -1.3361 C.3    1 <0>      -0.1600
   15 C15       1.6308   -11.1702    -1.4277 C.3    1 <0>      -0.0800
   16 C16       1.5305   -11.6301    -2.8593 C.cat  1 <0>       0.3800
   17 N17       0.4455   -12.1470    -3.4117 N.pl3  1 <0>      -0.5000
   18 H18      -0.4043   -12.2895    -2.9663 H      1 <0>       0.4600
   19 C19       0.7234   -12.4461    -4.7157 C.ar   1 <0>       0.0600
   20 C20      -0.0145   -12.9978    -5.7603 C.ar   1 <0>      -0.0800
   21 C21       0.5727   -13.1757    -6.9930 C.ar   1 <0>      -0.0600
   22 C22       1.8950   -12.8099    -7.2032 C.ar   1 <0>      -0.0600
   23 C23       2.6400   -12.2635    -6.1821 C.ar   1 <0>      -0.0800
   24 C24       2.0626   -12.0752    -4.9286 C.ar   1 <0>       0.0600
   25 N25       2.5134   -11.5686    -3.7424 N.pl3  1 <0>      -0.5000
   26 C26      -0.8920    -6.3856     3.8155 C.3    1 <0>      -0.1500
   27 C27      -1.1788    -5.8153     5.2030 C.3    1 <0>      -0.0800
   28 C28       0.0911    -5.7142     6.0068 C.ar   1 <0>      -0.0400
   29 C29      -0.0249    -5.5828     7.3840 C.ar   1 <0>      -0.1500
   30 C30       1.1025    -5.4802     8.1768 C.ar   1 <0>       0.1100
   31 F31       0.9807    -5.3543     9.5164 F      1 <0>      -0.1300
   32 C32       2.3572    -5.5074     7.5923 C.ar   1 <0>      -0.1500
   33 C33       2.4722    -5.6400     6.2241 C.ar   1 <0>      -0.0800
   34 C34       1.3399    -5.7473     5.4270 C.ar   1 <0>      -0.1000
   35 C35       1.5402    -5.9058     3.9424 C.3    1 <0>      -0.0300
   36 H36       1.8329    -6.9334     3.7270 H      1 <0>       0.1000
   37 C37       2.6483    -4.9580     3.4789 C.3    1 <0>      -0.1000
   38 C38       2.9509    -5.2115     2.0007 C.3    1 <0>      -0.1700
   39 C39       2.1915    -3.5097     3.6649 C.3    1 <0>      -0.1400
   40 H40      -2.5673    -0.0377     1.8729 H      1 <0>       0.0500
   41 H41      -4.2392    -0.6358     1.7488 H      1 <0>       0.1000
   42 H42      -3.4700    -0.4685     3.3452 H      1 <0>       0.0500
   43 H43      -0.8137    -1.6316     2.4818 H      1 <0>       0.1000
   44 H44      -1.7165    -2.0624     3.9541 H      1 <0>       0.1000
   45 H45      -0.5607    -5.8926     1.2183 H      1 <0>       0.1200
   46 H46       1.1128    -5.2864     1.2358 H      1 <0>       0.1200
   47 H47       1.9378    -7.4484     2.0204 H      1 <0>       0.1500
   48 H48       0.2752    -8.0633     2.1809 H      1 <0>       0.1400
   49 H49       2.9073    -7.1300    -0.1037 H      1 <0>       0.1300
   50 H50       1.9284    -7.3049    -1.5799 H      1 <0>       0.1200
   51 H51       1.6291    -5.9465    -0.4693 H      1 <0>       0.1300
   52 H52       2.3567    -9.3492     0.4664 H      1 <0>       0.1400
   53 H53       0.6639    -9.8274     0.7386 H      1 <0>       0.1400
   54 H54       0.2036    -9.5772    -1.6851 H      1 <0>       0.1000
   55 H55       1.8963    -9.0990    -1.9572 H      1 <0>       0.1000
   56 H56       2.6565   -11.2896    -1.0787 H      1 <0>       0.1400
   57 H57       0.9637   -11.7679    -0.8065 H      1 <0>       0.1400
   58 H58      -1.0436   -13.2854    -5.6038 H      1 <0>       0.1600
   59 H59      -0.0000   -13.6035    -7.8026 H      1 <0>       0.1600
   60 H60       2.3432   -12.9553    -8.1750 H      1 <0>       0.1600
   61 H61       3.6684   -11.9812    -6.3529 H      1 <0>       0.1600
   62 H62       3.4046   -11.2239    -3.5754 H      1 <0>       0.4600
   63 H63      -1.7830    -6.3027     3.1931 H      1 <0>       0.1000
   64 H64      -0.6001    -7.4322     3.9020 H      1 <0>       0.0800
   65 H65      -1.6189    -4.8234     5.1000 H      1 <0>       0.0800
   66 H66      -1.8815    -6.4675     5.7215 H      1 <0>       0.0900
   67 H67      -1.0039    -5.5610     7.8395 H      1 <0>       0.1400
   68 H68       3.2426    -5.4249     8.2052 H      1 <0>       0.1400
   69 H69       3.4513    -5.6605     5.7687 H      1 <0>       0.1300
   70 H70       3.5475    -5.1341     4.0692 H      1 <0>       0.0900
   71 H71       2.3471    -4.5434     1.3865 H      1 <0>       0.0700
   72 H72       4.0077    -5.0254     1.8091 H      1 <0>       0.0700
   73 H73       2.7135    -6.2462     1.7534 H      1 <0>       0.0500
   74 H74       1.5780    -3.4347     4.5627 H      1 <0>       0.0700
   75 H75       3.0637    -2.8638     3.7659 H      1 <0>       0.0500
   76 H76       1.6075    -3.1988     2.7987 H      1 <0>       0.0600
@<TRIPOS>BOND
   1    1    2 1
   2    1   40 1
   3    1   41 1
   4    1   42 1
   5    2    3 1
   6    3    4 1
   7    3   43 1
   8    3   44 1
   9    4    5 2
  10    4    6 1
  11    6    7 1
  12    7   35 1
  13    7    8 1
  14    7   26 1
  15    8    9 1
  16    8   45 1
  17    8   46 1
  18    9   10 1
  19    9   47 1
  20    9   48 1
  21   10   11 1
  22   10   12 1
  23   10   13 1
  24   12   49 1
  25   12   50 1
  26   12   51 1
  27   13   14 1
  28   13   52 1
  29   13   53 1
  30   14   15 1
  31   14   54 1
  32   14   55 1
  33   15   16 1
  34   15   56 1
  35   15   57 1
  36   16   25 ar
  37   16   17 ar
  38   17   18 1
  39   17   19 1
  40   19   24 ar
  41   19   20 ar
  42   20   21 ar
  43   20   58 1
  44   21   22 ar
  45   21   59 1
  46   22   23 ar
  47   22   60 1
  48   23   24 ar
  49   23   61 1
  50   24   25 1
  51   25   62 1
  52   26   27 1
  53   26   63 1
  54   26   64 1
  55   27   28 1
  56   27   65 1
  57   27   66 1
  58   28   34 ar
  59   28   29 ar
  60   29   30 ar
  61   29   67 1
  62   30   31 1
  63   30   32 ar
  64   32   33 ar
  65   32   68 1
  66   33   34 ar
  67   33   69 1
  68   34   35 1
  69   35   36 1
  70   35   37 1
  71   37   38 1
  72   37   39 1
  73   37   70 1
  74   38   71 1
  75   38   72 1
  76   38   73 1
  77   39   74 1
  78   39   75 1
  79   39   76 1
