@<TRIPOS>MOLECULE
ZINC000003783756
  63   68    0    0    0
SMALL
USER_CHARGES
NO_NAME
@<TRIPOS>ATOM
    1 C1        0.6081     1.3745     0.0413 C.3    1 <0>       0.0800
    2 N2        0.9358    -0.0533     0.0478 N.pl3  1 <0>      -0.4800
    3 C3        0.9544    -0.8521    -1.0542 C.2    1 <0>       0.0800
    4 C4        1.2985    -2.1220    -0.6952 C.2    1 <0>      -0.1300
    5 C5        1.4313    -3.2845    -1.5892 C.2    1 <0>      -0.0200
    6 C6        2.4731    -3.5453    -2.4718 C.2    1 <0>      -0.0400
    7 C7        3.6674    -2.7152    -2.7016 C.2    1 <0>      -0.1000
    8 C8        3.7990    -1.7062    -3.6116 C.2    1 <0>       0.0900
    9 C9        2.7317    -1.2350    -4.5720 C.3    1 <0>      -0.0700
   10 C10       3.1449     0.1376    -5.1165 C.3    1 <0>      -0.1200
   11 H11       3.0529     0.8852    -4.3286 H      1 <0>       0.1000
   12 C12       2.2391     0.5165    -6.2899 C.3    1 <0>      -0.0100
   13 N13       0.8629     0.6953    -5.8083 N.4    1 <0>      -0.3900
   14 H14       0.5714    -0.1313    -5.3084 H      1 <0>       0.4200
   15 C15       0.8053     1.8564    -4.9102 C.3    1 <0>      -0.0600
   16 C16      -0.0315     0.9165    -6.9525 C.3    1 <0>      -0.0500
   17 C17       4.5994     0.0696    -5.5909 C.3    1 <0>      -0.1300
   18 C18       5.5270    -0.0596    -4.3800 C.3    1 <0>       0.1100
   19 N19       5.0574    -1.1669    -3.5328 N.pl3  1 <0>      -0.4700
   20 C20       5.7778    -1.8121    -2.5654 C.ar   1 <0>       0.1100
   21 C21       7.0829    -1.6362    -2.1099 C.ar   1 <0>      -0.1300
   22 C22       7.5137    -2.4740    -1.0949 C.ar   1 <0>      -0.0900
   23 C23       6.6989    -3.4487    -0.5453 C.ar   1 <0>      -0.1400
   24 C24       5.3986    -3.6439    -0.9797 C.ar   1 <0>      -0.0600
   25 C25       4.9443    -2.8042    -1.9963 C.ar   1 <0>      -0.0800
   26 C26       2.1397    -4.8243    -3.1322 C.2    1 <0>       0.5500
   27 O27       2.8138    -5.3841    -3.9738 O.2    1 <0>      -0.4400
   28 N28       0.9669    -5.2652    -2.6468 N.am   1 <0>      -0.6900
   29 C29       0.4874    -4.4131    -1.7250 C.2    1 <0>       0.5500
   30 O30      -0.5533    -4.5442    -1.1121 O.2    1 <0>      -0.4400
   31 C31       1.5113    -2.1025     0.7627 C.ar   1 <0>      -0.0800
   32 C32       1.8719    -3.0681     1.6997 C.ar   1 <0>      -0.0700
   33 C33       1.9900    -2.7195     3.0276 C.ar   1 <0>      -0.1300
   34 C34       1.7513    -1.4145     3.4328 C.ar   1 <0>      -0.0900
   35 C35       1.3938    -0.4489     2.5166 C.ar   1 <0>      -0.1300
   36 C36       1.2754    -0.7790     1.1708 C.ar   1 <0>       0.1000
   37 H37       1.5174     1.9553    -0.1134 H      1 <0>       0.0700
   38 H38      -0.0968     1.5818    -0.7638 H      1 <0>       0.0800
   39 H39       0.1599     1.6488     0.9963 H      1 <0>       0.0900
   40 H40       0.7306    -0.5291    -2.0602 H      1 <0>       0.1600
   41 H41       2.6391    -1.9439    -5.3948 H      1 <0>       0.1000
   42 H42       1.7787    -1.1512    -4.0497 H      1 <0>       0.0800
   43 H43       2.5918     1.4466    -6.7355 H      1 <0>       0.1400
   44 H44       2.2623    -0.2763    -7.0376 H      1 <0>       0.1400
   45 H45       1.2241     2.7271    -5.4148 H      1 <0>       0.1300
   46 H46      -0.2318     2.0564    -4.6409 H      1 <0>       0.1300
   47 H47       1.3810     1.6472    -4.0085 H      1 <0>       0.1200
   48 H48       0.0112     0.0550    -7.6188 H      1 <0>       0.1300
   49 H49      -1.0527     1.0492    -6.5951 H      1 <0>       0.1300
   50 H50       0.2834     1.8095    -7.4924 H      1 <0>       0.1200
   51 H51       4.7291    -0.7951    -6.2417 H      1 <0>       0.0900
   52 H52       4.8448     0.9780    -6.1410 H      1 <0>       0.1000
   53 H53       6.5425    -0.2649    -4.7187 H      1 <0>       0.1000
   54 H54       5.5123     0.8684    -3.8085 H      1 <0>       0.0800
   55 H55       7.7298    -0.8803    -2.5301 H      1 <0>       0.1300
   56 H56       8.5203    -2.3633    -0.7194 H      1 <0>       0.1300
   57 H57       7.0883    -4.0746     0.2441 H      1 <0>       0.1300
   58 H58       4.7655    -4.4054    -0.5487 H      1 <0>       0.1300
   59 H59       0.5294    -6.0866    -2.9204 H      1 <0>       0.4300
   60 H60       2.0576    -4.0850     1.3870 H      1 <0>       0.1200
   61 H61       2.2694    -3.4660     3.7564 H      1 <0>       0.1300
   62 H62       1.8461    -1.1527     4.4763 H      1 <0>       0.1300
   63 H63       1.2102     0.5642     2.8429 H      1 <0>       0.1200
@<TRIPOS>BOND
   1    1    2 1
   2    1   37 1
   3    1   38 1
   4    1   39 1
   5    2   36 1
   6    2    3 1
   7    3    4 2
   8    3   40 1
   9    4    5 1
  10    4   31 1
  11    5   29 1
  12    5    6 2
  13    6    7 1
  14    6   26 1
  15    7   25 1
  16    7    8 2
  17    8   19 1
  18    8    9 1
  19    9   10 1
  20    9   41 1
  21    9   42 1
  22   10   11 1
  23   10   12 1
  24   10   17 1
  25   12   13 1
  26   12   43 1
  27   12   44 1
  28   13   14 1
  29   13   15 1
  30   13   16 1
  31   15   45 1
  32   15   46 1
  33   15   47 1
  34   16   48 1
  35   16   49 1
  36   16   50 1
  37   17   18 1
  38   17   51 1
  39   17   52 1
  40   18   19 1
  41   18   53 1
  42   18   54 1
  43   19   20 1
  44   20   25 ar
  45   20   21 ar
  46   21   22 ar
  47   21   55 1
  48   22   23 ar
  49   22   56 1
  50   23   24 ar
  51   23   57 1
  52   24   25 ar
  53   24   58 1
  54   26   27 2
  55   26   28 am
  56   28   29 am
  57   28   59 1
  58   29   30 2
  59   31   36 ar
  60   31   32 ar
  61   32   33 ar
  62   32   60 1
  63   33   34 ar
  64   33   61 1
  65   34   35 ar
  66   34   62 1
  67   35   36 ar
  68   35   63 1
