@<TRIPOS>MOLECULE
ZINC000000538635
49    51    1     0     0
SMALL
USER_CHARGES
@<TRIPOS>ATOM
1      C1      0.0947    1.2504   -0.3579 C.3      1 ZINC000000538635   -0.1400
2      C2      0.1284   -0.2683   -0.1757 C.3      1 ZINC000000538635   -0.0200
3      C3      0.9221   -0.9018   -1.3200 C.3      1 ZINC000000538635   -0.1400
4      C4      0.7874   -0.6022    1.1378 C.2      1 ZINC000000538635    0.1000
5      C5      0.2551   -1.3639    2.1238 C.2      1 ZINC000000538635   -0.0900
6      S6     -1.3246   -2.1443    2.1133 S.3      1 ZINC000000538635    0.1100
7      C7     -2.3609   -0.9522    2.8940 C.ar     1 ZINC000000538635   -0.1000
8      C8     -1.8096    0.2062    3.4283 C.ar     1 ZINC000000538635   -0.1100
9      C9     -2.6250    1.1396    4.0396 C.ar     1 ZINC000000538635   -0.0100
10     Cl10   -1.9373    2.5873    4.7068 Cl       1 ZINC000000538635   -0.0500
11     C11    -3.9895    0.9217    4.1200 C.ar     1 ZINC000000538635   -0.1000
12     C12    -4.5414   -0.2312    3.5892 C.ar     1 ZINC000000538635    0.0000
13     Cl13   -6.2534   -0.5001    3.6925 Cl       1 ZINC000000538635   -0.0400
14     C14    -3.7319   -1.1657    2.9716 C.ar     1 ZINC000000538635   -0.0800
15     N15     1.1841   -1.4102    3.1313 N.pl3    1 ZINC000000538635   -0.4300
16     C16     1.0516   -2.1197    4.4061 C.3      1 ZINC000000538635    0.1400
17     C17     1.5830   -3.5221    4.2581 C.ar     1 ZINC000000538635   -0.0700
18     C18     0.7514   -4.5580    3.8608 C.ar     1 ZINC000000538635   -0.1500
19     C19     1.2743   -5.8312    3.7359 C.ar     1 ZINC000000538635    0.1000
20     N20     2.5468   -6.0658    3.9901 N.ar     1 ZINC000000538635   -0.4700
21     C21     3.3666   -5.1053    4.3700 C.ar     1 ZINC000000538635    0.1000
22     C22     2.9165   -3.8061    4.5104 C.ar     1 ZINC000000538635   -0.1400
23     C23     2.2532   -0.6728    2.7227 C.2      1 ZINC000000538635    0.2400
24     C24     3.5158   -0.4438    3.5130 C.3      1 ZINC000000538635    0.1700
25     O25     4.4766   -1.4875    3.2034 O.3      1 ZINC000000538635   -0.3600
26     C26     5.6664   -1.4286    3.8308 C.2      1 ZINC000000538635    0.6500
27     N27     6.6032   -2.3668    3.5884 N.am     1 ZINC000000538635   -0.8200
28     O28     5.8957   -0.5296    4.6155 O.2      1 ZINC000000538635   -0.5700
29     N29     2.0058   -0.2016    1.5321 N.2      1 ZINC000000538635   -0.4500
30     H30     1.1128    1.6396   -0.3529 H        1 ZINC000000538635    0.0700
31     H31    -0.3819    1.4919   -1.3080 H        1 ZINC000000538635    0.0600
32     H32    -0.4708    1.7017    0.4574 H        1 ZINC000000538635    0.0500
33     H33    -0.8898   -0.6575   -0.1806 H        1 ZINC000000538635    0.0900
34     H34     1.9132   -0.4506   -1.3682 H        1 ZINC000000538635    0.0600
35     H35     1.0189   -1.9734   -1.1455 H        1 ZINC000000538635    0.0500
36     H36     0.3998   -0.7328   -2.2617 H        1 ZINC000000538635    0.0600
37     H37    -0.7449    0.3767    3.3662 H        1 ZINC000000538635    0.1400
38     H38    -4.6247    1.6526    4.5982 H        1 ZINC000000538635    0.1500
39     H39    -4.1632   -2.0650    2.5573 H        1 ZINC000000538635    0.1500
40     H40     1.6194   -1.5952    5.1746 H        1 ZINC000000538635    0.1100
41     H41     0.0008   -2.1578    4.6933 H        1 ZINC000000538635    0.1100
42     H42    -0.2918   -4.3723    3.6519 H        1 ZINC000000538635    0.1400
43     H43     0.6331   -6.6435    3.4269 H        1 ZINC000000538635    0.1600
44     H44     4.4026   -5.3357    4.5696 H        1 ZINC000000538635    0.1600
45     H45     3.5928   -3.0237    4.8215 H        1 ZINC000000538635    0.1300
46     H46     3.9370    0.5270    3.2515 H        1 ZINC000000538635    0.1100
47     H47     3.2865   -0.4653    4.5783 H        1 ZINC000000538635    0.0900
48     H48     6.4202   -3.0844    2.9619 H        1 ZINC000000538635    0.4100
49     H49     7.4604   -2.3244    4.0403 H        1 ZINC000000538635    0.4300
@<TRIPOS>BOND
1     1     2     1
2     1     30    1
3     1     31    1
4     1     32    1
5     2     3     1
6     2     4     1
7     2     33    1
8     3     34    1
9     3     35    1
10    3     36    1
11    4     29    1
12    4     5     2
13    5     6     1
14    5     15    1
15    6     7     1
16    7     14    ar
17    7     8     ar
18    8     9     ar
19    8     37    1
20    9     10    1
21    9     11    ar
22    11    12    ar
23    11    38    1
24    12    13    1
25    12    14    ar
26    14    39    1
27    15    16    1
28    15    23    1
29    16    17    1
30    16    40    1
31    16    41    1
32    17    22    ar
33    17    18    ar
34    18    19    ar
35    18    42    1
36    19    20    ar
37    19    43    1
38    20    21    ar
39    21    22    ar
40    21    44    1
41    22    45    1
42    23    24    1
43    23    29    2
44    24    25    1
45    24    46    1
46    24    47    1
47    25    26    1
48    26    27    am
49    26    28    2
50    27    48    1
51    27    49    1
@<TRIPOS>SUBSTRUCTURE
1   ZINC000000538635 1     RESIDUE    1   A     ZIN   1
