@<TRIPOS>MOLECULE
ZINC000072315701
111   116   1     0     0
SMALL
USER_CHARGES
@<TRIPOS>ATOM
1      C1    -16.9291   -6.5527   -8.1594 C.3      1 ZINC000072315701   -0.1800
2      C2    -16.1685   -5.3565   -8.6710 C.2      1 ZINC000072315701    0.5100
3      O3    -16.2902   -5.0095   -9.8267 O.2      1 ZINC000072315701   -0.5400
4      N4    -15.3530   -4.6724   -7.8443 N.am     1 ZINC000072315701   -0.6200
5      C5    -15.1863   -5.0799   -6.4409 C.3      1 ZINC000072315701    0.1100
6      C6    -13.6877   -5.1950   -6.1422 C.3      1 ZINC000072315701    0.0300
7      N7    -13.0209   -3.9380   -6.5075 N.3      1 ZINC000072315701   -0.4900
8      C8    -11.6850   -3.9433   -6.0998 C.ar     1 ZINC000072315701    0.1200
9      C9    -11.1798   -5.0213   -5.3841 C.ar     1 ZINC000072315701   -0.1700
10     C10    -9.8583   -5.0235   -4.9830 C.ar     1 ZINC000072315701   -0.0700
11     C11    -9.0383   -3.9539   -5.2927 C.ar     1 ZINC000072315701   -0.1400
12     C12    -7.5968   -3.9598   -4.8534 C.3      1 ZINC000072315701    0.1500
13     N13    -6.7557   -4.4578   -5.9447 N.am     1 ZINC000072315701   -0.5900
14     C14    -6.4836   -5.7744   -6.0388 C.2      1 ZINC000072315701    0.5700
15     O15    -5.7849   -6.1881   -6.9453 O.2      1 ZINC000072315701   -0.5300
16     C16    -7.0286   -6.7072   -5.0503 C.2      1 ZINC000072315701   -0.2300
17     C17    -6.7563   -8.0241   -5.1445 C.2      1 ZINC000072315701    0.0000
18     C18    -7.3042   -8.9619   -4.1507 C.ar     1 ZINC000072315701   -0.0900
19     C19    -8.1121   -8.4912   -3.1109 C.ar     1 ZINC000072315701   -0.1000
20     C20    -8.6215   -9.3758   -2.1840 C.ar     1 ZINC000072315701   -0.1200
21     C21    -8.3351  -10.7264   -2.2807 C.ar     1 ZINC000072315701   -0.0500
22     C22    -8.8963  -11.6864   -1.2637 C.3      1 ZINC000072315701   -0.0300
23     C23   -10.4249  -11.6271   -1.2955 C.3      1 ZINC000072315701   -0.1400
24     C24    -8.4341  -13.1070   -1.5939 C.3      1 ZINC000072315701   -0.1500
25     C25    -8.3999  -11.2998    0.1309 C.3      1 ZINC000072315701   -0.1400
26     C26    -7.5363  -11.1999   -3.3069 C.ar     1 ZINC000072315701   -0.1200
27     C27    -7.0241  -10.3286   -4.2450 C.ar     1 ZINC000072315701   -0.0900
28     C28    -6.2105   -3.5246   -6.9336 C.3      1 ZINC000072315701    0.1500
29     H29    -6.4830   -2.5052   -6.6602 H        1 ZINC000072315701    0.1100
30     C30    -4.6863   -3.6527   -6.9697 C.3      1 ZINC000072315701   -0.1000
31     C31    -4.1113   -3.1811   -5.6590 C.ar     1 ZINC000072315701   -0.0900
32     C32    -3.8772   -1.8346   -5.4515 C.ar     1 ZINC000072315701   -0.1200
33     C33    -3.3498   -1.4020   -4.2492 C.ar     1 ZINC000072315701   -0.1200
34     C34    -3.0570   -2.3158   -3.2542 C.ar     1 ZINC000072315701   -0.1100
35     C35    -3.2920   -3.6622   -3.4613 C.ar     1 ZINC000072315701   -0.1100
36     C36    -3.8234   -4.0944   -4.6620 C.ar     1 ZINC000072315701   -0.1000
37     C37    -6.7741   -3.8477   -8.2934 C.2      1 ZINC000072315701    0.5200
38     O38    -7.4012   -4.8720   -8.4621 O.2      1 ZINC000072315701   -0.4700
39     N39    -6.5814   -2.9983   -9.3219 N.am     1 ZINC000072315701   -0.6400
40     C40    -5.7306   -1.8078   -9.1705 C.3      1 ZINC000072315701    0.0700
41     C41    -4.7248   -1.7794  -10.3261 C.3      1 ZINC000072315701   -0.0200
42     N42    -5.4458   -1.8506  -11.6032 N.4      1 ZINC000072315701   -0.3800
43     H43    -6.1208   -1.1020  -11.6492 H        1 ZINC000072315701    0.4200
44     C44    -4.4907   -1.7150  -12.7110 C.3      1 ZINC000072315701    0.0400
45     C45    -5.2403   -1.6645  -14.0173 C.ar     1 ZINC000072315701   -0.1400
46     C46    -5.5181   -2.8369  -14.6976 C.ar     1 ZINC000072315701   -0.1000
47     C47    -6.2035   -2.7979  -15.8941 C.ar     1 ZINC000072315701   -0.0700
48     C48    -6.6175   -1.5717  -16.4182 C.ar     1 ZINC000072315701    0.0200
49     C49    -7.3299   -1.5237  -17.6595 C.1      1 ZINC000072315701    0.2200
50     N50    -7.8950   -1.4857  -18.6443 N.1      1 ZINC000072315701   -0.3700
51     C51    -6.3342   -0.3925  -15.7262 C.ar     1 ZINC000072315701   -0.0700
52     C52    -5.6526   -0.4465  -14.5281 C.ar     1 ZINC000072315701   -0.0900
53     C53    -6.1394   -3.1400  -11.7148 C.3      1 ZINC000072315701   -0.0300
54     C54    -7.2108   -3.2388  -10.6296 C.3      1 ZINC000072315701    0.0900
55     C55    -9.5380   -2.8791   -6.0051 C.ar     1 ZINC000072315701   -0.0800
56     C56   -10.8571   -2.8731   -6.4142 C.ar     1 ZINC000072315701   -0.1400
57     C57   -13.1305   -3.6759   -7.9487 C.3      1 ZINC000072315701    0.0500
58     C58   -14.6016   -3.5023   -8.3231 C.3      1 ZINC000072315701    0.1100
59     H59   -17.5309   -6.9725   -8.9654 H        1 ZINC000072315701    0.1000
60     H60   -16.2257   -7.3047   -7.8017 H        1 ZINC000072315701    0.0900
61     H61   -17.5806   -6.2462   -7.3411 H        1 ZINC000072315701    0.0900
62     H62   -15.6337   -4.3316   -5.7868 H        1 ZINC000072315701    0.0800
63     H63   -15.6668   -6.0450   -6.2803 H        1 ZINC000072315701    0.1000
64     H64   -13.5425   -5.3883   -5.0794 H        1 ZINC000072315701    0.1000
65     H65   -13.2630   -6.0140   -6.7226 H        1 ZINC000072315701    0.0500
66     H66   -11.8199   -5.8566   -5.1413 H        1 ZINC000072315701    0.1300
67     H67    -9.4649   -5.8613   -4.4265 H        1 ZINC000072315701    0.1200
68     H68    -7.2921   -2.9461   -4.5933 H        1 ZINC000072315701    0.0900
69     H69    -7.4847   -4.6073   -3.9837 H        1 ZINC000072315701    0.1000
70     H70    -7.6486   -6.3401   -4.2458 H        1 ZINC000072315701    0.1300
71     H71    -6.1363   -8.3912   -5.9489 H        1 ZINC000072315701    0.1300
72     H72    -8.3362   -7.4375   -3.0339 H        1 ZINC000072315701    0.1200
73     H73    -9.2454   -9.0138   -1.3801 H        1 ZINC000072315701    0.1300
74     H74   -10.7786  -11.9025   -2.2890 H        1 ZINC000072315701    0.0600
75     H75   -10.8308  -12.3214   -0.5599 H        1 ZINC000072315701    0.0600
76     H76   -10.7542  -10.6150   -1.0602 H        1 ZINC000072315701    0.0600
77     H77    -7.3452  -13.1493   -1.5713 H        1 ZINC000072315701    0.0600
78     H78    -8.8401  -13.8014   -0.8583 H        1 ZINC000072315701    0.0600
79     H79    -8.7878  -13.3825   -2.5874 H        1 ZINC000072315701    0.0600
80     H80    -8.7291  -10.2877    0.3662 H        1 ZINC000072315701    0.0600
81     H81    -8.8058  -11.9942    0.8666 H        1 ZINC000072315701    0.0600
82     H82    -7.3109  -11.3420    0.1536 H        1 ZINC000072315701    0.0600
83     H83    -7.3169  -12.2552   -3.3756 H        1 ZINC000072315701    0.1300
84     H84    -6.4009  -10.6996   -5.0452 H        1 ZINC000072315701    0.1300
85     H85    -4.4131   -4.6954   -7.1321 H        1 ZINC000072315701    0.1100
86     H86    -4.2895   -3.0425   -7.7811 H        1 ZINC000072315701    0.0800
87     H87    -4.1059   -1.1207   -6.2289 H        1 ZINC000072315701    0.1200
88     H88    -3.1662   -0.3501   -4.0874 H        1 ZINC000072315701    0.1200
89     H89    -2.6442   -1.9779   -2.3151 H        1 ZINC000072315701    0.1200
90     H90    -3.0629   -4.3762   -2.6840 H        1 ZINC000072315701    0.1200
91     H91    -4.0070   -5.1463   -4.8238 H        1 ZINC000072315701    0.1200
92     H92    -6.3482   -0.9101   -9.2004 H        1 ZINC000072315701    0.1000
93     H93    -5.1968   -1.8573   -8.2215 H        1 ZINC000072315701    0.1400
94     H94    -4.1495   -0.8545  -10.2846 H        1 ZINC000072315701    0.1500
95     H95    -4.0501   -2.6313  -10.2417 H        1 ZINC000072315701    0.1400
96     H96    -3.9169   -0.7967  -12.5857 H        1 ZINC000072315701    0.1400
97     H97    -3.8135   -2.5691  -12.7135 H        1 ZINC000072315701    0.1400
98     H98    -5.1972   -3.7846  -14.2911 H        1 ZINC000072315701    0.1400
99     H99    -6.4190   -3.7137  -16.4245 H        1 ZINC000072315701    0.1500
100    H100   -6.6516    0.5593  -16.1259 H        1 ZINC000072315701    0.1500
101    H101   -5.4331    0.4648  -13.9916 H        1 ZINC000072315701    0.1400
102    H102   -6.6065   -3.2177  -12.6965 H        1 ZINC000072315701    0.1400
103    H103   -5.4219   -3.9508  -11.5883 H        1 ZINC000072315701    0.1400
104    H104   -7.6576   -4.2329  -10.6455 H        1 ZINC000072315701    0.1300
105    H105   -7.9793   -2.4858  -10.8041 H        1 ZINC000072315701    0.0900
106    H106   -8.8949   -2.0454   -6.2453 H        1 ZINC000072315701    0.1100
107    H107  -11.2466   -2.0335   -6.9708 H        1 ZINC000072315701    0.1200
108    H108  -12.5812   -2.7675   -8.1960 H        1 ZINC000072315701    0.0900
109    H109  -12.7136   -4.5161   -8.5040 H        1 ZINC000072315701    0.0500
110    H110  -14.6968   -3.4220   -9.4060 H        1 ZINC000072315701    0.1000
111    H111  -14.9960   -2.6028   -7.8503 H        1 ZINC000072315701    0.0800
@<TRIPOS>BOND
1     1     2     1
2     1     59    1
3     1     60    1
4     1     61    1
5     2     3     2
6     2     4     am
7     4     58    1
8     4     5     1
9     5     6     1
10    5     62    1
11    5     63    1
12    6     7     1
13    6     64    1
14    6     65    1
15    7     8     1
16    7     57    1
17    8     56    ar
18    8     9     ar
19    9     10    ar
20    9     66    1
21    10    11    ar
22    10    67    1
23    11    12    1
24    11    55    ar
25    12    13    1
26    12    68    1
27    12    69    1
28    13    14    am
29    13    28    1
30    14    15    2
31    14    16    1
32    16    17    2
33    16    70    1
34    17    18    1
35    17    71    1
36    18    27    ar
37    18    19    ar
38    19    20    ar
39    19    72    1
40    20    21    ar
41    20    73    1
42    21    22    1
43    21    26    ar
44    22    23    1
45    22    24    1
46    22    25    1
47    23    74    1
48    23    75    1
49    23    76    1
50    24    77    1
51    24    78    1
52    24    79    1
53    25    80    1
54    25    81    1
55    25    82    1
56    26    27    ar
57    26    83    1
58    27    84    1
59    28    29    1
60    28    30    1
61    28    37    1
62    30    31    1
63    30    85    1
64    30    86    1
65    31    36    ar
66    31    32    ar
67    32    33    ar
68    32    87    1
69    33    34    ar
70    33    88    1
71    34    35    ar
72    34    89    1
73    35    36    ar
74    35    90    1
75    36    91    1
76    37    38    2
77    37    39    am
78    39    54    1
79    39    40    1
80    40    41    1
81    40    92    1
82    40    93    1
83    41    42    1
84    41    94    1
85    41    95    1
86    42    43    1
87    42    44    1
88    42    53    1
89    44    45    1
90    44    96    1
91    44    97    1
92    45    52    ar
93    45    46    ar
94    46    47    ar
95    46    98    1
96    47    48    ar
97    47    99    1
98    48    49    1
99    48    51    ar
100   49    50    3
101   51    52    ar
102   51    100   1
103   52    101   1
104   53    54    1
105   53    102   1
106   53    103   1
107   54    104   1
108   54    105   1
109   55    56    ar
110   55    106   1
111   56    107   1
112   57    58    1
113   57    108   1
114   57    109   1
115   58    110   1
116   58    111   1
@<TRIPOS>SUBSTRUCTURE
1   ZINC000072315701 1     RESIDUE    1   A     ZIN   1
