@<TRIPOS>MOLECULE
ZINC000043208701
53    54    1     0     0
SMALL
USER_CHARGES
@<TRIPOS>ATOM
1      O1     -1.3931   -1.6958    2.4898 O.co2    1 ZINC000043208701   -0.7000
2      C2     -2.1410   -1.5861    3.4465 C.2      1 ZINC000043208701    0.4900
3      O3     -1.8031   -2.0146    4.5367 O.co2    1 ZINC000043208701   -0.7100
4      C4     -3.4804   -0.9152    3.2827 C.3      1 ZINC000043208701   -0.1800
5      C5     -3.6522   -0.4673    1.8299 C.3      1 ZINC000043208701   -0.0900
6      C6     -5.0121    0.2139    1.6636 C.3      1 ZINC000043208701   -0.1200
7      C7     -5.1839    0.6618    0.2107 C.3      1 ZINC000043208701   -0.1100
8      C8     -6.4802    1.4628    0.0739 C.3      1 ZINC000043208701   -0.0500
9      H9     -6.4789    2.2819    0.7931 H        1 ZINC000043208701    0.0900
10     C10    -7.6762    0.5479    0.3452 C.3      1 ZINC000043208701   -0.0900
11     C11    -8.9638    1.3741    0.3314 C.3      1 ZINC000043208701   -0.0900
12     S12   -10.3817    0.2894    0.6531 S.3      1 ZINC000043208701   -0.2500
13     C13   -11.7900    1.4314    0.5977 C.3      1 ZINC000043208701   -0.0500
14     C14   -13.0652    0.6692    0.8509 C.ar     1 ZINC000043208701   -0.0700
15     C15   -13.7617    0.1163   -0.2074 C.ar     1 ZINC000043208701   -0.1000
16     C16   -14.9314   -0.5829    0.0249 C.ar     1 ZINC000043208701   -0.1200
17     C17   -15.4042   -0.7296    1.3156 C.ar     1 ZINC000043208701   -0.1200
18     C18   -14.7072   -0.1774    2.3740 C.ar     1 ZINC000043208701   -0.1200
19     C19   -13.5353    0.5181    2.1421 C.ar     1 ZINC000043208701   -0.1000
20     S20    -6.6016    2.1342   -1.6069 S.3      1 ZINC000043208701   -0.2500
21     C21    -5.2652    3.3600   -1.6542 C.3      1 ZINC000043208701   -0.0500
22     C22    -5.2616    4.0476   -2.9952 C.ar     1 ZINC000043208701   -0.0700
23     C23    -4.5160    3.5276   -4.0366 C.ar     1 ZINC000043208701   -0.1000
24     C24    -4.5126    4.1584   -5.2666 C.ar     1 ZINC000043208701   -0.1200
25     C25    -5.2552    5.3090   -5.4553 C.ar     1 ZINC000043208701   -0.1200
26     C26    -6.0015    5.8285   -4.4142 C.ar     1 ZINC000043208701   -0.1200
27     C27    -6.0082    5.1953   -3.1854 C.ar     1 ZINC000043208701   -0.1000
28     H28    -4.2726   -1.6173    3.5426 H        1 ZINC000043208701    0.0600
29     H29    -3.5346   -0.0469    3.9394 H        1 ZINC000043208701    0.0500
30     H30    -2.8600    0.2348    1.5700 H        1 ZINC000043208701    0.0600
31     H31    -3.5980   -1.3355    1.1731 H        1 ZINC000043208701    0.0600
32     H32    -5.8043   -0.4882    1.9234 H        1 ZINC000043208701    0.0600
33     H33    -5.0663    1.0822    2.3203 H        1 ZINC000043208701    0.0600
34     H34    -4.3387    1.2860   -0.0794 H        1 ZINC000043208701    0.0600
35     H35    -5.2279   -0.2140   -0.4367 H        1 ZINC000043208701    0.0800
36     H36    -7.7288   -0.2198   -0.4267 H        1 ZINC000043208701    0.0800
37     H37    -7.5582    0.0753    1.3203 H        1 ZINC000043208701    0.0900
38     H38    -8.9112    2.1419    1.1033 H        1 ZINC000043208701    0.0800
39     H39    -9.0818    1.8468   -0.6437 H        1 ZINC000043208701    0.0900
40     H40   -11.6667    2.1977    1.3629 H        1 ZINC000043208701    0.0900
41     H41   -11.8373    1.9026   -0.3841 H        1 ZINC000043208701    0.0900
42     H42   -13.3923    0.2309   -1.2157 H        1 ZINC000043208701    0.1200
43     H43   -15.4759   -1.0143   -0.8020 H        1 ZINC000043208701    0.1200
44     H44   -16.3184   -1.2752    1.4970 H        1 ZINC000043208701    0.1200
45     H45   -15.0768   -0.2917    3.3823 H        1 ZINC000043208701    0.1200
46     H46   -12.9907    0.9494    2.9690 H        1 ZINC000043208701    0.1200
47     H47    -5.4214    4.0983   -0.8677 H        1 ZINC000043208701    0.0900
48     H48    -4.3087    2.8608   -1.4993 H        1 ZINC000043208701    0.0900
49     H49    -3.9359    2.6286   -3.8891 H        1 ZINC000043208701    0.1300
50     H50    -3.9296    3.7525   -6.0800 H        1 ZINC000043208701    0.1200
51     H51    -5.2520    5.8022   -6.4161 H        1 ZINC000043208701    0.1200
52     H52    -6.5814    6.7277   -4.5615 H        1 ZINC000043208701    0.1200
53     H53    -6.5913    5.6012   -2.3719 H        1 ZINC000043208701    0.1200
@<TRIPOS>BOND
1     1     2     ar
2     2     3     ar
3     2     4     1
4     4     5     1
5     4     28    1
6     4     29    1
7     5     6     1
8     5     30    1
9     5     31    1
10    6     7     1
11    6     32    1
12    6     33    1
13    7     8     1
14    7     34    1
15    7     35    1
16    8     9     1
17    8     10    1
18    8     20    1
19    10    11    1
20    10    36    1
21    10    37    1
22    11    12    1
23    11    38    1
24    11    39    1
25    12    13    1
26    13    14    1
27    13    40    1
28    13    41    1
29    14    19    ar
30    14    15    ar
31    15    16    ar
32    15    42    1
33    16    17    ar
34    16    43    1
35    17    18    ar
36    17    44    1
37    18    19    ar
38    18    45    1
39    19    46    1
40    20    21    1
41    21    22    1
42    21    47    1
43    21    48    1
44    22    27    ar
45    22    23    ar
46    23    24    ar
47    23    49    1
48    24    25    ar
49    24    50    1
50    25    26    ar
51    25    51    1
52    26    27    ar
53    26    52    1
54    27    53    1
@<TRIPOS>SUBSTRUCTURE
1   ZINC000043208701 1     RESIDUE    1   A     ZIN   1
