@<TRIPOS>MOLECULE
ZINC000003954922
58    60    1     0     0
SMALL
USER_CHARGES
@<TRIPOS>ATOM
1      C1     -0.9106    1.4070   -0.7638 C.3      1 ZINC000003954922    0.0200
2      O2     -0.7314    0.0077   -0.5360 O.3      1 ZINC000003954922   -0.3800
3      C3     -1.9373   -0.6878   -0.2132 C.3      1 ZINC000003954922    0.2700
4      O4     -2.7279   -0.8435   -1.3934 O.3      1 ZINC000003954922   -0.3600
5      C5     -3.5933    0.2612   -1.6631 C.3      1 ZINC000003954922    0.0200
6      C6     -1.5945   -2.0658    0.3565 C.3      1 ZINC000003954922    0.1500
7      C7     -0.7954   -2.8653   -0.6746 C.3      1 ZINC000003954922   -0.1700
8      O8     -0.8255   -1.9150    1.5505 O.3      1 ZINC000003954922   -0.2900
9      C9     -0.6234   -3.0182    2.3193 C.ar     1 ZINC000003954922    0.0900
10     C10     0.3989   -2.9896    3.2621 C.ar     1 ZINC000003954922   -0.0900
11     C11     0.6353   -4.0853    4.0664 C.ar     1 ZINC000003954922   -0.1500
12     C12    -0.1507   -5.2223    3.9349 C.ar     1 ZINC000003954922    0.1900
13     N13     0.0840   -6.3355    4.7498 N.pl3    1 ZINC000003954922   -0.8800
14     C14    -1.1691   -5.2520    2.9932 C.ar     1 ZINC000003954922   -0.1500
15     C15    -1.4040   -4.1530    2.1848 C.ar     1 ZINC000003954922   -0.1300
16     C16    -2.5124   -4.2279    1.1652 C.3      1 ZINC000003954922    0.1400
17     H17    -2.1778   -4.8124    0.3081 H        1 ZINC000003954922    0.1300
18     N18    -3.6843   -4.8701    1.7655 N.pl3    1 ZINC000003954922   -0.7100
19     C19    -3.8505   -6.2309    1.6627 C.2      1 ZINC000003954922    0.6300
20     N20    -4.9544   -6.7851    2.0759 N.2      1 ZINC000003954922   -0.6100
21     C21    -5.0741   -8.2449    2.1068 C.3      1 ZINC000003954922    0.1100
22     C22    -5.2758   -8.7024    3.5284 C.ar     1 ZINC000003954922   -0.0800
23     C23    -4.1827   -9.0011    4.3200 C.ar     1 ZINC000003954922   -0.1100
24     C24    -4.3677   -9.4208    5.6241 C.ar     1 ZINC000003954922   -0.1200
25     C25    -5.6458   -9.5413    6.1366 C.ar     1 ZINC000003954922   -0.1200
26     C26    -6.7389   -9.2417    5.3453 C.ar     1 ZINC000003954922   -0.1200
27     C27    -6.5538   -8.8179    4.0426 C.ar     1 ZINC000003954922   -0.1000
28     N28    -2.8481   -7.0093    1.1220 N.pl3    1 ZINC000003954922   -0.6400
29     C29    -1.6465   -6.4573    0.8265 C.1      1 ZINC000003954922    0.3900
30     N30    -0.6390   -5.9946    0.5787 N.1      1 ZINC000003954922   -0.3800
31     C31    -2.8860   -2.8168    0.7048 C.3      1 ZINC000003954922    0.0900
32     H32    -3.4094   -2.2954    1.5062 H        1 ZINC000003954922    0.0700
33     O33    -3.7257   -2.8932   -0.4489 O.3      1 ZINC000003954922   -0.5200
34     H34     0.0626    1.8964   -0.8022 H        1 ZINC000003954922    0.0900
35     H35    -1.4305    1.5574   -1.7099 H        1 ZINC000003954922    0.0500
36     H36    -1.5006    1.8345    0.0469 H        1 ZINC000003954922    0.0400
37     H37    -2.4983   -0.1178    0.5274 H        1 ZINC000003954922    0.0600
38     H38    -4.3382    0.3410   -0.8713 H        1 ZINC000003954922    0.0400
39     H39    -3.0079    1.1797   -1.7050 H        1 ZINC000003954922    0.0500
40     H40    -4.0941    0.1056   -2.6187 H        1 ZINC000003954922    0.0900
41     H41     0.1256   -2.3333   -0.9126 H        1 ZINC000003954922    0.0800
42     H42    -0.5531   -3.8461   -0.2654 H        1 ZINC000003954922    0.0700
43     H43    -1.3896   -2.9863   -1.5804 H        1 ZINC000003954922    0.0900
44     H44     1.0107   -2.1055    3.3648 H        1 ZINC000003954922    0.1300
45     H45     1.4306   -4.0589    4.7966 H        1 ZINC000003954922    0.1300
46     H46     0.7966   -6.3134    5.4075 H        1 ZINC000003954922    0.4000
47     H47    -0.4659   -7.1291    4.6569 H        1 ZINC000003954922    0.3900
48     H48    -1.7810   -6.1360    2.8905 H        1 ZINC000003954922    0.1200
49     H49    -4.3430   -4.3352    2.2355 H        1 ZINC000003954922    0.4200
50     H50    -5.9270   -8.5524    1.5016 H        1 ZINC000003954922    0.0900
51     H51    -4.1644   -8.6926    1.7066 H        1 ZINC000003954922    0.0400
52     H52    -3.1841   -8.9070    3.9196 H        1 ZINC000003954922    0.1100
53     H53    -3.5136   -9.6549    6.2423 H        1 ZINC000003954922    0.1200
54     H54    -5.7904   -9.8699    7.1552 H        1 ZINC000003954922    0.1200
55     H55    -7.7375   -9.3362    5.7456 H        1 ZINC000003954922    0.1200
56     H56    -7.4078   -8.5838    3.4243 H        1 ZINC000003954922    0.1200
57     H57    -3.0035   -7.9518    0.9534 H        1 ZINC000003954922    0.4400
58     H58    -4.5531   -3.3717   -0.3022 H        1 ZINC000003954922    0.3800
@<TRIPOS>BOND
1     1     2     1
2     1     34    1
3     1     35    1
4     1     36    1
5     2     3     1
6     3     4     1
7     3     6     1
8     3     37    1
9     4     5     1
10    5     38    1
11    5     39    1
12    5     40    1
13    6     31    1
14    6     7     1
15    6     8     1
16    7     41    1
17    7     42    1
18    7     43    1
19    8     9     1
20    9     15    ar
21    9     10    ar
22    10    11    ar
23    10    44    1
24    11    12    ar
25    11    45    1
26    12    13    1
27    12    14    ar
28    13    46    1
29    13    47    1
30    14    15    ar
31    14    48    1
32    15    16    1
33    16    17    1
34    16    18    1
35    16    31    1
36    18    19    1
37    18    49    1
38    19    20    2
39    19    28    1
40    20    21    1
41    21    22    1
42    21    50    1
43    21    51    1
44    22    27    ar
45    22    23    ar
46    23    24    ar
47    23    52    1
48    24    25    ar
49    24    53    1
50    25    26    ar
51    25    54    1
52    26    27    ar
53    26    55    1
54    27    56    1
55    28    29    1
56    28    57    1
57    29    30    3
58    31    32    1
59    31    33    1
60    33    58    1
@<TRIPOS>SUBSTRUCTURE
1   ZINC000003954922 1     RESIDUE    1   A     ZIN   1
