@<TRIPOS>MOLECULE
ZINC000004217234
  39   42    0    0    0
SMALL
USER_CHARGES
NO_NAME
@<TRIPOS>ATOM
    1 O1       -0.3225     0.2197    -0.1563 O.2    1 <0>      -0.4800
    2 C2       -0.1415     1.4063     0.0175 C.2    1 <0>       0.5400
    3 N3       -1.0856     2.3297     0.2656 N.am   1 <0>      -0.6600
    4 C4       -0.5473     3.6080     0.4176 C.ar   1 <0>       0.1500
    5 C5       -1.1625     4.8301     0.6801 C.ar   1 <0>      -0.1400
    6 C6       -0.4045     5.9781     0.7881 C.ar   1 <0>      -0.0800
    7 C7        0.9688     5.9258     0.6370 C.ar   1 <0>      -0.1400
    8 C8        1.5873     4.7151     0.3760 C.ar   1 <0>      -0.0600
    9 C9        0.8335     3.5686     0.2678 C.ar   1 <0>      -0.1300
   10 C10       1.1912     2.1244     0.0021 C.3    1 <0>       0.0400
   11 C11       2.0909     1.5947     1.0888 C.ar   1 <0>      -0.0700
   12 C12       1.6397     0.5972     1.9333 C.ar   1 <0>      -0.0900
   13 C13       2.4625     0.1099     2.9302 C.ar   1 <0>      -0.1400
   14 C14       3.7427     0.6220     3.0835 C.ar   1 <0>       0.1100
   15 O15       4.5542     0.1440     4.0632 O.3    1 <0>      -0.5000
   16 C16       4.1932     1.6226     2.2346 C.ar   1 <0>      -0.1400
   17 C17       3.3683     2.1031     1.2362 C.ar   1 <0>      -0.0800
   18 C18       1.8497     1.9829    -1.3460 C.ar   1 <0>      -0.0800
   19 C19       1.9376     3.0752    -2.1892 C.ar   1 <0>      -0.0900
   20 C20       2.5407     2.9482    -3.4255 C.ar   1 <0>      -0.1500
   21 C21       3.0589     1.7235    -3.8206 C.ar   1 <0>       0.1100
   22 O22       3.6531     1.5960    -5.0362 O.3    1 <0>      -0.5000
   23 C23       2.9699     0.6291    -2.9726 C.ar   1 <0>      -0.1400
   24 C24       2.3701     0.7625    -1.7353 C.ar   1 <0>      -0.0700
   25 H25      -2.0326     2.1306     0.3312 H      1 <0>       0.4200
   26 H26      -2.2348     4.8792     0.7990 H      1 <0>       0.1300
   27 H27      -0.8868     6.9228     0.9914 H      1 <0>       0.1300
   28 H28       1.5575     6.8272     0.7221 H      1 <0>       0.1300
   29 H29       2.6598     4.6703     0.2570 H      1 <0>       0.1300
   30 H30       0.6430     0.1988     1.8135 H      1 <0>       0.1300
   31 H31       2.1093    -0.6688     3.5900 H      1 <0>       0.1300
   32 H32       5.1003    -0.6060     3.7905 H      1 <0>       0.3900
   33 H33       5.1893     2.0231     2.3521 H      1 <0>       0.1300
   34 H34       3.7187     2.8817     0.5749 H      1 <0>       0.1300
   35 H35       1.5340     4.0285    -1.8811 H      1 <0>       0.1300
   36 H36       2.6085     3.8015    -4.0840 H      1 <0>       0.1300
   37 H37       4.6038     1.7730    -5.0297 H      1 <0>       0.3900
   38 H38       3.3722    -0.3255    -3.2780 H      1 <0>       0.1300
   39 H39       2.3008    -0.0890    -1.0746 H      1 <0>       0.1300
@<TRIPOS>BOND
   1    1    2 2
   2    2   10 1
   3    2    3 am
   4    3    4 1
   5    3   25 1
   6    4    9 ar
   7    4    5 ar
   8    5    6 ar
   9    5   26 1
  10    6    7 ar
  11    6   27 1
  12    7    8 ar
  13    7   28 1
  14    8    9 ar
  15    8   29 1
  16    9   10 1
  17   10   11 1
  18   10   18 1
  19   11   17 ar
  20   11   12 ar
  21   12   13 ar
  22   12   30 1
  23   13   14 ar
  24   13   31 1
  25   14   15 1
  26   14   16 ar
  27   15   32 1
  28   16   17 ar
  29   16   33 1
  30   17   34 1
  31   18   24 ar
  32   18   19 ar
  33   19   20 ar
  34   19   35 1
  35   20   21 ar
  36   20   36 1
  37   21   22 1
  38   21   23 ar
  39   22   37 1
  40   23   24 ar
  41   23   38 1
  42   24   39 1
