@<TRIPOS>MOLECULE
ZINC000034377258
70    72    1     0     0
SMALL
USER_CHARGES
@<TRIPOS>ATOM
1      C1      2.3357    1.7287    0.1838 C.3      1 ZINC000034377258   -0.1500
2      C2      2.0166    0.2324    0.1747 C.3      1 ZINC000034377258   -0.1300
3      C3      2.4947   -0.3830   -1.1420 C.3      1 ZINC000034377258   -0.1200
4      C4      2.1756   -1.8793   -1.1511 C.3      1 ZINC000034377258   -0.1200
5      C5      2.6537   -2.4947   -2.4678 C.3      1 ZINC000034377258   -0.1200
6      C6      2.3346   -3.9910   -2.4769 C.3      1 ZINC000034377258   -0.1000
7      C7      2.8127   -4.6064   -3.7935 C.3      1 ZINC000034377258   -0.0200
8      C8      2.0994   -3.9257   -4.9634 C.3      1 ZINC000034377258   -0.1300
9      C9      4.3233   -4.4063   -3.9312 C.3      1 ZINC000034377258   -0.1300
10     C10     2.4984   -6.0803   -3.8025 C.ar     1 ZINC000034377258   -0.0200
11     C11     1.8643   -6.6568   -2.7188 C.ar     1 ZINC000034377258   -0.2600
12     C12     1.5732   -8.0139   -2.7248 C.ar     1 ZINC000034377258    0.2900
13     O13     0.9491   -8.5802   -1.6586 O.3      1 ZINC000034377258   -0.7100
14     C14     1.9192   -8.7910   -3.8191 C.ar     1 ZINC000034377258   -0.2300
15     C15     1.6039  -10.2646   -3.8283 C.3      1 ZINC000034377258    0.0100
16     H16     2.0448  -10.7247   -4.7126 H        1 ZINC000034377258    0.0600
17     C17     2.1855  -10.9202   -2.5667 C.3      1 ZINC000034377258   -0.1700
18     C18     1.4454  -12.2338   -2.3583 C.2      1 ZINC000034377258    0.3900
19     O19     1.9984  -13.2476   -2.0051 O.2      1 ZINC000034377258   -0.4900
20     C20    -0.0566  -12.1621   -2.6327 C.3      1 ZINC000034377258   -0.1700
21     H21    -0.6575  -12.9263   -2.1397 H        1 ZINC000034377258    0.0900
22     C22    -0.5136  -10.6935   -2.4559 C.3      1 ZINC000034377258   -0.1400
23     C23     0.0831  -10.4614   -3.8546 C.3      1 ZINC000034377258   -0.0700
24     H24    -0.4498   -9.7273   -4.4588 H        1 ZINC000034377258    0.0800
25     C25    -0.3028  -11.9537   -4.1412 C.3      1 ZINC000034377258   -0.0800
26     C26     0.6880  -12.6844   -5.0496 C.3      1 ZINC000034377258   -0.1400
27     C27    -1.7599  -12.1442   -4.5670 C.3      1 ZINC000034377258   -0.1200
28     C28     2.5556   -8.2101   -4.9057 C.ar     1 ZINC000034377258    0.1300
29     O29     2.8957   -8.9691   -5.9803 O.3      1 ZINC000034377258   -0.3000
30     C30     1.9017   -9.3243   -6.8174 C.2      1 ZINC000034377258    0.4900
31     O31     0.7800   -8.8915   -6.6464 O.2      1 ZINC000034377258   -0.5000
32     C32     2.1762  -10.2404   -7.9435 C.2      1 ZINC000034377258   -0.1800
33     C33     1.1851  -10.5945   -8.7782 C.2      1 ZINC000034377258   -0.1000
34     C34     1.4592  -11.5089   -9.9021 C.2      1 ZINC000034377258    0.5100
35     O35     2.5886  -11.9448  -10.0743 O.co2    1 ZINC000034377258   -0.6800
36     O36     0.5570  -11.8313  -10.6619 O.co2    1 ZINC000034377258   -0.6900
37     C37     2.8397   -6.8517   -4.8971 C.ar     1 ZINC000034377258   -0.2500
38     H38     3.4119    1.8713    0.0858 H        1 ZINC000034377258    0.0500
39     H39     1.8275    2.2137   -0.6496 H        1 ZINC000034377258    0.0500
40     H40     1.9951    2.1672    1.1218 H        1 ZINC000034377258    0.0500
41     H41     2.5248   -0.2526    1.0081 H        1 ZINC000034377258    0.0600
42     H42     0.9404    0.0898    0.2727 H        1 ZINC000034377258    0.0600
43     H43     1.9865    0.1020   -1.9754 H        1 ZINC000034377258    0.0600
44     H44     3.5709   -0.2404   -1.2400 H        1 ZINC000034377258    0.0600
45     H45     2.6838   -2.3643   -0.3177 H        1 ZINC000034377258    0.0600
46     H46     1.0994   -2.0219   -1.0531 H        1 ZINC000034377258    0.0600
47     H47     2.1455   -2.0097   -3.3012 H        1 ZINC000034377258    0.0600
48     H48     3.7299   -2.3521   -2.5658 H        1 ZINC000034377258    0.0600
49     H49     2.8428   -4.4760   -1.6435 H        1 ZINC000034377258    0.0600
50     H50     1.2584   -4.1336   -2.3788 H        1 ZINC000034377258    0.0600
51     H51     2.3267   -2.8597   -4.9569 H        1 ZINC000034377258    0.0500
52     H52     2.4400   -4.3641   -5.9014 H        1 ZINC000034377258    0.0500
53     H53     1.0232   -4.0683   -4.8654 H        1 ZINC000034377258    0.0500
54     H54     4.8315   -4.8913   -3.0977 H        1 ZINC000034377258    0.0500
55     H55     4.6639   -4.8447   -4.8692 H        1 ZINC000034377258    0.0500
56     H56     4.5506   -3.3403   -3.9247 H        1 ZINC000034377258    0.0500
57     H57     1.5952   -6.0510   -1.8662 H        1 ZINC000034377258    0.1000
58     H58     3.2496  -11.1117   -2.7051 H        1 ZINC000034377258    0.0700
59     H59     2.0338  -10.2683   -1.7064 H        1 ZINC000034377258    0.1400
60     H60    -1.5958  -10.5711   -2.4127 H        1 ZINC000034377258    0.0600
61     H61     0.0090  -10.1623   -1.6605 H        1 ZINC000034377258    0.1400
62     H62     1.6732  -12.6890   -4.5834 H        1 ZINC000034377258    0.0500
63     H63     0.3531  -13.7106   -5.2014 H        1 ZINC000034377258    0.0500
64     H64     0.7435  -12.1744   -6.0113 H        1 ZINC000034377258    0.0600
65     H65    -1.9481  -11.5803   -5.4807 H        1 ZINC000034377258    0.0600
66     H66    -1.9505  -13.2022   -4.7472 H        1 ZINC000034377258    0.0500
67     H67    -2.4193  -11.7858   -3.7765 H        1 ZINC000034377258    0.0600
68     H68     3.1738  -10.6253   -8.0955 H        1 ZINC000034377258    0.1400
69     H69     0.1876  -10.2096   -8.6261 H        1 ZINC000034377258    0.1100
70     H70     3.3350   -6.3986   -5.7432 H        1 ZINC000034377258    0.1000
@<TRIPOS>BOND
1     1     2     1
2     1     38    1
3     1     39    1
4     1     40    1
5     2     3     1
6     2     41    1
7     2     42    1
8     3     4     1
9     3     43    1
10    3     44    1
11    4     5     1
12    4     45    1
13    4     46    1
14    5     6     1
15    5     47    1
16    5     48    1
17    6     7     1
18    6     49    1
19    6     50    1
20    7     8     1
21    7     9     1
22    7     10    1
23    8     51    1
24    8     52    1
25    8     53    1
26    9     54    1
27    9     55    1
28    9     56    1
29    10    37    ar
30    10    11    ar
31    11    12    ar
32    11    57    1
33    12    13    1
34    12    14    ar
35    14    15    1
36    14    28    ar
37    15    16    1
38    15    23    1
39    15    17    1
40    17    18    1
41    17    58    1
42    17    59    1
43    18    19    2
44    18    20    1
45    20    21    1
46    20    25    1
47    20    22    1
48    22    23    1
49    22    60    1
50    22    61    1
51    23    24    1
52    23    25    1
53    25    26    1
54    25    27    1
55    26    62    1
56    26    63    1
57    26    64    1
58    27    65    1
59    27    66    1
60    27    67    1
61    28    29    1
62    28    37    ar
63    29    30    1
64    30    31    2
65    30    32    1
66    32    33    2
67    32    68    1
68    33    34    1
69    33    69    1
70    34    35    ar
71    34    36    ar
72    37    70    1
@<TRIPOS>SUBSTRUCTURE
1   ZINC000034377258 1     RESIDUE    1   A     ZIN   1
