@<TRIPOS>MOLECULE
ZINC000003775351
  51   55    0    0    0
SMALL
USER_CHARGES
NO_NAME
@<TRIPOS>ATOM
    1 C1       -0.0176     1.4478     0.0100 C.3    1 <0>       0.0300
    2 O2        0.0021    -0.0041     0.0020 O.3    1 <0>      -0.3500
    3 C3       -1.1909    -0.6325     0.0100 C.2    1 <0>       0.5400
    4 O4       -2.2195     0.0158     0.0233 O.2    1 <0>      -0.5000
    5 C5       -1.2478    -2.0988     0.0027 C.2    1 <0>      -0.2200
    6 C6       -1.2749    -2.9296     1.1054 C.2    1 <0>       0.1100
    7 C7       -1.2089    -2.3593     2.5050 C.3    1 <0>       0.2300
    8 H8       -0.1841    -2.0207     2.6569 H      1 <0>       0.1100
    9 C9       -2.0908    -1.1224     2.5478 C.3    1 <0>      -0.0200
   10 N10      -2.7562    -0.9519     3.8384 N.4    1 <0>      -0.3800
   11 H11      -2.0670    -0.8341     4.5660 H      1 <0>       0.4300
   12 C12      -3.6384     0.2219     3.7931 C.3    1 <0>      -0.0400
   13 C13      -3.5516    -2.1683     4.0944 C.3    1 <0>      -0.0100
   14 C14      -2.5701    -3.2708     4.4868 C.3    1 <0>       0.1100
   15 N15      -1.4807    -3.3432     3.5215 N.pl3  1 <0>      -0.6600
   16 C16      -0.6081    -4.4313     3.6503 C.ar   1 <0>       0.1600
   17 C17       0.1727    -4.5148     4.8030 C.ar   1 <0>      -0.1300
   18 C18       1.0928    -5.5340     4.9402 C.ar   1 <0>      -0.0900
   19 C19       1.2479    -6.4702     3.9344 C.ar   1 <0>      -0.1100
   20 C20       0.4573    -6.4034     2.8014 C.ar   1 <0>      -0.0800
   21 C21      -0.4887    -5.4025     2.6788 C.ar   1 <0>      -0.1200
   22 C22      -1.4520    -5.4273     1.5268 C.3    1 <0>       0.1500
   23 N23      -1.3449    -4.2174     0.7124 N.pl3  1 <0>      -0.4400
   24 C24      -1.3443    -4.2799    -0.6696 C.ar   1 <0>       0.0900
   25 C25      -1.4098    -5.3717    -1.5316 C.ar   1 <0>      -0.1200
   26 C26      -1.3937    -5.0970    -2.8895 C.ar   1 <0>      -0.0900
   27 C27      -1.3157    -3.8050    -3.3801 C.ar   1 <0>      -0.1200
   28 C28      -1.2488    -2.7054    -2.5403 C.ar   1 <0>      -0.0700
   29 C29      -1.2933    -2.9635    -1.1700 C.ar   1 <0>      -0.0600
   30 H30       1.0050     1.8251     0.0023 H      1 <0>       0.1100
   31 H31      -0.5448     1.8089    -0.8731 H      1 <0>       0.0700
   32 H32      -0.5278     1.7993     0.9068 H      1 <0>       0.0600
   33 H33      -1.4762    -0.2444     2.3495 H      1 <0>       0.1400
   34 H34      -2.8487    -1.2029     1.7686 H      1 <0>       0.1500
   35 H35      -4.3900     0.0816     3.0163 H      1 <0>       0.1300
   36 H36      -4.1311     0.3434     4.7578 H      1 <0>       0.1300
   37 H37      -3.0486     1.1114     3.5717 H      1 <0>       0.1300
   38 H38      -4.2539    -1.9887     4.9084 H      1 <0>       0.1500
   39 H39      -4.0921    -2.4555     3.1924 H      1 <0>       0.1400
   40 H40      -2.1676    -3.0580     5.4772 H      1 <0>       0.0900
   41 H41      -3.0936    -4.2266     4.5099 H      1 <0>       0.1100
   42 H42       0.0576    -3.7818     5.5877 H      1 <0>       0.1300
   43 H43       1.6935    -5.6005     5.8352 H      1 <0>       0.1300
   44 H44       1.9859    -7.2524     4.0332 H      1 <0>       0.1400
   45 H45       0.5788    -7.1321     2.0136 H      1 <0>       0.1300
   46 H46      -1.2294    -6.2899     0.8987 H      1 <0>       0.1100
   47 H47      -2.4653    -5.5278     1.9157 H      1 <0>       0.0900
   48 H48      -1.4699    -6.3838    -1.1596 H      1 <0>       0.1400
   49 H49      -1.4434    -5.9185    -3.5888 H      1 <0>       0.1300
   50 H50      -1.3064    -3.6498    -4.4488 H      1 <0>       0.1300
   51 H51      -1.1876    -1.6988    -2.9269 H      1 <0>       0.1300
@<TRIPOS>BOND
   1    1    2 1
   2    1   30 1
   3    1   31 1
   4    1   32 1
   5    2    3 1
   6    3    4 2
   7    3    5 1
   8    5   29 1
   9    5    6 2
  10    6   23 1
  11    6    7 1
  12    7    8 1
  13    7   15 1
  14    7    9 1
  15    9   10 1
  16    9   33 1
  17    9   34 1
  18   10   11 1
  19   10   12 1
  20   10   13 1
  21   12   35 1
  22   12   36 1
  23   12   37 1
  24   13   14 1
  25   13   38 1
  26   13   39 1
  27   14   15 1
  28   14   40 1
  29   14   41 1
  30   15   16 1
  31   16   21 ar
  32   16   17 ar
  33   17   18 ar
  34   17   42 1
  35   18   19 ar
  36   18   43 1
  37   19   20 ar
  38   19   44 1
  39   20   21 ar
  40   20   45 1
  41   21   22 1
  42   22   23 1
  43   22   46 1
  44   22   47 1
  45   23   24 1
  46   24   29 ar
  47   24   25 ar
  48   25   26 ar
  49   25   48 1
  50   26   27 ar
  51   26   49 1
  52   27   28 ar
  53   27   50 1
  54   28   29 ar
  55   28   51 1
