@<TRIPOS>MOLECULE
ZINC000000895045
11    11    1     0     0
SMALL
USER_CHARGES
@<TRIPOS>ATOM
1      O1      0.0021   -0.0041    0.0020 O.2      1 ZINC000000895045   -0.6100
2      C2     -0.0144    1.2136    0.0087 C.2      1 ZINC000000895045    0.5100
3      C3     -1.2461    1.9113    0.0302 C.2      1 ZINC000000895045   -0.3300
4      C4     -1.2363    3.2615    0.0376 C.2      1 ZINC000000895045    0.1300
5      N5     -0.0428    3.9305    0.0245 N.am     1 ZINC000000895045   -0.6700
6      C6      1.1209    3.2557    0.0037 C.2      1 ZINC000000895045    0.6400
7      O7      2.1700    3.8702   -0.0081 O.2      1 ZINC000000895045   -0.6200
8      N8      1.1403    1.9098    0.0014 N.pl3    1 ZINC000000895045   -0.7000
9      H9     -2.1811    1.3708    0.0400 H        1 ZINC000000895045    0.1200
10     H10    -2.1661    3.8107    0.0536 H        1 ZINC000000895045    0.1400
11     H11    -0.0357    4.9005    0.0299 H        1 ZINC000000895045    0.3900
@<TRIPOS>BOND
1     1     2     2
2     2     8     1
3     2     3     1
4     3     4     2
5     3     9     1
6     4     5     1
7     4     10    1
8     5     6     am
9     5     11    1
10    6     7     2
11    6     8     1
@<TRIPOS>SUBSTRUCTURE
1   ZINC000000895045 1     RESIDUE    1   A     ZIN   1
