@<TRIPOS>MOLECULE
ZINC000043151225
55    58    1     0     0
SMALL
USER_CHARGES
@<TRIPOS>ATOM
1      C1     -0.0173    1.4248    0.0099 C.3      1 ZINC000043151225    0.0200
2      O2      0.0021   -0.0041    0.0020 O.3      1 ZINC000043151225   -0.2900
3      C3      0.6255   -0.6181    1.0410 C.ar     1 ZINC000043151225    0.1700
4      C4      0.6794   -2.0172    1.0873 C.ar     1 ZINC000043151225    0.1200
5      C5      1.2986   -2.6518    2.1295 C.ar     1 ZINC000043151225   -0.1500
6      C6      1.8753   -1.8986    3.1578 C.ar     1 ZINC000043151225   -0.1900
7      C7      1.8411   -0.4858    3.1103 C.ar     1 ZINC000043151225    0.2000
8      C8      1.1999    0.1438    2.0361 C.ar     1 ZINC000043151225   -0.1800
9      N9      2.4306    0.2006    4.1028 N.ar     1 ZINC000043151225   -0.5200
10     C10     3.0119   -0.4362    5.0946 C.ar     1 ZINC000043151225    0.3500
11     N11     3.0506   -1.7583    5.1845 N.ar     1 ZINC000043151225   -0.5600
12     C12     2.5050   -2.5271    4.2692 C.ar     1 ZINC000043151225    0.4600
13     N13     2.4883   -3.9159    4.3002 N.pl3    1 ZINC000043151225   -0.6500
14     C14     3.2456   -4.6581    5.2132 C.ar     1 ZINC000043151225    0.2200
15     C15     4.2009   -4.0773    6.0277 C.ar     1 ZINC000043151225   -0.1200
16     C16     4.9255   -4.8536    6.9162 C.ar     1 ZINC000043151225   -0.0300
17     Br17    6.2256   -4.0515    8.0291 Br       1 ZINC000043151225   -0.0100
18     C18     4.6998   -6.2168    6.9859 C.ar     1 ZINC000043151225   -0.1200
19     C19     3.7566   -6.8054    6.1653 C.ar     1 ZINC000043151225   -0.0700
20     C20     3.0324   -6.0357    5.2741 C.ar     1 ZINC000043151225   -0.2000
21     C21     2.0173   -6.6967    4.3786 C.3      1 ZINC000043151225    0.0400
22     N22     2.6824   -7.5291    3.3724 N.4      1 ZINC000043151225   -0.3800
23     H23     3.1105   -8.3155    3.8805 H        1 ZINC000043151225    0.4300
24     C24     3.7694   -6.7943    2.7298 C.3      1 ZINC000043151225   -0.0600
25     C25     1.7318   -8.0957    2.4259 C.3      1 ZINC000043151225   -0.0200
26     C26     1.4980   -7.2830    1.1638 C.3      1 ZINC000043151225   -0.1500
27     C27     0.4878   -6.1587    1.4060 C.3      1 ZINC000043151225   -0.1300
28     C28     0.5726   -5.1439    0.2611 C.3      1 ZINC000043151225   -0.1600
29     C29    -0.4469   -4.0251    0.4786 C.3      1 ZINC000043151225    0.0500
30     O30     0.1202   -2.7678    0.1017 O.3      1 ZINC000043151225   -0.3000
31     H31     1.0053    1.8021    0.0021 H        1 ZINC000043151225    0.0700
32     H32    -0.5445    1.7859   -0.8732 H        1 ZINC000043151225    0.1100
33     H33    -0.5275    1.7763    0.9067 H        1 ZINC000043151225    0.0700
34     H34     1.3437   -3.7297    2.1489 H        1 ZINC000043151225    0.1300
35     H35     1.1559    1.2219    1.9867 H        1 ZINC000043151225    0.1600
36     H36     3.4800    0.1466    5.8742 H        1 ZINC000043151225    0.2100
37     H37     1.9235   -4.3863    3.6542 H        1 ZINC000043151225    0.4100
38     H38     4.4022   -3.0185    5.9742 H        1 ZINC000043151225    0.1800
39     H39     5.2619   -6.8219    7.6812 H        1 ZINC000043151225    0.1500
40     H40     3.5818   -7.8704    6.2196 H        1 ZINC000043151225    0.1400
41     H41     1.3776   -7.3401    4.9952 H        1 ZINC000043151225    0.1500
42     H42     1.3907   -5.9544    3.9015 H        1 ZINC000043151225    0.1200
43     H43     4.5014   -6.4978    3.4810 H        1 ZINC000043151225    0.1300
44     H44     4.2490   -7.4313    1.9866 H        1 ZINC000043151225    0.1300
45     H45     3.3687   -5.9055    2.2424 H        1 ZINC000043151225    0.1100
46     H46     2.0824   -9.0999    2.1372 H        1 ZINC000043151225    0.1400
47     H47     0.7680   -8.2412    2.9371 H        1 ZINC000043151225    0.1300
48     H48     2.4017   -6.8909    0.7188 H        1 ZINC000043151225    0.1000
49     H49     1.0555   -7.9597    0.4048 H        1 ZINC000043151225    0.1100
50     H50    -0.5190   -6.5796    1.4365 H        1 ZINC000043151225    0.0900
51     H51     0.6998   -5.6587    2.3464 H        1 ZINC000043151225    0.0500
52     H52     1.5761   -4.7199    0.2289 H        1 ZINC000043151225    0.0800
53     H53     0.3626   -5.6470   -0.6828 H        1 ZINC000043151225    0.0900
54     H54    -1.3313   -4.2190   -0.1305 H        1 ZINC000043151225    0.1100
55     H55    -0.7354   -3.9943    1.5292 H        1 ZINC000043151225    0.0700
@<TRIPOS>BOND
1     1     2     1
2     1     31    1
3     1     32    1
4     1     33    1
5     2     3     1
6     3     8     ar
7     3     4     ar
8     4     30    1
9     4     5     ar
10    5     6     ar
11    5     34    1
12    6     12    ar
13    6     7     ar
14    7     8     ar
15    7     9     ar
16    8     35    1
17    9     10    ar
18    10    11    ar
19    10    36    1
20    11    12    ar
21    12    13    1
22    13    14    1
23    13    37    1
24    14    20    ar
25    14    15    ar
26    15    16    ar
27    15    38    1
28    16    17    1
29    16    18    ar
30    18    19    ar
31    18    39    1
32    19    20    ar
33    19    40    1
34    20    21    1
35    21    22    1
36    21    41    1
37    21    42    1
38    22    23    1
39    22    24    1
40    22    25    1
41    24    43    1
42    24    44    1
43    24    45    1
44    25    26    1
45    25    46    1
46    25    47    1
47    26    27    1
48    26    48    1
49    26    49    1
50    27    28    1
51    27    50    1
52    27    51    1
53    28    29    1
54    28    52    1
55    28    53    1
56    29    30    1
57    29    54    1
58    29    55    1
@<TRIPOS>SUBSTRUCTURE
1   ZINC000043151225 1     RESIDUE    1   A     ZIN   1
