@<TRIPOS>MOLECULE
ZINC000000005871
  49   51    0    0    0
SMALL
USER_CHARGES
NO_NAME
@<TRIPOS>ATOM
    1 C1       -0.0858     1.4257    -0.0221 C.3    1 <0>       0.0300
    2 O2       -0.0436    -0.0026    -0.0091 O.3    1 <0>      -0.3100
    3 C3       -1.2152    -0.6570    -0.2294 C.ar   1 <0>       0.1000
    4 C4       -2.3782     0.0599    -0.4587 C.ar   1 <0>      -0.1700
    5 C5       -3.5686    -0.6071    -0.6830 C.ar   1 <0>      -0.1000
    6 C6       -3.6016    -1.9888    -0.6786 C.ar   1 <0>      -0.0700
    7 C7       -4.9018    -2.7105    -0.9232 C.3    1 <0>       0.0800
    8 C8       -4.7725    -3.5638    -2.1156 C.1    1 <0>       0.2400
    9 N9       -4.6728    -4.2223    -3.0359 N.1    1 <0>      -0.4500
   10 C10      -5.2395    -3.5783     0.2908 C.3    1 <0>      -0.1000
   11 C11      -6.5594    -4.3111     0.0425 C.3    1 <0>      -0.0900
   12 C12      -7.6760    -3.2891    -0.1802 C.3    1 <0>      -0.1600
   13 C13      -7.8083    -2.4155     1.0406 C.2    1 <0>       0.5000
   14 O14      -8.1910    -1.2635     0.9273 O.co2  1 <0>      -0.7000
   15 O15      -7.5327    -2.8608     2.1416 O.co2  1 <0>      -0.7000
   16 C16      -7.3383    -2.4212    -1.3942 C.3    1 <0>      -0.0900
   17 C17      -6.0184    -1.6885    -1.1459 C.3    1 <0>      -0.1000
   18 C18      -2.4442    -2.7104    -0.4508 C.ar   1 <0>      -0.1600
   19 C19      -1.2474    -2.0485    -0.2307 C.ar   1 <0>       0.1000
   20 O20      -0.1082    -2.7567    -0.0065 O.3    1 <0>      -0.3000
   21 C21      -0.2382    -4.1752     0.1085 C.3    1 <0>       0.0800
   22 C22      -0.1117    -4.8456    -1.2820 C.3    1 <0>      -0.1500
   23 C23       0.3318    -6.2867    -0.9275 C.3    1 <0>      -0.1200
   24 C24       1.2987    -6.1035     0.2605 C.3    1 <0>      -0.1200
   25 C25       0.9363    -4.7609     0.9192 C.3    1 <0>      -0.1200
   26 H26       0.9126     1.8205     0.1662 H      1 <0>       0.1000
   27 H27      -0.4351     1.7700    -0.9955 H      1 <0>       0.0500
   28 H28      -0.7673     1.7761     0.7532 H      1 <0>       0.0600
   29 H29      -2.3552     1.1396    -0.4619 H      1 <0>       0.1400
   30 H30      -4.4746    -0.0470    -0.8617 H      1 <0>       0.1400
   31 H31      -4.4440    -4.3064     0.4495 H      1 <0>       0.0600
   32 H32      -5.3351    -2.9465     1.1738 H      1 <0>       0.1000
   33 H33      -6.4637    -4.9430    -0.8405 H      1 <0>       0.0400
   34 H34      -6.8000    -4.9294     0.9074 H      1 <0>       0.0700
   35 H35      -8.6164    -3.8111    -0.3571 H      1 <0>       0.0600
   36 H36      -7.2426    -3.0531    -2.2772 H      1 <0>       0.0400
   37 H37      -8.1338    -1.6931    -1.5529 H      1 <0>       0.0700
   38 H38      -6.1140    -1.0566    -0.2629 H      1 <0>       0.1000
   39 H39      -5.7778    -1.0702    -2.0108 H      1 <0>       0.0600
   40 H40      -2.4727    -3.7900    -0.4479 H      1 <0>       0.1300
   41 H41      -1.1894    -4.4337     0.5739 H      1 <0>       0.0800
   42 H42      -1.0728    -4.8527    -1.7962 H      1 <0>       0.0700
   43 H43       0.6464    -4.3453    -1.8846 H      1 <0>       0.0800
   44 H44      -0.5274    -6.8882    -0.6308 H      1 <0>       0.0700
   45 H45       0.8469    -6.7457    -1.7713 H      1 <0>       0.0700
   46 H46       1.1706    -6.9166     0.9750 H      1 <0>       0.0700
   47 H47       2.3283    -6.0783    -0.0965 H      1 <0>       0.0700
   48 H48       1.7900    -4.0842     0.8819 H      1 <0>       0.0800
   49 H49       0.6323    -4.9225     1.9534 H      1 <0>       0.0700
@<TRIPOS>BOND
   1    1    2 1
   2    1   26 1
   3    1   27 1
   4    1   28 1
   5    2    3 1
   6    3   19 ar
   7    3    4 ar
   8    4    5 ar
   9    4   29 1
  10    5    6 ar
  11    5   30 1
  12    6    7 1
  13    6   18 ar
  14    7   17 1
  15    7    8 1
  16    7   10 1
  17    8    9 3
  18   10   11 1
  19   10   31 1
  20   10   32 1
  21   11   12 1
  22   11   33 1
  23   11   34 1
  24   12   13 1
  25   12   16 1
  26   12   35 1
  27   13   14 ar
  28   13   15 ar
  29   16   17 1
  30   16   36 1
  31   16   37 1
  32   17   38 1
  33   17   39 1
  34   18   19 ar
  35   18   40 1
  36   19   20 1
  37   20   21 1
  38   21   25 1
  39   21   22 1
  40   21   41 1
  41   22   23 1
  42   22   42 1
  43   22   43 1
  44   23   24 1
  45   23   44 1
  46   23   45 1
  47   24   25 1
  48   24   46 1
  49   24   47 1
  50   25   48 1
  51   25   49 1
