@<TRIPOS>MOLECULE
ZINC000067802526
  50   53    0    0    0
SMALL
USER_CHARGES
NO_NAME
@<TRIPOS>ATOM
    1 C1       -0.0187     1.5258     0.0104 C.3    1 <0>      -0.1700
    2 C2        0.0021    -0.0041     0.0020 C.3    1 <0>       0.1000
    3 C3        0.7182    -0.4975    -1.2568 C.3    1 <0>      -0.1500
    4 O4        0.7043    -0.4851     1.1784 O.3    1 <0>      -0.3700
    5 C5       -0.0331    -0.7049     2.2832 C.2    1 <0>       0.6500
    6 O6       -1.2307    -0.5004     2.2649 O.2    1 <0>      -0.5700
    7 N7        0.5572    -1.1518     3.4094 N.am   1 <0>      -0.7000
    8 C8       -0.2452    -1.3910     4.6116 C.3    1 <0>       0.1700
    9 H9       -1.0594    -0.6700     4.6844 H      1 <0>       0.1200
   10 C10      -0.7846    -2.8380     4.6370 C.3    1 <0>      -0.0600
   11 C11       0.2495    -3.6251     5.4117 C.2    1 <0>      -0.1800
   12 C12       1.0465    -2.8024     6.1076 C.2    1 <0>       0.0700
   13 C13       0.6358    -1.3592     5.8791 C.3    1 <0>      -0.0500
   14 N14       1.9774    -3.5404     6.8010 N.pl3  1 <0>      -0.4500
   15 C15       3.0133    -2.9790     7.6716 C.3    1 <0>       0.1600
   16 C16       2.4813    -2.8655     9.0769 C.ar   1 <0>       0.1000
   17 C17       3.1723    -3.4548    10.1184 C.ar   1 <0>      -0.1600
   18 C18       2.6745    -3.3442    11.4079 C.ar   1 <0>      -0.0700
   19 C19       1.4951    -2.6418    11.6019 C.ar   1 <0>      -0.1700
   20 C20       0.8591    -2.0791    10.5112 C.ar   1 <0>       0.1000
   21 N21       1.3644    -2.2004     9.2993 N.ar   1 <0>      -0.4700
   22 C22       1.7943    -4.8797     6.5597 C.ar   1 <0>       0.1400
   23 C23       2.4483    -6.0285     7.0006 C.ar   1 <0>      -0.1300
   24 C24       2.0327    -7.2582     6.5827 C.ar   1 <0>      -0.0500
   25 C25       0.9456    -7.3866     5.7069 C.ar   1 <0>      -0.0600
   26 C26       0.5212    -8.6854     5.2783 C.1    1 <0>       0.2600
   27 N27       0.1845    -9.7157     4.9384 N.1    1 <0>      -0.4200
   28 C28       0.2781    -6.2518     5.2539 C.ar   1 <0>      -0.0100
   29 C29       0.7022    -4.9954     5.6790 C.ar   1 <0>      -0.0900
   30 H30       1.0039     1.9031     0.0027 H      1 <0>       0.0700
   31 H31      -0.5459     1.8868    -0.8726 H      1 <0>       0.0800
   32 H32      -0.5289     1.8773     0.9072 H      1 <0>       0.0600
   33 H33      -1.0205    -0.3814     0.0098 H      1 <0>       0.0900
   34 H34       1.7408    -0.1202    -1.2645 H      1 <0>       0.0700
   35 H35       0.7330    -1.5874    -1.2628 H      1 <0>       0.0700
   36 H36       0.1910    -0.1364    -2.1398 H      1 <0>       0.0800
   37 H37       1.5132    -1.3150     3.4240 H      1 <0>       0.4100
   38 H38      -1.7481    -2.8745     5.1454 H      1 <0>       0.0900
   39 H39      -0.8753    -3.2266     3.6227 H      1 <0>       0.0800
   40 H40       1.5152    -0.7368     5.7139 H      1 <0>       0.0800
   41 H41       0.0633    -0.9892     6.7296 H      1 <0>       0.1100
   42 H42       3.8863    -3.6317     7.6651 H      1 <0>       0.1100
   43 H43       3.2960    -1.9906     7.3092 H      1 <0>       0.1100
   44 H44       4.0884    -3.9951     9.9304 H      1 <0>       0.1400
   45 H45       3.1930    -3.7948    12.2413 H      1 <0>       0.1400
   46 H46       1.0783    -2.5359    12.5925 H      1 <0>       0.1400
   47 H47      -0.0603    -1.5307    10.6537 H      1 <0>       0.1600
   48 H48       3.2875    -5.9446     7.6752 H      1 <0>       0.1300
   49 H49       2.5465    -8.1425     6.9299 H      1 <0>       0.1400
   50 H50      -0.5602    -6.3451     4.5794 H      1 <0>       0.1300
@<TRIPOS>BOND
   1    1    2 1
   2    1   30 1
   3    1   31 1
   4    1   32 1
   5    2    3 1
   6    2    4 1
   7    2   33 1
   8    3   34 1
   9    3   35 1
  10    3   36 1
  11    4    5 1
  12    5    6 2
  13    5    7 am
  14    7    8 1
  15    7   37 1
  16    8    9 1
  17    8   13 1
  18    8   10 1
  19   10   11 1
  20   10   38 1
  21   10   39 1
  22   11   29 1
  23   11   12 2
  24   12   13 1
  25   12   14 1
  26   13   40 1
  27   13   41 1
  28   14   15 1
  29   14   22 1
  30   15   16 1
  31   15   42 1
  32   15   43 1
  33   16   21 ar
  34   16   17 ar
  35   17   18 ar
  36   17   44 1
  37   18   19 ar
  38   18   45 1
  39   19   20 ar
  40   19   46 1
  41   20   21 ar
  42   20   47 1
  43   22   29 ar
  44   22   23 ar
  45   23   24 ar
  46   23   48 1
  47   24   25 ar
  48   24   49 1
  49   25   26 1
  50   25   28 ar
  51   26   27 3
  52   28   29 ar
  53   28   50 1
