@<TRIPOS>MOLECULE
ZINC000006091575
30    31    1     0     0
SMALL
USER_CHARGES
@<TRIPOS>ATOM
1      N1     -0.0166    1.3714    0.0096 N.pl3    1 ZINC000006091575   -0.8200
2      C2      0.0021   -0.0041    0.0020 C.2      1 ZINC000006091575    0.5000
3      N3     -1.1354   -0.6867    0.0037 N.2      1 ZINC000006091575   -0.6200
4      C4     -1.1293   -2.0185   -0.0041 C.2      1 ZINC000006091575    0.6500
5      O5     -2.1886   -2.6233   -0.0028 O.2      1 ZINC000006091575   -0.4900
6      N6      0.0264   -2.7078   -0.0137 N.am     1 ZINC000006091575   -0.5400
7      C7      0.0011   -4.1726   -0.0226 C.3      1 ZINC000006091575    0.3000
8      H8      1.0141   -4.5599   -0.1315 H        1 ZINC000006091575    0.1200
9      O9     -0.8203   -4.6407   -1.1053 O.3      1 ZINC000006091575   -0.3400
10     C10    -1.4636   -5.8517   -0.6533 C.3      1 ZINC000006091575    0.0600
11     H11    -0.7735   -6.6940   -0.7018 H        1 ZINC000006091575    0.0900
12     C12    -2.7181   -6.1368   -1.4814 C.3      1 ZINC000006091575    0.0800
13     O13    -2.3425   -6.4379   -2.8269 O.3      1 ZINC000006091575   -0.5600
14     C14    -1.8365   -5.5357    0.8176 C.3      1 ZINC000006091575    0.0600
15     H15    -1.9230   -6.4515    1.4023 H        1 ZINC000006091575    0.0800
16     O16    -3.0440   -4.7744    0.8852 O.3      1 ZINC000006091575   -0.5200
17     C17    -0.6211   -4.6938    1.2873 C.3      1 ZINC000006091575    0.0800
18     H18    -0.9509   -3.8621    1.9100 H        1 ZINC000006091575    0.0900
19     O19     0.3088   -5.5122    1.9996 O.3      1 ZINC000006091575   -0.5500
20     C20     1.2200   -2.0505   -0.0158 C.2      1 ZINC000006091575    0.2000
21     C21     1.2303   -0.6965   -0.0134 C.2      1 ZINC000006091575   -0.3100
22     H22     0.8168    1.8678    0.0043 H        1 ZINC000006091575    0.4100
23     H23    -0.8631    1.8449    0.0162 H        1 ZINC000006091575    0.4100
24     H24    -3.2504   -6.9865   -1.0540 H        1 ZINC000006091575    0.0600
25     H25    -3.3662   -5.2604   -1.4726 H        1 ZINC000006091575    0.0700
26     H26    -3.0895   -6.6295   -3.4103 H        1 ZINC000006091575    0.3800
27     H27    -3.8158   -5.2276    0.5193 H        1 ZINC000006091575    0.3800
28     H28    -0.0534   -5.9121    2.8021 H        1 ZINC000006091575    0.3900
29     H29     2.1477   -2.6035   -0.0235 H        1 ZINC000006091575    0.1700
30     H30     2.1649   -0.1552   -0.0154 H        1 ZINC000006091575    0.1600
@<TRIPOS>BOND
1     1     2     1
2     1     22    1
3     1     23    1
4     2     21    1
5     2     3     2
6     3     4     1
7     4     5     2
8     4     6     am
9     6     7     1
10    6     20    1
11    7     8     1
12    7     17    1
13    7     9     1
14    9     10    1
15    10    11    1
16    10    12    1
17    10    14    1
18    12    13    1
19    12    24    1
20    12    25    1
21    13    26    1
22    14    15    1
23    14    16    1
24    14    17    1
25    16    27    1
26    17    18    1
27    17    19    1
28    19    28    1
29    20    21    2
30    20    29    1
31    21    30    1
@<TRIPOS>SUBSTRUCTURE
1   ZINC000006091575 1     RESIDUE    1   A     ZIN   1
