@<TRIPOS>MOLECULE
ZINC000073069252
56    60    1     0     0
SMALL
USER_CHARGES
@<TRIPOS>ATOM
1      C1     -0.0187    1.5258    0.0104 C.3      1 ZINC000073069252   -0.1500
2      C2      0.0021   -0.0041    0.0020 C.3      1 ZINC000073069252   -0.0700
3      C3      0.7074   -0.4901   -1.2379 C.ar     1 ZINC000073069252   -0.2200
4      C4      0.0023   -0.7237   -2.4080 C.ar     1 ZINC000073069252    0.1800
5      N5      0.6519   -1.1496   -3.4787 N.ar     1 ZINC000073069252   -0.5300
6      C6      1.9606   -1.3525   -3.4407 C.ar     1 ZINC000073069252    0.4900
7      N7      2.6085   -1.7985   -4.5796 N.3      1 ZINC000073069252   -0.4600
8      C8      2.0086   -3.0449   -5.0724 C.3      1 ZINC000073069252    0.0700
9      C9      2.6513   -3.4291   -6.4070 C.3      1 ZINC000073069252   -0.1100
10     C10     4.1588   -3.6099   -6.2086 C.3      1 ZINC000073069252   -0.0200
11     C11     4.8061   -3.9297   -7.5314 C.2      1 ZINC000073069252    0.0600
12     N12     5.4635   -5.0094   -7.7901 N.2      1 ZINC000073069252   -0.4700
13     C13     5.9662   -5.1310   -9.0022 C.2      1 ZINC000073069252    0.0600
14     C14     6.7546   -6.3381   -9.4405 C.3      1 ZINC000073069252    0.1400
15     O15     7.1616   -6.1733  -10.8004 O.3      1 ZINC000073069252   -0.3100
16     C16     7.8874   -7.1805  -11.3537 C.ar     1 ZINC000073069252    0.1500
17     C17     8.1959   -8.3063  -10.6036 C.ar     1 ZINC000073069252   -0.1900
18     C18     8.9335   -9.3294  -11.1652 C.ar     1 ZINC000073069252   -0.0600
19     C19     9.3662   -9.2318  -12.4806 C.ar     1 ZINC000073069252    0.0900
20     N20    10.1157  -10.2718  -13.0520 N.pl3    1 ZINC000073069252   -0.3200
21     C21    10.6135  -10.3307  -14.3059 C.2      1 ZINC000073069252    0.2200
22     N22    11.2440  -11.4704  -14.4203 N.2      1 ZINC000073069252   -0.3300
23     N23    11.1787  -12.1359  -13.3239 N.2      1 ZINC000073069252   -0.0300
24     N24    10.5145  -11.4730  -12.4396 N.2      1 ZINC000073069252   -0.0800
25     C25     9.0570   -8.1055  -13.2309 C.ar     1 ZINC000073069252   -0.0800
26     C26     8.3149   -7.0851  -12.6703 C.ar     1 ZINC000073069252   -0.1200
27     C27     5.7191   -4.0962   -9.8110 C.2      1 ZINC000073069252   -0.2400
28     S28     4.7694   -2.9176   -8.9090 S.3      1 ZINC000073069252    0.1500
29     C29     4.7512   -2.3135   -5.6493 C.3      1 ZINC000073069252   -0.1100
30     C30     4.0475   -1.9616   -4.3366 C.3      1 ZINC000073069252    0.0700
31     N31     2.6640   -1.1384   -2.3385 N.ar     1 ZINC000073069252   -0.5500
32     C32     2.0763   -0.7076   -1.2345 C.ar     1 ZINC000073069252    0.1800
33     H33     1.0039    1.9031    0.0027 H        1 ZINC000073069252    0.0600
34     H34    -0.5459    1.8868   -0.8726 H        1 ZINC000073069252    0.0600
35     H35    -0.5289    1.8773    0.9072 H        1 ZINC000073069252    0.0600
36     H36     0.5293   -0.3651    0.8851 H        1 ZINC000073069252    0.0800
37     H37    -1.0205   -0.3814    0.0098 H        1 ZINC000073069252    0.0800
38     H38    -1.0646   -0.5605   -2.4451 H        1 ZINC000073069252    0.1700
39     H39     2.1759   -3.8404   -4.3463 H        1 ZINC000073069252    0.0500
40     H40     0.9373   -2.9014   -5.2132 H        1 ZINC000073069252    0.1000
41     H41     2.2168   -4.3625   -6.7649 H        1 ZINC000073069252    0.0800
42     H42     2.4725   -2.6401   -7.1376 H        1 ZINC000073069252    0.0800
43     H43     4.3388   -4.4256   -5.5084 H        1 ZINC000073069252    0.1000
44     H44     7.6358   -6.4458   -8.8080 H        1 ZINC000073069252    0.0900
45     H45     6.1333   -7.2294   -9.3526 H        1 ZINC000073069252    0.0900
46     H46     7.8592   -8.3821   -9.5803 H        1 ZINC000073069252    0.1500
47     H47     9.1742  -10.2053  -10.5810 H        1 ZINC000073069252    0.1500
48     H48    10.5097   -9.5766  -15.0721 H        1 ZINC000073069252    0.2400
49     H49     9.3937   -8.0290  -14.2543 H        1 ZINC000073069252    0.1400
50     H50     8.0740   -6.2090  -13.2540 H        1 ZINC000073069252    0.1500
51     H51     6.0414   -4.0009  -10.8374 H        1 ZINC000073069252    0.1800
52     H52     5.8169   -2.4498   -5.4657 H        1 ZINC000073069252    0.0800
53     H53     4.6054   -1.5070   -6.3679 H        1 ZINC000073069252    0.0800
54     H54     4.4572   -1.0314   -3.9430 H        1 ZINC000073069252    0.1000
55     H55     4.2054   -2.7622   -3.6140 H        1 ZINC000073069252    0.0600
56     H56     2.6549   -0.5348   -0.3390 H        1 ZINC000073069252    0.1700
@<TRIPOS>BOND
1     1     2     1
2     1     33    1
3     1     34    1
4     1     35    1
5     2     3     1
6     2     36    1
7     2     37    1
8     3     32    ar
9     3     4     ar
10    4     5     ar
11    4     38    1
12    5     6     ar
13    6     7     1
14    6     31    ar
15    7     30    1
16    7     8     1
17    8     9     1
18    8     39    1
19    8     40    1
20    9     10    1
21    9     41    1
22    9     42    1
23    10    11    1
24    10    29    1
25    10    43    1
26    11    28    1
27    11    12    2
28    12    13    1
29    13    14    1
30    13    27    2
31    14    15    1
32    14    44    1
33    14    45    1
34    15    16    1
35    16    26    ar
36    16    17    ar
37    17    18    ar
38    17    46    1
39    18    19    ar
40    18    47    1
41    19    20    1
42    19    25    ar
43    20    24    1
44    20    21    1
45    21    22    2
46    21    48    1
47    22    23    1
48    23    24    2
49    25    26    ar
50    25    49    1
51    26    50    1
52    27    28    1
53    27    51    1
54    29    30    1
55    29    52    1
56    29    53    1
57    30    54    1
58    30    55    1
59    31    32    ar
60    32    56    1
@<TRIPOS>SUBSTRUCTURE
1   ZINC000073069252 1     RESIDUE    1   A     ZIN   1
