@<TRIPOS>MOLECULE
ZINC000002010543
  56   58    0    0    0
SMALL
USER_CHARGES
NO_NAME
@<TRIPOS>ATOM
    1 C1       -2.5929    -7.0212    -6.4307 C.3    1 <0>      -0.1500
    2 C2       -2.2132    -6.4297    -5.0717 C.3    1 <0>      -0.1200
    3 C3       -0.8892    -5.6732    -5.1967 C.3    1 <0>      -0.1200
    4 C4       -0.5096    -5.0817    -3.8377 C.3    1 <0>       0.0400
    5 N5        0.7616    -4.3553    -3.9576 N.3    1 <0>      -0.5200
    6 C6        1.8200    -5.2273    -4.5102 C.3    1 <0>       0.0400
    7 C7        3.1234    -4.7534    -3.8202 C.3    1 <0>      -0.1300
    8 C8        2.6183    -4.4200    -2.3917 C.3    1 <0>      -0.1400
    9 C9        1.2071    -3.8497    -2.6462 C.3    1 <0>       0.0600
   10 H10       1.2446    -2.7605    -2.6620 H      1 <0>       0.0900
   11 C11       0.2496    -4.3215    -1.5501 C.3    1 <0>       0.1000
   12 N12       0.6638    -3.7565    -0.2634 N.am   1 <0>      -0.7300
   13 C13       0.0254    -4.1167     0.8676 C.2    1 <0>       0.5600
   14 O14      -0.8944    -4.9105     0.8200 O.2    1 <0>      -0.5200
   15 C15       0.4425    -3.5477     2.1633 C.ar   1 <0>      -0.1800
   16 C16       1.4938    -2.6325     2.2184 C.ar   1 <0>       0.0500
   17 C17       1.8864    -2.1000     3.4275 C.ar   1 <0>      -0.7200
   18 S18       3.2115    -0.9404     3.4911 S.o2   1 <0>       2.7100
   19 N19       2.5510     0.5686     3.3204 N.am   1 <0>      -1.2500
   20 O20       3.7356    -1.0021     4.8105 O.2    1 <0>      -0.9600
   21 O21       3.9993    -1.1672     2.3305 O.2    1 <0>      -0.9600
   22 C22       1.2381    -2.4766     4.5932 C.ar   1 <0>       0.0600
   23 C23       0.2009    -3.3814     4.5506 C.ar   1 <0>      -0.2000
   24 C24      -0.2231    -3.9228     3.3445 C.ar   1 <0>       0.2300
   25 O25      -1.2682    -4.7720     3.5247 O.3    1 <0>      -0.2600
   26 C26      -1.3130    -5.1832     4.9017 C.3    1 <0>       0.0700
   27 H27      -2.3429    -5.3282     5.2282 H      1 <0>       0.1300
   28 C28      -0.4946    -6.4584     5.1137 C.3    1 <0>      -0.1700
   29 C29      -0.6719    -3.9804     5.6369 C.3    1 <0>      -0.1100
   30 H30      -2.7009    -6.2177    -7.1593 H      1 <0>       0.0500
   31 H31      -1.8121    -7.7071    -6.7593 H      1 <0>       0.0500
   32 H32      -3.5361    -7.5601    -6.3417 H      1 <0>       0.0500
   33 H33      -2.9940    -5.7437    -4.7431 H      1 <0>       0.0600
   34 H34      -2.1053    -7.2332    -4.3431 H      1 <0>       0.0600
   35 H35      -0.1085    -6.3591    -5.5253 H      1 <0>       0.0600
   36 H36      -0.9972    -4.8697    -5.9253 H      1 <0>       0.0700
   37 H37      -1.2904    -4.3957    -3.5091 H      1 <0>       0.0800
   38 H38      -0.4016    -5.8852    -3.1091 H      1 <0>       0.0400
   39 H39       1.6186    -6.2702    -4.2655 H      1 <0>       0.0500
   40 H40       1.8934    -5.0974    -5.5900 H      1 <0>       0.0800
   41 H41       3.8648    -5.5520    -3.7957 H      1 <0>       0.0800
   42 H42       3.5239    -3.8658    -4.3098 H      1 <0>       0.0800
   43 H43       2.5653    -5.3216    -1.7814 H      1 <0>       0.0700
   44 H44       3.2571    -3.6722    -1.9218 H      1 <0>       0.0800
   45 H45      -0.7620    -3.9897    -1.7838 H      1 <0>       0.0800
   46 H46       0.2709    -5.4098    -1.4927 H      1 <0>       0.0700
   47 H47       1.3975    -3.1232    -0.2255 H      1 <0>       0.4000
   48 H48       2.0018    -2.3407     1.3111 H      1 <0>       0.1500
   49 H49       2.9759     1.3341     3.7380 H      1 <0>       0.4200
   50 H50       1.7391     0.6870     2.8029 H      1 <0>       0.4200
   51 H51       1.5481    -2.0586     5.5395 H      1 <0>       0.1500
   52 H52       0.5375    -6.2823     4.8108 H      1 <0>       0.0600
   53 H53      -0.5216    -6.7366     6.1673 H      1 <0>       0.0800
   54 H54      -0.9167    -7.2649     4.5141 H      1 <0>       0.0700
   55 H55      -0.0653    -4.3161     6.4779 H      1 <0>       0.1000
   56 H56      -1.4338    -3.2735     5.9655 H      1 <0>       0.1000
@<TRIPOS>BOND
   1    1    2 1
   2    1   30 1
   3    1   31 1
   4    1   32 1
   5    2    3 1
   6    2   33 1
   7    2   34 1
   8    3    4 1
   9    3   35 1
  10    3   36 1
  11    4    5 1
  12    4   37 1
  13    4   38 1
  14    5    9 1
  15    5    6 1
  16    6    7 1
  17    6   39 1
  18    6   40 1
  19    7    8 1
  20    7   41 1
  21    7   42 1
  22    8    9 1
  23    8   43 1
  24    8   44 1
  25    9   10 1
  26    9   11 1
  27   11   12 1
  28   11   45 1
  29   11   46 1
  30   12   13 am
  31   12   47 1
  32   13   14 2
  33   13   15 1
  34   15   24 ar
  35   15   16 ar
  36   16   17 ar
  37   16   48 1
  38   17   18 1
  39   17   22 ar
  40   18   19 am
  41   18   20 2
  42   18   21 2
  43   19   49 1
  44   19   50 1
  45   22   23 ar
  46   22   51 1
  47   23   29 1
  48   23   24 ar
  49   24   25 1
  50   25   26 1
  51   26   27 1
  52   26   28 1
  53   26   29 1
  54   28   52 1
  55   28   53 1
  56   28   54 1
  57   29   55 1
  58   29   56 1
