@<TRIPOS>MOLECULE
ZINC000004228243
  53   56    0    0    0
SMALL
USER_CHARGES
NO_NAME
@<TRIPOS>ATOM
    1 N1       -0.0165     1.3678     0.0096 N.pl3  1 <0>      -0.8400
    2 C2        0.0021    -0.0041     0.0020 C.2    1 <0>       0.5800
    3 N3       -1.1393    -0.6588     0.0040 N.2    1 <0>      -0.6800
    4 C4       -1.1677    -1.9962    -0.0043 C.2    1 <0>       0.3900
    5 C5        0.0362    -2.6994    -0.0045 C.2    1 <0>      -0.1300
    6 C6        1.2413    -2.0010    -0.0087 C.2    1 <0>       0.5200
    7 O7        2.3089    -2.5950    -0.0132 O.2    1 <0>      -0.6200
    8 N8        1.2005    -0.6490    -0.0129 N.pl3  1 <0>      -0.7000
    9 N9       -0.0357    -4.1032     0.0085 N.pl3  1 <0>      -0.6200
   10 C10       0.9390    -5.0911     0.4528 C.3    1 <0>       0.3800
   11 N11       0.3874    -6.4293     0.1743 N.pl3  1 <0>      -0.6400
   12 C12       1.0978    -7.6102    -0.0106 C.ar   1 <0>       0.2600
   13 C13       0.4175    -8.7963    -0.2725 C.ar   1 <0>      -0.2100
   14 C14       1.1176    -9.9667    -0.4559 C.ar   1 <0>      -0.0200
   15 C15       2.5134    -9.9638    -0.3790 C.ar   1 <0>      -0.1800
   16 C16       3.2671   -11.2166    -0.5757 C.2    1 <0>       0.5600
   17 O17       2.6742   -12.2532    -0.8049 O.2    1 <0>      -0.5700
   18 N18       4.6128   -11.2123    -0.5013 N.am   1 <0>      -0.6800
   19 C19       5.3612   -12.4564    -0.6965 C.3    1 <0>       0.0700
   20 H20       4.8562   -13.0711    -1.4417 H      1 <0>       0.0800
   21 C21       6.7762   -12.1301    -1.1786 C.3    1 <0>      -0.0800
   22 C22       6.7063   -11.4785    -2.5612 C.3    1 <0>      -0.1800
   23 C23       8.1000   -11.1571    -3.0360 C.2    1 <0>       0.4900
   24 O24       9.0601   -11.4245    -2.3337 O.co2  1 <0>      -0.7000
   25 O25       8.2674   -10.6298    -4.1225 O.co2  1 <0>      -0.7200
   26 C26       5.4357   -13.2078     0.6077 C.2    1 <0>       0.5000
   27 O27       4.9121   -12.7468     1.6076 O.co2  1 <0>      -0.6900
   28 O28       6.0195   -14.2767     0.6629 O.co2  1 <0>      -0.7100
   29 C29       3.1936    -8.7711    -0.1159 C.ar   1 <0>      -0.0300
   30 C30       2.4881    -7.6030     0.0609 C.ar   1 <0>      -0.2000
   31 C31      -1.0810    -6.2520     0.1328 C.3    1 <0>       0.1100
   32 C32      -1.2686    -4.8226    -0.3904 C.3    1 <0>       0.1100
   33 H33      -1.3946    -4.8156    -1.4731 H      1 <0>       0.0600
   34 C34      -2.4405    -4.1197     0.3039 C.3    1 <0>       0.1400
   35 N35      -2.3696    -2.6832    -0.0216 N.pl3  1 <0>      -0.7400
   36 H36       0.8168     1.8642     0.0043 H      1 <0>       0.4000
   37 H37      -0.8631     1.8413     0.0162 H      1 <0>       0.3900
   38 H38       1.8741    -4.9571    -0.0911 H      1 <0>       0.0700
   39 H39       1.1152    -4.9802     1.5227 H      1 <0>       0.0400
   40 H40      -0.6609    -8.7980    -0.3314 H      1 <0>       0.1200
   41 H41       0.5893   -10.8865    -0.6587 H      1 <0>       0.1300
   42 H42       5.0858   -10.3854    -0.3184 H      1 <0>       0.3900
   43 H43       7.2498   -11.4436    -0.4769 H      1 <0>       0.0500
   44 H44       7.3603   -13.0484    -1.2388 H      1 <0>       0.0800
   45 H45       6.2327   -12.1651    -3.2629 H      1 <0>       0.0500
   46 H46       6.1222   -10.5603    -2.5010 H      1 <0>       0.0500
   47 H47       4.2719    -8.7658    -0.0556 H      1 <0>       0.1300
   48 H48       3.0130    -6.6812     0.2639 H      1 <0>       0.1300
   49 H49      -1.5335    -6.9711    -0.5500 H      1 <0>       0.0800
   50 H50      -1.5063    -6.3521     1.1314 H      1 <0>       0.0600
   51 H51      -3.3822    -4.5418    -0.0468 H      1 <0>       0.0700
   52 H52      -2.3588    -4.2481     1.3832 H      1 <0>       0.0500
   53 H53      -3.1785    -2.2093    -0.2705 H      1 <0>       0.3900
@<TRIPOS>BOND
   1    1    2 1
   2    1   36 1
   3    1   37 1
   4    2    8 1
   5    2    3 2
   6    3    4 1
   7    4   35 1
   8    4    5 2
   9    5    6 1
  10    5    9 1
  11    6    7 2
  12    6    8 1
  13    9   32 1
  14    9   10 1
  15   10   11 1
  16   10   38 1
  17   10   39 1
  18   11   12 1
  19   11   31 1
  20   12   30 ar
  21   12   13 ar
  22   13   14 ar
  23   13   40 1
  24   14   15 ar
  25   14   41 1
  26   15   16 1
  27   15   29 ar
  28   16   17 2
  29   16   18 am
  30   18   19 1
  31   18   42 1
  32   19   20 1
  33   19   21 1
  34   19   26 1
  35   21   22 1
  36   21   43 1
  37   21   44 1
  38   22   23 1
  39   22   45 1
  40   22   46 1
  41   23   24 ar
  42   23   25 ar
  43   26   27 ar
  44   26   28 ar
  45   29   30 ar
  46   29   47 1
  47   30   48 1
  48   31   32 1
  49   31   49 1
  50   31   50 1
  51   32   33 1
  52   32   34 1
  53   34   35 1
  54   34   51 1
  55   34   52 1
  56   35   53 1
