@<TRIPOS>MOLECULE
ZINC000003938676
47    50    1     0     0
SMALL
USER_CHARGES
@<TRIPOS>ATOM
1      O1      0.0021   -0.0041    0.0020 O.co2    1 ZINC000003938676   -0.6500
2      C2     -0.0145    1.2165    0.0087 C.2      1 ZINC000003938676    0.4700
3      O3      1.0343    1.8412    0.0021 O.co2    1 ZINC000003938676   -0.6800
4      C4     -1.3174    1.9453    0.0189 C.2      1 ZINC000003938676    0.3600
5      O5     -2.3617    1.3234    0.0204 O.2      1 ZINC000003938676   -0.4700
6      C6     -1.3367    3.3632    0.0267 C.2      1 ZINC000003938676   -0.2600
7      C7     -0.2421    4.2102    0.0200 C.2      1 ZINC000003938676    0.1600
8      N8     -0.6605    5.4876    0.0312 N.pl3    1 ZINC000003938676   -0.4700
9      C9      0.2264    6.6536    0.0279 C.3      1 ZINC000003938676    0.1500
10     C10     0.4464    7.1213    1.4435 C.ar     1 ZINC000003938676   -0.1200
11     C11    -0.4062    8.0541    2.0036 C.ar     1 ZINC000003938676   -0.1000
12     C12    -0.2044    8.4831    3.3021 C.ar     1 ZINC000003938676   -0.1200
13     C13     0.8498    7.9790    4.0406 C.ar     1 ZINC000003938676   -0.1100
14     C14     1.7019    7.0455    3.4808 C.ar     1 ZINC000003938676   -0.1200
15     C15     1.4975    6.6133    2.1838 C.ar     1 ZINC000003938676   -0.0900
16     C16    -2.0402    5.5516    0.0456 C.ar     1 ZINC000003938676    0.0800
17     C17    -2.9378    6.6153    0.0605 C.ar     1 ZINC000003938676   -0.1200
18     C18    -4.2929    6.3756    0.0735 C.ar     1 ZINC000003938676   -0.1000
19     C19    -4.7818    5.0667    0.0719 C.ar     1 ZINC000003938676   -0.0800
20     C20    -6.2449    4.8212    0.0860 C.ar     1 ZINC000003938676   -0.0400
21     C21    -6.7339    3.5160    0.0903 C.ar     1 ZINC000003938676   -0.0800
22     C22    -8.0945    3.2910    0.1039 C.ar     1 ZINC000003938676   -0.1100
23     C23    -8.9767    4.3628    0.1129 C.ar     1 ZINC000003938676    0.0900
24     O24   -10.3167    4.1380    0.1258 O.3      1 ZINC000003938676   -0.3100
25     C25   -11.1672    5.2863    0.1345 C.3      1 ZINC000003938676    0.6000
26     F26   -10.9259    6.0540   -1.0099 F        1 ZINC000003938676   -0.1700
27     F27   -12.5046    4.8760    0.1474 F        1 ZINC000003938676   -0.1300
28     F28   -10.9037    6.0532    1.2745 F        1 ZINC000003938676   -0.1700
29     C29    -8.4926    5.6640    0.1091 C.ar     1 ZINC000003938676   -0.1900
30     C30    -7.1330    5.8953    0.1009 C.ar     1 ZINC000003938676   -0.0800
31     C31    -3.8969    3.9943    0.0567 C.ar     1 ZINC000003938676   -0.0500
32     C32    -2.5285    4.2346    0.0371 C.ar     1 ZINC000003938676   -0.0600
33     H33     0.7903    3.8933    0.0083 H        1 ZINC000003938676    0.2100
34     H34     1.1831    6.3811   -0.4176 H        1 ZINC000003938676    0.1100
35     H35    -0.2296    7.4553   -0.5529 H        1 ZINC000003938676    0.1000
36     H36    -1.2298    8.4480    1.4266 H        1 ZINC000003938676    0.1200
37     H37    -0.8701    9.2124    3.7395 H        1 ZINC000003938676    0.1200
38     H38     1.0080    8.3147    5.0549 H        1 ZINC000003938676    0.1200
39     H39     2.5258    6.6519    4.0577 H        1 ZINC000003938676    0.1200
40     H40     2.1633    5.8839    1.7464 H        1 ZINC000003938676    0.1300
41     H41    -2.5701    7.6308    0.0622 H        1 ZINC000003938676    0.1200
42     H42    -4.9837    7.2056    0.0853 H        1 ZINC000003938676    0.1200
43     H43    -6.0481    2.6818    0.0826 H        1 ZINC000003938676    0.1500
44     H44    -8.4740    2.2799    0.1072 H        1 ZINC000003938676    0.1400
45     H45    -9.1813    6.4958    0.1164 H        1 ZINC000003938676    0.1300
46     H46    -6.7570    6.9077    0.0983 H        1 ZINC000003938676    0.1300
47     H47    -4.2708    2.9811    0.0558 H        1 ZINC000003938676    0.1300
@<TRIPOS>BOND
1     1     2     ar
2     2     3     ar
3     2     4     1
4     4     5     2
5     4     6     1
6     6     32    1
7     6     7     2
8     7     8     1
9     7     33    1
10    8     9     1
11    8     16    1
12    9     10    1
13    9     34    1
14    9     35    1
15    10    15    ar
16    10    11    ar
17    11    12    ar
18    11    36    1
19    12    13    ar
20    12    37    1
21    13    14    ar
22    13    38    1
23    14    15    ar
24    14    39    1
25    15    40    1
26    16    32    ar
27    16    17    ar
28    17    18    ar
29    17    41    1
30    18    19    ar
31    18    42    1
32    19    20    1
33    19    31    ar
34    20    30    ar
35    20    21    ar
36    21    22    ar
37    21    43    1
38    22    23    ar
39    22    44    1
40    23    24    1
41    23    29    ar
42    24    25    1
43    25    26    1
44    25    27    1
45    25    28    1
46    29    30    ar
47    29    45    1
48    30    46    1
49    31    32    ar
50    31    47    1
@<TRIPOS>SUBSTRUCTURE
1   ZINC000003938676 1     RESIDUE    1   A     ZIN   1
