@<TRIPOS>MOLECULE
ZINC000019899628
59    64    1     0     0
SMALL
USER_CHARGES
@<TRIPOS>ATOM
1      O1      0.0212    0.1274   -0.7295 O.2      1 ZINC000019899628   -0.4900
2      C2      0.1333    1.3253   -0.5731 C.2      1 ZINC000019899628    0.5200
3      C3      1.3793    1.8892    0.0599 C.3      1 ZINC000019899628    0.0300
4      N4      2.4225    0.8556    0.0930 N.3      1 ZINC000019899628   -0.5300
5      C5      2.0479   -0.2422    0.9956 C.3      1 ZINC000019899628    0.0100
6      C6      3.1303   -1.3231    0.9560 C.3      1 ZINC000019899628    0.0000
7      N7      4.4158   -0.7443    1.3684 N.4      1 ZINC000019899628   -0.3900
8      H8      4.3326   -0.3720    2.3025 H        1 ZINC000019899628    0.4200
9      C9      5.4510   -1.7863    1.3473 C.3      1 ZINC000019899628    0.0500
10     C10     6.7409   -1.2240    1.8867 C.ar     1 ZINC000019899628   -0.1600
11     C11     7.6444   -0.6256    1.0289 C.ar     1 ZINC000019899628   -0.0800
12     C12     8.8293   -0.1081    1.5191 C.ar     1 ZINC000019899628   -0.1000
13     C13     9.1138   -0.1890    2.8722 C.ar     1 ZINC000019899628    0.0700
14     O14    10.1900    0.2335    3.5978 O.3      1 ZINC000019899628   -0.3000
15     C15     9.7477    0.2493    4.9679 C.3      1 ZINC000019899628    0.2100
16     O16     8.7092   -0.7474    5.0037 O.3      1 ZINC000019899628   -0.3000
17     C17     8.2031   -0.7922    3.7368 C.ar     1 ZINC000019899628    0.0400
18     C18     7.0155   -1.3028    3.2397 C.ar     1 ZINC000019899628   -0.0800
19     C19     4.7885    0.3341    0.4433 C.3      1 ZINC000019899628   -0.0100
20     C20     3.7198    1.4288    0.4786 C.3      1 ZINC000019899628    0.0300
21     N21    -0.8541    2.1521   -0.9706 N.am     1 ZINC000019899628   -0.5000
22     C22    -0.6669    3.5377   -0.8799 C.ar     1 ZINC000019899628    0.1400
23     C23     0.0113    4.0816    0.1994 C.ar     1 ZINC000019899628   -0.1500
24     C24     0.1903    5.4509    0.2847 C.ar     1 ZINC000019899628   -0.0900
25     C25    -0.3041    6.2837   -0.7013 C.ar     1 ZINC000019899628   -0.1100
26     C26    -0.9824    5.7508   -1.7841 C.ar     1 ZINC000019899628   -0.0600
27     C27    -1.1633    4.3823   -1.8753 C.ar     1 ZINC000019899628   -0.1200
28     S28    -2.0207    3.6786   -3.2479 S.3      1 ZINC000019899628    0.0300
29     C29    -2.7101    2.2204   -2.5316 C.ar     1 ZINC000019899628   -0.1300
30     C30    -3.8922    1.6889   -3.0153 C.ar     1 ZINC000019899628   -0.0700
31     C31    -4.4160    0.5431   -2.4413 C.ar     1 ZINC000019899628   -0.1100
32     C32    -3.7598   -0.0672   -1.3891 C.ar     1 ZINC000019899628   -0.0900
33     C33    -2.5777    0.4604   -0.9007 C.ar     1 ZINC000019899628   -0.1000
34     C34    -2.0443    1.6084   -1.4713 C.ar     1 ZINC000019899628    0.1400
35     H35     1.7297    2.7406   -0.5236 H        1 ZINC000019899628    0.1300
36     H36     1.1558    2.2127    1.0765 H        1 ZINC000019899628    0.0900
37     H37     1.9520    0.1394    2.0121 H        1 ZINC000019899628    0.0600
38     H38     1.0969   -0.6679    0.6753 H        1 ZINC000019899628    0.1500
39     H39     2.8613   -2.1317    1.6356 H        1 ZINC000019899628    0.1400
40     H40     3.2165   -1.7140   -0.0578 H        1 ZINC000019899628    0.1400
41     H41     5.1339   -2.6260    1.9658 H        1 ZINC000019899628    0.1400
42     H42     5.6032   -2.1266    0.3230 H        1 ZINC000019899628    0.1400
43     H43     7.4246   -0.5623   -0.0266 H        1 ZINC000019899628    0.1500
44     H44     9.5334    0.3590    0.8465 H        1 ZINC000019899628    0.1500
45     H45    10.5637   -0.0237    5.6370 H        1 ZINC000019899628    0.1400
46     H46     9.3476    1.2288    5.2299 H        1 ZINC000019899628    0.1000
47     H47     6.3050   -1.7657    3.9086 H        1 ZINC000019899628    0.1400
48     H48     5.7487    0.7540    0.7428 H        1 ZINC000019899628    0.1400
49     H49     4.8661   -0.0654   -0.5679 H        1 ZINC000019899628    0.1400
50     H50     3.9886    2.2221   -0.2188 H        1 ZINC000019899628    0.1300
51     H51     3.6514    1.8379    1.4866 H        1 ZINC000019899628    0.0600
52     H52     0.3997    3.4368    0.9739 H        1 ZINC000019899628    0.1400
53     H53     0.7193    5.8716    1.1271 H        1 ZINC000019899628    0.1400
54     H54    -0.1614    7.3516   -0.6268 H        1 ZINC000019899628    0.1400
55     H55    -1.3689    6.4011   -2.5549 H        1 ZINC000019899628    0.1400
56     H56    -4.4047    2.1662   -3.8374 H        1 ZINC000019899628    0.1400
57     H57    -5.3389    0.1258   -2.8161 H        1 ZINC000019899628    0.1400
58     H58    -4.1725   -0.9611   -0.9453 H        1 ZINC000019899628    0.1400
59     H59    -2.0701   -0.0218   -0.0784 H        1 ZINC000019899628    0.1300
@<TRIPOS>BOND
1     1     2     2
2     2     3     1
3     2     21    am
4     3     4     1
5     3     35    1
6     3     36    1
7     4     20    1
8     4     5     1
9     5     6     1
10    5     37    1
11    5     38    1
12    6     7     1
13    6     39    1
14    6     40    1
15    7     8     1
16    7     9     1
17    7     19    1
18    9     10    1
19    9     41    1
20    9     42    1
21    10    18    ar
22    10    11    ar
23    11    12    ar
24    11    43    1
25    12    13    ar
26    12    44    1
27    13    17    ar
28    13    14    1
29    14    15    1
30    15    16    1
31    15    45    1
32    15    46    1
33    16    17    1
34    17    18    ar
35    18    47    1
36    19    20    1
37    19    48    1
38    19    49    1
39    20    50    1
40    20    51    1
41    21    34    1
42    21    22    1
43    22    27    ar
44    22    23    ar
45    23    24    ar
46    23    52    1
47    24    25    ar
48    24    53    1
49    25    26    ar
50    25    54    1
51    26    27    ar
52    26    55    1
53    27    28    1
54    28    29    1
55    29    34    ar
56    29    30    ar
57    30    31    ar
58    30    56    1
59    31    32    ar
60    31    57    1
61    32    33    ar
62    32    58    1
63    33    34    ar
64    33    59    1
@<TRIPOS>SUBSTRUCTURE
1   ZINC000019899628 1     RESIDUE    1   A     ZIN   1
