@<TRIPOS>MOLECULE
ZINC000008144259
51    54    1     0     0
SMALL
USER_CHARGES
@<TRIPOS>ATOM
1      C1     -0.0184    1.5028    0.0103 C.3      1 ZINC000008144259   -0.1200
2      C2      0.0021   -0.0041    0.0020 C.ar     1 ZINC000008144259   -0.0800
3      C3      0.0057   -0.6856   -1.2070 C.ar     1 ZINC000008144259   -0.0800
4      C4      0.0252   -2.0629   -1.2358 C.ar     1 ZINC000008144259   -0.1200
5      C5      0.0413   -2.7799   -0.0448 C.ar     1 ZINC000008144259    0.0900
6      C6      0.0369   -2.0842    1.1809 C.ar     1 ZINC000008144259   -0.0700
7      C7      0.0226   -0.6878    1.1846 C.ar     1 ZINC000008144259   -0.0800
8      C8      0.0558   -3.1077    2.2183 C.2      1 ZINC000008144259   -0.2200
9      C9      0.0697   -4.3066    1.5996 C.2      1 ZINC000008144259    0.0800
10     C10     0.0885   -5.6128    2.3614 C.3      1 ZINC000008144259   -0.0800
11     C11    -0.3089   -5.3137    3.8132 C.3      1 ZINC000008144259    0.0000
12     N12     0.4983   -4.2000    4.3286 N.4      1 ZINC000008144259   -0.3900
13     H13     1.4700   -4.3616    4.1100 H        1 ZINC000008144259    0.4300
14     C14     0.3347   -4.1131    5.7859 C.3      1 ZINC000008144259   -0.0500
15     C15     0.0634   -2.9345    3.7144 C.3      1 ZINC000008144259    0.0800
16     N16     0.0629   -4.1271    0.2487 N.pl3    1 ZINC000008144259   -0.4600
17     C17     0.0764   -5.2047   -0.7438 C.3      1 ZINC000008144259    0.1100
18     C18    -1.3612   -5.6020   -1.0849 C.3      1 ZINC000008144259   -0.1000
19     C19    -1.3472   -6.7104   -2.1057 C.ar     1 ZINC000008144259   -0.1000
20     C20    -1.3500   -6.4169   -3.4606 C.ar     1 ZINC000008144259    0.0100
21     C21    -1.3363   -7.4691   -4.3638 C.ar     1 ZINC000008144259   -0.1200
22     C22    -1.3205   -8.7659   -3.8868 C.ar     1 ZINC000008144259    0.1800
23     C23    -1.3050   -9.9170   -4.8593 C.3      1 ZINC000008144259   -0.1500
24     N24    -1.3183   -9.0078   -2.5904 N.ar     1 ZINC000008144259   -0.4400
25     H25    -1.3067   -9.9273   -2.2816 H        1 ZINC000008144259    0.4500
26     C26    -1.3257   -8.0325   -1.7030 C.ar     1 ZINC000008144259    0.1300
27     H27     1.0042    1.8801    0.0026 H        1 ZINC000008144259    0.0800
28     H28    -0.5455    1.8639   -0.8728 H        1 ZINC000008144259    0.0700
29     H29    -0.5286    1.8543    0.9071 H        1 ZINC000008144259    0.0700
30     H30    -0.0073   -0.1312   -2.1337 H        1 ZINC000008144259    0.1400
31     H31     0.0275   -2.5845   -2.1816 H        1 ZINC000008144259    0.1200
32     H32     0.0199   -0.1493    2.1209 H        1 ZINC000008144259    0.1300
33     H33    -0.6247   -6.3084    1.9192 H        1 ZINC000008144259    0.1200
34     H34     1.0900   -6.0421    2.3337 H        1 ZINC000008144259    0.1100
35     H35    -1.3645   -5.0448    3.8522 H        1 ZINC000008144259    0.1400
36     H36    -0.1382   -6.1990    4.4257 H        1 ZINC000008144259    0.1400
37     H37     0.6648   -5.0450    6.2448 H        1 ZINC000008144259    0.1300
38     H38     0.9331   -3.2870    6.1701 H        1 ZINC000008144259    0.1300
39     H39    -0.7153   -3.9427    6.0241 H        1 ZINC000008144259    0.1300
40     H40     0.7556   -2.1380    3.9874 H        1 ZINC000008144259    0.1400
41     H41    -0.9402   -2.6858    4.0595 H        1 ZINC000008144259    0.1400
42     H42     0.5823   -4.8612   -1.6461 H        1 ZINC000008144259    0.1000
43     H43     0.6048   -6.0668   -0.3368 H        1 ZINC000008144259    0.1000
44     H44    -1.8670   -5.9454   -0.1825 H        1 ZINC000008144259    0.1000
45     H45    -1.8895   -4.7398   -1.4919 H        1 ZINC000008144259    0.1100
46     H46    -1.3629   -5.3932   -3.8045 H        1 ZINC000008144259    0.1800
47     H47    -1.3384   -7.2774   -5.4267 H        1 ZINC000008144259    0.1900
48     H48    -0.2737  -10.1816   -5.0928 H        1 ZINC000008144259    0.1200
49     H49    -1.8085  -10.7753   -4.4144 H        1 ZINC000008144259    0.1000
50     H50    -1.8217   -9.6267   -5.7742 H        1 ZINC000008144259    0.1200
51     H51    -1.3236   -8.2696   -0.6494 H        1 ZINC000008144259    0.2100
@<TRIPOS>BOND
1     1     2     1
2     1     27    1
3     1     28    1
4     1     29    1
5     2     7     ar
6     2     3     ar
7     3     4     ar
8     3     30    1
9     4     5     ar
10    4     31    1
11    5     16    1
12    5     6     ar
13    6     7     ar
14    6     8     1
15    7     32    1
16    8     15    1
17    8     9     2
18    9     10    1
19    9     16    1
20    10    11    1
21    10    33    1
22    10    34    1
23    11    12    1
24    11    35    1
25    11    36    1
26    12    13    1
27    12    14    1
28    12    15    1
29    14    37    1
30    14    38    1
31    14    39    1
32    15    40    1
33    15    41    1
34    16    17    1
35    17    18    1
36    17    42    1
37    17    43    1
38    18    19    1
39    18    44    1
40    18    45    1
41    19    26    ar
42    19    20    ar
43    20    21    ar
44    20    46    1
45    21    22    ar
46    21    47    1
47    22    23    1
48    22    24    ar
49    23    48    1
50    23    49    1
51    23    50    1
52    24    25    1
53    24    26    ar
54    26    51    1
@<TRIPOS>SUBSTRUCTURE
1   ZINC000008144259 1     RESIDUE    1   A     ZIN   1
