@<TRIPOS>MOLECULE
ZINC000003818355
  45   47    0    0    0
SMALL
USER_CHARGES
NO_NAME
@<TRIPOS>ATOM
    1 C1       -0.0190     1.4649     0.0102 C.3    1 <0>       0.0200
    2 N2        0.0024    -0.0039     0.0022 N.3    1 <0>      -0.5400
    3 C3       -1.3578    -0.5496    -0.0896 C.3    1 <0>       0.0600
    4 C4       -1.2894    -2.0708    -0.2419 C.3    1 <0>      -0.1100
    5 C5       -0.5604    -2.6674     0.9652 C.3    1 <0>      -0.1200
    6 C6       -0.4370    -4.1594     0.7922 C.2    1 <0>       0.4200
    7 O7       -0.3607    -4.6363    -0.3196 O.2    1 <0>      -0.4400
    8 C8       -0.4092    -5.0395     1.9758 C.ar   1 <0>       0.0800
    9 C9       -0.2892    -6.4181     1.8087 C.ar   1 <0>      -0.1400
   10 C10      -0.2641    -7.2361     2.9295 C.ar   1 <0>      -0.0500
   11 C11      -0.3596    -6.6503     4.1787 C.ar   1 <0>      -0.1700
   12 C12      -0.4777    -5.2634     4.2759 C.ar   1 <0>       0.3500
   13 N13      -0.5738    -4.6671     5.5310 N.am   1 <0>      -0.6500
   14 C14      -0.5851    -3.3238     5.6398 C.2    1 <0>       0.5600
   15 O15      -0.6047    -2.6329     4.6393 O.2    1 <0>      -0.4400
   16 C16      -0.5736    -2.6921     6.9713 C.ar   1 <0>      -0.2200
   17 C17       0.6420    -2.3739     7.5886 C.ar   1 <0>       0.2000
   18 F18       1.8094    -2.6451     6.9651 F      1 <0>      -0.1100
   19 C19       0.6447    -1.7818     8.8361 C.ar   1 <0>      -0.2000
   20 C20      -0.5521    -1.5028     9.4772 C.ar   1 <0>       0.1900
   21 F21      -0.5416    -0.9234    10.6976 F      1 <0>      -0.1100
   22 C22      -1.7595    -1.8149     8.8725 C.ar   1 <0>      -0.2000
   23 C23      -1.7784    -2.4020     7.6227 C.ar   1 <0>       0.2000
   24 F24      -2.9563    -2.7055     7.0348 F      1 <0>      -0.1100
   25 N25      -0.4934    -4.5098     3.1930 N.ar   1 <0>      -0.4400
   26 C26       0.8357    -2.0469     1.0663 C.3    1 <0>      -0.0900
   27 C27       0.7057    -0.5263     1.1807 C.3    1 <0>       0.0600
   28 H28       1.0032     1.8433     0.0033 H      1 <0>       0.0700
   29 H29      -0.5457     1.8254    -0.8734 H      1 <0>       0.0700
   30 H30      -0.5304     1.8160     0.9064 H      1 <0>       0.0300
   31 H31      -1.9112    -0.2997     0.8156 H      1 <0>       0.0400
   32 H32      -1.8637    -0.1204    -0.9545 H      1 <0>       0.0800
   33 H33      -2.2995    -2.4771    -0.2943 H      1 <0>       0.0700
   34 H34      -0.7480    -2.3212    -1.1542 H      1 <0>       0.0800
   35 H35      -1.1227    -2.4514     1.8736 H      1 <0>       0.1100
   36 H36      -0.2170    -6.8445     0.8191 H      1 <0>       0.1500
   37 H37      -0.1723    -8.3074     2.8283 H      1 <0>       0.1500
   38 H38      -0.3434    -7.2602     5.0698 H      1 <0>       0.1500
   39 H39      -0.6327    -5.2186     6.3268 H      1 <0>       0.4200
   40 H40       1.5816    -1.5357     9.3135 H      1 <0>       0.1700
   41 H41      -2.6880    -1.5949     9.3784 H      1 <0>       0.1700
   42 H42       1.3439    -2.4360     1.9486 H      1 <0>       0.0700
   43 H43       1.4106    -2.2969     0.1746 H      1 <0>       0.0700
   44 H44       1.6986    -0.0802     1.2385 H      1 <0>       0.0800
   45 H45       0.1426    -0.2766     2.0800 H      1 <0>       0.0400
@<TRIPOS>BOND
   1    1    2 1
   2    1   28 1
   3    1   29 1
   4    1   30 1
   5    2   27 1
   6    2    3 1
   7    3    4 1
   8    3   31 1
   9    3   32 1
  10    4    5 1
  11    4   33 1
  12    4   34 1
  13    5    6 1
  14    5   26 1
  15    5   35 1
  16    6    7 2
  17    6    8 1
  18    8   25 ar
  19    8    9 ar
  20    9   10 ar
  21    9   36 1
  22   10   11 ar
  23   10   37 1
  24   11   12 ar
  25   11   38 1
  26   12   13 1
  27   12   25 ar
  28   13   14 am
  29   13   39 1
  30   14   15 2
  31   14   16 1
  32   16   23 ar
  33   16   17 ar
  34   17   18 1
  35   17   19 ar
  36   19   20 ar
  37   19   40 1
  38   20   21 1
  39   20   22 ar
  40   22   23 ar
  41   22   41 1
  42   23   24 1
  43   26   27 1
  44   26   42 1
  45   26   43 1
  46   27   44 1
  47   27   45 1
