@<TRIPOS>MOLECULE
ZINC000006473422
17    18    1     0     0
SMALL
USER_CHARGES
@<TRIPOS>ATOM
1      O1      0.0021   -0.0041    0.0020 O.2      1 ZINC000006473422   -0.1800
2      N2     -0.0144    1.2138    0.0087 N.pl3    1 ZINC000006473422    0.0300
3      O3      1.0320    1.8371    0.0021 O.2      1 ZINC000006473422   -0.1500
4      C4     -1.3062    1.9364    0.0188 C.ar     1 ZINC000006473422   -0.0400
5      C5     -2.4739    1.2464    0.0262 C.ar     1 ZINC000006473422    0.0300
6      C6     -3.7117    1.8936    0.0352 C.ar     1 ZINC000006473422   -0.1800
7      C7     -3.8091    3.2467    0.0371 C.ar     1 ZINC000006473422    0.0300
8      C8     -2.6345    4.0288    0.0302 C.ar     1 ZINC000006473422   -0.2200
9      C9     -2.3669    5.3851    0.0293 C.2      1 ZINC000006473422    0.1200
10     N10    -1.0363    5.5425    0.0206 N.pl3    1 ZINC000006473422   -0.4200
11     N11    -0.4074    4.2922    0.0157 N.2      1 ZINC000006473422   -0.2700
12     C12    -1.3303    3.3476    0.0266 C.ar     1 ZINC000006473422    0.1200
13     H13    -2.4459    0.1667    0.0246 H        1 ZINC000006473422    0.1600
14     H14    -4.6148    1.3014    0.0405 H        1 ZINC000006473422    0.1500
15     H15    -4.7789    3.7220    0.0435 H        1 ZINC000006473422    0.1500
16     H16    -3.1006    6.1776    0.0344 H        1 ZINC000006473422    0.2000
17     H17    -0.5768    6.3968    0.0181 H        1 ZINC000006473422    0.4500
@<TRIPOS>BOND
1     1     2     2
2     2     3     2
3     2     4     1
4     4     12    ar
5     4     5     ar
6     5     6     ar
7     5     13    1
8     6     7     ar
9     6     14    1
10    7     8     ar
11    7     15    1
12    8     12    ar
13    8     9     2
14    9     10    1
15    9     16    1
16    10    11    1
17    10    17    1
18    11    12    2
@<TRIPOS>SUBSTRUCTURE
1   ZINC000006473422 1     RESIDUE    1   A     ZIN   1
