@<TRIPOS>MOLECULE
ZINC000003919810
30    32    1     0     0
SMALL
USER_CHARGES
@<TRIPOS>ATOM
1      N1     -0.0167    1.3810    0.0096 N.pl3    1 ZINC000003919810   -0.8200
2      C2      0.0021   -0.0041    0.0020 C.ar     1 ZINC000003919810    0.6300
3      N3     -1.1511   -0.6604    0.0041 N.ar     1 ZINC000003919810   -0.6300
4      C4     -1.1853   -1.9883   -0.0030 C.ar     1 ZINC000003919810    0.5400
5      N5     -2.3927   -2.6641   -0.0012 N.pl3    1 ZINC000003919810   -0.8200
6      C6      0.0313   -2.6921   -0.0127 C.ar     1 ZINC000003919810   -0.1500
7      N7      0.3708   -4.0047   -0.0211 N.2      1 ZINC000003919810   -0.4600
8      C8      1.6669   -4.1166   -0.0278 C.2      1 ZINC000003919810    0.2600
9      N9      2.2412   -2.8789   -0.0241 N.pl3    1 ZINC000003919810   -0.4800
10     C10     3.6774   -2.5897   -0.0294 C.3      1 ZINC000003919810    0.2800
11     H11     3.8811   -1.6983   -0.6228 H        1 ZINC000003919810    0.1300
12     C12     4.1920   -2.4019    1.4147 C.3      1 ZINC000003919810    0.0100
13     O13     4.7372   -3.7048    1.7357 O.3      1 ZINC000003919810   -0.3600
14     C14     5.3197   -4.1361    0.4869 C.3      1 ZINC000003919810    0.2200
15     H15     6.2928   -3.6660    0.3450 H        1 ZINC000003919810    0.1000
16     C16     5.4645   -5.6591    0.4721 C.3      1 ZINC000003919810    0.0800
17     O17     4.1817   -6.2614    0.6557 O.3      1 ZINC000003919810   -0.5600
18     O18     4.4115   -3.7135   -0.5476 O.3      1 ZINC000003919810   -0.3600
19     C19     1.2271   -1.9551   -0.0146 C.ar     1 ZINC000003919810    0.3500
20     N20     1.1693   -0.6271   -0.0125 N.ar     1 ZINC000003919810   -0.6200
21     H21     0.8166    1.8773    0.0043 H        1 ZINC000003919810    0.4100
22     H22    -0.8632    1.8545    0.0162 H        1 ZINC000003919810    0.4200
23     H23    -3.2262   -2.1680    0.0053 H        1 ZINC000003919810    0.4100
24     H24    -2.4056   -3.6340   -0.0064 H        1 ZINC000003919810    0.4200
25     H25     2.2083   -5.0511   -0.0352 H        1 ZINC000003919810    0.2200
26     H26     4.9694   -1.6387    1.4510 H        1 ZINC000003919810    0.1000
27     H27     3.3716   -2.1507    2.0870 H        1 ZINC000003919810    0.1100
28     H28     5.8808   -5.9753   -0.4844 H        1 ZINC000003919810    0.0700
29     H29     6.1299   -5.9686    1.2781 H        1 ZINC000003919810    0.0700
30     H30     4.1977   -7.2283    0.6570 H        1 ZINC000003919810    0.3900
@<TRIPOS>BOND
1     1     2     1
2     1     21    1
3     1     22    1
4     2     20    ar
5     2     3     ar
6     3     4     ar
7     4     5     1
8     4     6     ar
9     5     23    1
10    5     24    1
11    6     19    ar
12    6     7     1
13    7     8     2
14    8     9     1
15    8     25    1
16    9     10    1
17    9     19    1
18    10    11    1
19    10    18    1
20    10    12    1
21    12    13    1
22    12    26    1
23    12    27    1
24    13    14    1
25    14    15    1
26    14    16    1
27    14    18    1
28    16    17    1
29    16    28    1
30    16    29    1
31    17    30    1
32    19    20    ar
@<TRIPOS>SUBSTRUCTURE
1   ZINC000003919810 1     RESIDUE    1   A     ZIN   1
