@<TRIPOS>MOLECULE
ZINC000002509961
34    33    1     0     0
SMALL
USER_CHARGES
@<TRIPOS>ATOM
1      C1     -0.0187    1.5258    0.0104 C.3      1 ZINC000002509961   -0.1500
2      C2      0.0021   -0.0041    0.0020 C.3      1 ZINC000002509961   -0.1200
3      C3      0.7182   -0.4975   -1.2568 C.3      1 ZINC000002509961   -0.1200
4      C4      0.7390   -2.0273   -1.2652 C.3      1 ZINC000002509961   -0.1100
5      C5      1.4551   -2.5207   -2.5240 C.3      1 ZINC000002509961   -0.1200
6      C6      1.4758   -4.0506   -2.5324 C.3      1 ZINC000002509961   -0.0800
7      C7      2.1920   -4.5440   -3.7912 C.3      1 ZINC000002509961   -0.1600
8      H8      3.1841   -4.0956   -3.8442 H        1 ZINC000002509961    0.0600
9      C9      2.3230   -6.0675   -3.7394 C.3      1 ZINC000002509961   -0.0900
10     C10     3.1473   -6.5495   -4.9349 C.3      1 ZINC000002509961   -0.1400
11     C11     3.2784   -8.0730   -4.8830 C.3      1 ZINC000002509961   -0.1500
12     C12     1.3967   -4.1494   -5.0089 C.2      1 ZINC000002509961    0.5000
13     O13     0.3537   -3.5308   -4.8817 O.co2    1 ZINC000002509961   -0.6900
14     O14     1.7962   -4.4487   -6.1213 O.co2    1 ZINC000002509961   -0.7000
15     H15     1.0039    1.9031    0.0027 H        1 ZINC000002509961    0.0500
16     H16    -0.5459    1.8868   -0.8726 H        1 ZINC000002509961    0.0500
17     H17    -0.5289    1.8773    0.9072 H        1 ZINC000002509961    0.0500
18     H18     0.5293   -0.3651    0.8851 H        1 ZINC000002509961    0.0600
19     H19    -1.0205   -0.3814    0.0098 H        1 ZINC000002509961    0.0600
20     H20     0.1910   -0.1364   -2.1398 H        1 ZINC000002509961    0.0600
21     H21     1.7408   -0.1202   -1.2645 H        1 ZINC000002509961    0.0600
22     H22     1.2661   -2.3884   -0.3821 H        1 ZINC000002509961    0.0500
23     H23    -0.2836   -2.4046   -1.2575 H        1 ZINC000002509961    0.0600
24     H24     0.9279   -2.1597   -3.4071 H        1 ZINC000002509961    0.0900
25     H25     2.4777   -2.1435   -2.5317 H        1 ZINC000002509961    0.0400
26     H26     2.0030   -4.4117   -1.6494 H        1 ZINC000002509961    0.0300
27     H27     0.4533   -4.4279   -2.5247 H        1 ZINC000002509961    0.0600
28     H28     2.8206   -6.3581   -2.8141 H        1 ZINC000002509961    0.0400
29     H29     1.3316   -6.5189   -3.7760 H        1 ZINC000002509961    0.0500
30     H30     2.6497   -6.2589   -5.8601 H        1 ZINC000002509961    0.1000
31     H31     4.1388   -6.0980   -4.8982 H        1 ZINC000002509961    0.0500
32     H32     2.2869   -8.5244   -4.9196 H        1 ZINC000002509961    0.0500
33     H33     3.8656   -8.4163   -5.7347 H        1 ZINC000002509961    0.0500
34     H34     3.7759   -8.3635   -3.9578 H        1 ZINC000002509961    0.0400
@<TRIPOS>BOND
1     1     2     1
2     1     15    1
3     1     16    1
4     1     17    1
5     2     3     1
6     2     18    1
7     2     19    1
8     3     4     1
9     3     20    1
10    3     21    1
11    4     5     1
12    4     22    1
13    4     23    1
14    5     6     1
15    5     24    1
16    5     25    1
17    6     7     1
18    6     26    1
19    6     27    1
20    7     8     1
21    7     9     1
22    7     12    1
23    9     10    1
24    9     28    1
25    9     29    1
26    10    11    1
27    10    30    1
28    10    31    1
29    11    32    1
30    11    33    1
31    11    34    1
32    12    13    ar
33    12    14    ar
@<TRIPOS>SUBSTRUCTURE
1   ZINC000002509961 1     RESIDUE    1   A     ZIN   1
