@<TRIPOS>MOLECULE
ZINC000100015572
49    51    1     0     0
SMALL
USER_CHARGES
@<TRIPOS>ATOM
1      O1      0.2848    1.3225    0.5644 O.co2    1 ZINC000100015572   -0.7000
2      C2      0.0984    2.4860    0.2512 C.2      1 ZINC000100015572    0.4900
3      O3      1.0486    3.2187    0.0345 O.co2    1 ZINC000100015572   -0.7100
4      C4     -1.3064    3.0169    0.1260 C.3      1 ZINC000100015572   -0.1800
5      C5     -2.3036    1.9004    0.4422 C.3      1 ZINC000100015572   -0.0900
6      C6     -3.7299    2.4394    0.3150 C.3      1 ZINC000100015572   -0.0900
7      H7     -3.8445    3.3174    0.9507 H        1 ZINC000100015572    0.0700
8      C8     -4.0016    2.8246   -1.1406 C.3      1 ZINC000100015572   -0.1000
9      C9     -5.4279    3.3635   -1.2677 C.3      1 ZINC000100015572   -0.1100
10     C10    -6.4215    2.2849   -0.8316 C.3      1 ZINC000100015572   -0.4700
11     C11    -6.2630    1.0710   -1.7104 C.ar     1 ZINC000100015572   -0.0800
12     C12    -6.0866   -0.1756   -1.1414 C.ar     1 ZINC000100015572   -0.1100
13     C13    -5.9405   -1.2909   -1.9489 C.ar     1 ZINC000100015572    0.0900
14     F14    -5.7677   -2.5098   -1.3925 F        1 ZINC000100015572   -0.1300
15     C15    -5.9721   -1.1570   -3.3264 C.ar     1 ZINC000100015572   -0.1200
16     C16    -6.1489    0.0899   -3.8956 C.ar     1 ZINC000100015572   -0.1200
17     C17    -6.2997    1.2042   -3.0882 C.ar     1 ZINC000100015572    0.1000
18     F18    -6.4725    2.4231   -3.6447 F        1 ZINC000100015572   -0.1100
19     S19    -8.1125    2.9239   -0.9823 S.o2     1 ZINC000100015572    2.4900
20     O20    -8.3810    3.8708    0.0427 O.2      1 ZINC000100015572   -0.9300
21     O21    -8.4190    3.2078   -2.3405 O.2      1 ZINC000100015572   -0.9200
22     C22    -9.1393    1.5487   -0.5833 C.ar     1 ZINC000100015572   -0.6500
23     C23    -9.6449    0.7486   -1.5909 C.ar     1 ZINC000100015572    0.0000
24     C24   -10.4505   -0.3302   -1.2786 C.ar     1 ZINC000100015572   -0.1300
25     C25   -10.7508   -0.6093    0.0428 C.ar     1 ZINC000100015572    0.0200
26     Cl26  -11.7620   -1.9645    0.4359 Cl       1 ZINC000100015572   -0.0600
27     C27   -10.2445    0.1919    1.0508 C.ar     1 ZINC000100015572   -0.1300
28     C28    -9.4345    1.2671    0.7375 C.ar     1 ZINC000100015572   -0.0100
29     C29    -6.1497    1.8997    0.6240 C.3      1 ZINC000100015572   -0.1100
30     C30    -4.7234    1.3607    0.7511 C.3      1 ZINC000100015572   -0.1200
31     H31    -1.4478    3.8396    0.8269 H        1 ZINC000100015572    0.0500
32     H32    -1.4707    3.3736   -0.8908 H        1 ZINC000100015572    0.0600
33     H33    -2.1622    1.0777   -0.2588 H        1 ZINC000100015572    0.0600
34     H34    -2.1393    1.5437    1.4590 H        1 ZINC000100015572    0.0600
35     H35    -3.2938    3.5930   -1.4513 H        1 ZINC000100015572    0.0800
36     H36    -3.8870    1.9466   -1.7762 H        1 ZINC000100015572    0.0700
37     H37    -5.5425    4.2415   -0.6320 H        1 ZINC000100015572    0.0900
38     H38    -5.6215    3.6380   -2.3047 H        1 ZINC000100015572    0.0900
39     H39    -6.0624   -0.2801   -0.0667 H        1 ZINC000100015572    0.1600
40     H40    -5.8581   -2.0269   -3.9562 H        1 ZINC000100015572    0.1500
41     H41    -6.1731    0.1944   -4.9702 H        1 ZINC000100015572    0.1500
42     H42    -9.4107    0.9668   -2.6224 H        1 ZINC000100015572    0.1500
43     H43   -10.8457   -0.9550   -2.0659 H        1 ZINC000100015572    0.1400
44     H44   -10.4789   -0.0253    2.0824 H        1 ZINC000100015572    0.1500
45     H45    -9.0389    1.8923    1.5243 H        1 ZINC000100015572    0.1500
46     H46    -6.2644    2.7777    1.2597 H        1 ZINC000100015572    0.1000
47     H47    -6.8576    1.1312    0.9347 H        1 ZINC000100015572    0.0800
48     H48    -4.6088    0.4827    0.1155 H        1 ZINC000100015572    0.0800
49     H49    -4.5298    1.0863    1.7881 H        1 ZINC000100015572    0.0700
@<TRIPOS>BOND
1     1     2     ar
2     2     3     ar
3     2     4     1
4     4     5     1
5     4     31    1
6     4     32    1
7     5     6     1
8     5     33    1
9     5     34    1
10    6     7     1
11    6     30    1
12    6     8     1
13    8     9     1
14    8     35    1
15    8     36    1
16    9     10    1
17    9     37    1
18    9     38    1
19    10    11    1
20    10    19    1
21    10    29    1
22    11    17    ar
23    11    12    ar
24    12    13    ar
25    12    39    1
26    13    14    1
27    13    15    ar
28    15    16    ar
29    15    40    1
30    16    17    ar
31    16    41    1
32    17    18    1
33    19    20    2
34    19    21    2
35    19    22    1
36    22    28    ar
37    22    23    ar
38    23    24    ar
39    23    42    1
40    24    25    ar
41    24    43    1
42    25    26    1
43    25    27    ar
44    27    28    ar
45    27    44    1
46    28    45    1
47    29    30    1
48    29    46    1
49    29    47    1
50    30    48    1
51    30    49    1
@<TRIPOS>SUBSTRUCTURE
1   ZINC000100015572 1     RESIDUE    1   A     ZIN   1
