@<TRIPOS>MOLECULE
ZINC000004214587
58    60    1     0     0
SMALL
USER_CHARGES
@<TRIPOS>ATOM
1      C1      0.0240    1.7670   -0.4737 C.3      1 ZINC000004214587   -0.1600
2      C2      0.0160    0.2410   -0.3637 C.3      1 ZINC000004214587   -0.1300
3      C3      0.7500   -0.3606   -1.5638 C.3      1 ZINC000004214587   -0.1200
4      C4      0.7420   -1.8866   -1.4539 C.3      1 ZINC000004214587   -0.1100
5      C5      1.4760   -2.4883   -2.6540 C.3      1 ZINC000004214587    0.1000
6      H6      1.0303   -2.1170   -3.5768 H        1 ZINC000004214587    0.0800
7      C7      1.3630   -4.0172   -2.6096 C.3      1 ZINC000004214587   -0.2000
8      C8      2.2536   -4.5858   -3.6954 C.2      1 ZINC000004214587    0.3500
9      O9      1.8467   -5.4246   -4.4630 O.2      1 ZINC000004214587   -0.3800
10     C10     3.6730   -4.0636   -3.7835 C.3      1 ZINC000004214587    0.2000
11     O11     4.2747   -4.4920   -5.0068 O.3      1 ZINC000004214587   -0.5300
12     O12     4.4152   -4.5567   -2.6634 O.3      1 ZINC000004214587   -0.3800
13     C13     5.7415   -4.0320   -2.5854 C.3      1 ZINC000004214587    0.0300
14     H14     6.2977   -4.3157   -3.4788 H        1 ZINC000004214587    0.1200
15     C15     5.6654   -2.5045   -2.4948 C.3      1 ZINC000004214587    0.0400
16     H16     5.1407   -2.2205   -1.5826 H        1 ZINC000004214587    0.1100
17     O17     4.9507   -2.0099   -3.6285 O.3      1 ZINC000004214587   -0.3200
18     C18     3.6235   -2.5330   -3.7340 C.3      1 ZINC000004214587    0.2600
19     H19     3.1587   -2.1598   -4.6465 H        1 ZINC000004214587    0.1400
20     O20     2.8545   -2.1153   -2.6062 O.3      1 ZINC000004214587   -0.3800
21     C21     7.0824   -1.9327   -2.4661 C.3      1 ZINC000004214587    0.1000
22     H22     7.6148   -2.2327   -3.3687 H        1 ZINC000004214587    0.1100
23     O23     7.0209   -0.5065   -2.3997 O.3      1 ZINC000004214587   -0.5500
24     C24     7.8164   -2.4726   -1.2356 C.3      1 ZINC000004214587    0.0000
25     H25     7.2855   -2.1673   -0.3339 H        1 ZINC000004214587    0.1700
26     N26     9.1820   -1.9322   -1.2052 N.4      1 ZINC000004214587   -0.5000
27     H27     9.7028   -2.2897   -1.9920 H        1 ZINC000004214587    0.4300
28     H28     9.1464   -0.9251   -1.2550 H        1 ZINC000004214587    0.4600
29     C29     9.8414   -2.3377    0.0434 C.3      1 ZINC000004214587   -0.0600
30     C30     7.8763   -3.9995   -1.2980 C.3      1 ZINC000004214587    0.0700
31     H31     8.3895   -4.3785   -0.4142 H        1 ZINC000004214587    0.1300
32     O32     8.5897   -4.3996   -2.4698 O.3      1 ZINC000004214587   -0.5400
33     C33     6.4564   -4.5722   -1.3469 C.3      1 ZINC000004214587    0.0500
34     H34     5.9117   -4.2727   -0.4515 H        1 ZINC000004214587    0.1800
35     N35     6.5203   -6.0382   -1.4155 N.4      1 ZINC000004214587   -0.5000
36     H36     5.5895   -6.4104   -1.5304 H        1 ZINC000004214587    0.4500
37     H37     7.0919   -6.3136   -2.2000 H        1 ZINC000004214587    0.4400
38     C38     7.1071   -6.5613   -0.1746 C.3      1 ZINC000004214587   -0.0600
39     H39     1.0535    2.1250   -0.4867 H        1 ZINC000004214587    0.0500
40     H40    -0.4768    2.0677   -1.3939 H        1 ZINC000004214587    0.0600
41     H41    -0.4989    2.1956    0.3813 H        1 ZINC000004214587    0.0600
42     H42     0.5169   -0.0596    0.5565 H        1 ZINC000004214587    0.0600
43     H43    -1.0135   -0.1169   -0.3507 H        1 ZINC000004214587    0.0700
44     H44     0.2492   -0.0600   -2.4841 H        1 ZINC000004214587    0.0700
45     H45     1.7795   -0.0027   -1.5768 H        1 ZINC000004214587    0.0700
46     H46     1.2428   -2.1873   -0.5337 H        1 ZINC000004214587    0.0800
47     H47    -0.2875   -2.2446   -1.4409 H        1 ZINC000004214587    0.0900
48     H48     1.6902   -4.3824   -1.6362 H        1 ZINC000004214587    0.1200
49     H49     0.3297   -4.3153   -2.7872 H        1 ZINC000004214587    0.1200
50     H50     4.3219   -5.4527   -5.1066 H        1 ZINC000004214587    0.4000
51     H51     6.5637   -0.0973   -3.1471 H        1 ZINC000004214587    0.4300
52     H52    10.8130   -1.8491    0.1164 H        1 ZINC000004214587    0.1500
53     H53     9.2231   -2.0456    0.8922 H        1 ZINC000004214587    0.1400
54     H54     9.9772   -3.4192    0.0479 H        1 ZINC000004214587    0.1200
55     H55     9.5003   -4.0762   -2.5055 H        1 ZINC000004214587    0.4100
56     H56     8.1126   -6.1592   -0.0504 H        1 ZINC000004214587    0.1200
57     H57     6.4896   -6.2638    0.6730 H        1 ZINC000004214587    0.1300
58     H58     7.1545   -7.6491   -0.2254 H        1 ZINC000004214587    0.1400
@<TRIPOS>BOND
1     1     2     1
2     1     39    1
3     1     40    1
4     1     41    1
5     2     3     1
6     2     42    1
7     2     43    1
8     3     4     1
9     3     44    1
10    3     45    1
11    4     5     1
12    4     46    1
13    4     47    1
14    5     6     1
15    5     20    1
16    5     7     1
17    7     8     1
18    7     48    1
19    7     49    1
20    8     9     2
21    8     10    1
22    10    18    1
23    10    11    1
24    10    12    1
25    11    50    1
26    12    13    1
27    13    14    1
28    13    33    1
29    13    15    1
30    15    16    1
31    15    17    1
32    15    21    1
33    17    18    1
34    18    19    1
35    18    20    1
36    21    22    1
37    21    23    1
38    21    24    1
39    23    51    1
40    24    25    1
41    24    26    1
42    24    30    1
43    26    27    1
44    26    28    1
45    26    29    1
46    29    52    1
47    29    53    1
48    29    54    1
49    30    31    1
50    30    32    1
51    30    33    1
52    32    55    1
53    33    34    1
54    33    35    1
55    35    36    1
56    35    37    1
57    35    38    1
58    38    56    1
59    38    57    1
60    38    58    1
@<TRIPOS>SUBSTRUCTURE
1   ZINC000004214587 1     RESIDUE    1   A     ZIN   1
