@<TRIPOS>MOLECULE
ZINC000001615334
42    45    1     0     0
SMALL
USER_CHARGES
@<TRIPOS>ATOM
1      C1     -0.0167    1.3791    0.0096 C.ar     1 ZINC000001615334   -0.1200
2      C2      1.1686    2.0922    0.0021 C.ar     1 ZINC000001615334   -0.1200
3      C3      2.3774    1.4265   -0.0129 C.ar     1 ZINC000001615334   -0.1100
4      C4      2.4024    0.0329   -0.0206 C.ar     1 ZINC000001615334   -0.0500
5      C5      3.6983   -0.6882   -0.0363 C.ar     1 ZINC000001615334   -0.0400
6      C6      4.8948    0.0282   -0.0377 C.ar     1 ZINC000001615334   -0.1100
7      C7      6.0984   -0.6414   -0.0527 C.ar     1 ZINC000001615334   -0.1100
8      C8      6.1204   -2.0361   -0.0661 C.ar     1 ZINC000001615334   -0.0400
9      C9      7.4156   -2.7568   -0.0818 C.ar     1 ZINC000001615334   -0.0400
10     C10     8.6126   -2.0405   -0.0774 C.ar     1 ZINC000001615334   -0.1100
11     C11     9.8160   -2.7103   -0.0921 C.ar     1 ZINC000001615334   -0.1100
12     C12     9.8378   -4.1047   -0.1113 C.ar     1 ZINC000001615334   -0.0400
13     C13    11.1337   -4.8258   -0.1265 C.ar     1 ZINC000001615334   -0.0500
14     C14    12.3312   -4.1126   -0.1160 C.ar     1 ZINC000001615334   -0.1100
15     C15    13.5341   -4.7889   -0.1303 C.ar     1 ZINC000001615334   -0.1200
16     C16    13.5528   -6.1719   -0.1551 C.ar     1 ZINC000001615334   -0.1200
17     C17    12.3674   -6.8848   -0.1662 C.ar     1 ZINC000001615334   -0.1200
18     C18    11.1586   -6.2192   -0.1458 C.ar     1 ZINC000001615334   -0.1100
19     C19     8.6412   -4.8210   -0.1157 C.ar     1 ZINC000001615334   -0.1100
20     C20     7.4377   -4.1515   -0.0952 C.ar     1 ZINC000001615334   -0.1100
21     C21     4.9235   -2.7524   -0.0643 C.ar     1 ZINC000001615334   -0.1100
22     C22     3.7202   -2.0826   -0.0440 C.ar     1 ZINC000001615334   -0.1100
23     C23     1.2049   -0.6804   -0.0130 C.ar     1 ZINC000001615334   -0.1100
24     C24     0.0021   -0.0041    0.0020 C.ar     1 ZINC000001615334   -0.1200
25     H25    -0.9603    1.9042    0.0260 H        1 ZINC000001615334    0.1200
26     H26     1.1480    3.1720    0.0077 H        1 ZINC000001615334    0.1300
27     H27     3.3022    1.9843   -0.0191 H        1 ZINC000001615334    0.1300
28     H28     4.8777    1.1080   -0.0273 H        1 ZINC000001615334    0.1300
29     H29     7.0250   -0.0866   -0.0545 H        1 ZINC000001615334    0.1300
30     H30     8.5957   -0.9607   -0.0629 H        1 ZINC000001615334    0.1300
31     H31    10.7427   -2.1558   -0.0890 H        1 ZINC000001615334    0.1300
32     H32    12.3178   -3.0329   -0.0969 H        1 ZINC000001615334    0.1300
33     H33    14.4626   -4.2374   -0.1225 H        1 ZINC000001615334    0.1300
34     H34    14.4965   -6.6970   -0.1663 H        1 ZINC000001615334    0.1200
35     H35    12.3879   -7.9645   -0.1859 H        1 ZINC000001615334    0.1300
36     H36    10.2337   -6.7769   -0.1541 H        1 ZINC000001615334    0.1300
37     H37     8.6583   -5.9007   -0.1309 H        1 ZINC000001615334    0.1300
38     H38     6.5110   -4.7062   -0.0987 H        1 ZINC000001615334    0.1300
39     H39     4.9404   -3.8323   -0.0747 H        1 ZINC000001615334    0.1300
40     H40     2.7934   -2.6372   -0.0422 H        1 ZINC000001615334    0.1300
41     H41     1.2184   -1.7603   -0.0193 H        1 ZINC000001615334    0.1300
42     H42    -0.9264   -0.5557    0.0083 H        1 ZINC000001615334    0.1300
@<TRIPOS>BOND
1     1     24    ar
2     1     2     ar
3     1     25    1
4     2     3     ar
5     2     26    1
6     3     4     ar
7     3     27    1
8     4     5     1
9     4     23    ar
10    5     22    ar
11    5     6     ar
12    6     7     ar
13    6     28    1
14    7     8     ar
15    7     29    1
16    8     9     1
17    8     21    ar
18    9     20    ar
19    9     10    ar
20    10    11    ar
21    10    30    1
22    11    12    ar
23    11    31    1
24    12    13    1
25    12    19    ar
26    13    18    ar
27    13    14    ar
28    14    15    ar
29    14    32    1
30    15    16    ar
31    15    33    1
32    16    17    ar
33    16    34    1
34    17    18    ar
35    17    35    1
36    18    36    1
37    19    20    ar
38    19    37    1
39    20    38    1
40    21    22    ar
41    21    39    1
42    22    40    1
43    23    24    ar
44    23    41    1
45    24    42    1
@<TRIPOS>SUBSTRUCTURE
1   ZINC000001615334 1     RESIDUE    1   A     ZIN   1
