@<TRIPOS>MOLECULE
ZINC000034893919
71    73    1     0     0
SMALL
USER_CHARGES
@<TRIPOS>ATOM
1      C1      0.2974    1.2526   -0.0289 C.3      1 ZINC000034893919   -0.1500
2      C2      0.2059   -0.2687    0.1054 C.3      1 ZINC000034893919    0.0600
3      O3     -1.1843   -0.6793    0.0212 O.3      1 ZINC000034893919   -0.3500
4      C4     -1.4388   -1.9934    0.1217 C.2      1 ZINC000034893919    0.4700
5      O5     -0.5300   -2.7747    0.2750 O.2      1 ZINC000034893919   -0.4900
6      C6     -2.8580   -2.4942    0.0433 C.3      1 ZINC000034893919    0.0800
7      H7     -3.2892   -2.2153   -0.9181 H        1 ZINC000034893919    0.1000
8      C8     -3.6818   -1.8708    1.1719 C.3      1 ZINC000034893919   -0.1600
9      N9     -2.8693   -3.9568    0.1792 N.3      1 ZINC000034893919   -1.0300
10     P10    -4.0556   -4.6441   -0.7970 P.3      1 ZINC000034893919    2.4000
11     O11    -4.1064   -6.1038   -0.5581 O.2      1 ZINC000034893919   -0.9900
12     C12    -5.6740   -3.9062   -0.3975 C.3      1 ZINC000034893919   -0.5400
13     O13    -6.6568   -4.3876   -1.3164 O.3      1 ZINC000034893919   -0.3500
14     C14    -7.0811   -5.7286   -1.0638 C.3      1 ZINC000034893919    0.0100
15     C15    -8.0618   -6.1670   -2.1533 C.3      1 ZINC000034893919    0.1200
16     N16    -8.4967   -7.5418   -1.8944 N.pl3    1 ZINC000034893919   -0.4700
17     C17    -7.9523   -8.6745   -2.4258 C.2      1 ZINC000034893919    0.2400
18     N18    -8.5836   -9.7214   -1.9811 N.2      1 ZINC000034893919   -0.4500
19     C19    -9.5706   -9.3291   -1.1385 C.ar     1 ZINC000034893919   -0.1500
20     C20   -10.5468  -10.0007   -0.3825 C.ar     1 ZINC000034893919    0.5500
21     N21   -10.6352  -11.3812   -0.4093 N.pl3    1 ZINC000034893919   -0.6600
22     C22   -11.6588  -12.0652    0.3848 C.3      1 ZINC000034893919    0.0900
23     C23   -12.4231  -13.2101   -0.2832 C.3      1 ZINC000034893919   -0.1900
24     C24   -11.3828  -13.5125    0.7972 C.3      1 ZINC000034893919   -0.1900
25     N25   -11.3825   -9.2816    0.3586 N.ar     1 ZINC000034893919   -0.6300
26     C26   -11.3048   -7.9574    0.3907 C.ar     1 ZINC000034893919    0.6300
27     N27   -12.1999   -7.2539    1.1797 N.pl3    1 ZINC000034893919   -0.8200
28     N28   -10.4013   -7.2859   -0.3047 N.ar     1 ZINC000034893919   -0.6100
29     C29    -9.5224   -7.9269   -1.0686 C.ar     1 ZINC000034893919    0.3500
30     N30    -3.6898   -4.3527   -2.4137 N.3      1 ZINC000034893919   -1.0600
31     C31    -2.3894   -4.9343   -2.7724 C.3      1 ZINC000034893919    0.1100
32     H32    -1.7715   -5.0215   -1.8787 H        1 ZINC000034893919    0.1100
33     C33    -2.6019   -6.3210   -3.3829 C.3      1 ZINC000034893919   -0.1900
34     C34    -1.7004   -4.0444   -3.7747 C.2      1 ZINC000034893919    0.4600
35     O35    -2.2375   -3.0298   -4.1515 O.2      1 ZINC000034893919   -0.4800
36     O36    -0.4900   -4.3789   -4.2487 O.3      1 ZINC000034893919   -0.3600
37     C37     0.1139   -3.4749   -5.2112 C.3      1 ZINC000034893919    0.0600
38     C38     1.4802   -4.0185   -5.6339 C.3      1 ZINC000034893919   -0.1500
39     H39     1.3410    1.5608    0.0343 H        1 ZINC000034893919    0.0800
40     H40    -0.1139    1.5578   -0.9911 H        1 ZINC000034893919    0.0700
41     H41    -0.2696    1.7230    0.7744 H        1 ZINC000034893919    0.0700
42     H42     0.7729   -0.7392   -0.6979 H        1 ZINC000034893919    0.0700
43     H43     0.6172   -0.5740    1.0675 H        1 ZINC000034893919    0.0800
44     H44    -3.6050   -0.7847    1.1206 H        1 ZINC000034893919    0.0900
45     H45    -4.7256   -2.1666    1.0659 H        1 ZINC000034893919    0.0700
46     H46    -3.3019   -2.2169    2.1331 H        1 ZINC000034893919    0.0900
47     H47    -1.9615   -4.3461   -0.0265 H        1 ZINC000034893919    0.4000
48     H48    -5.9589   -4.1831    0.6175 H        1 ZINC000034893919    0.1100
49     H49    -5.6070   -2.8209   -0.4728 H        1 ZINC000034893919    0.1200
50     H50    -6.2150   -6.3904   -1.0670 H        1 ZINC000034893919    0.1000
51     H51    -7.5721   -5.7775   -0.0919 H        1 ZINC000034893919    0.0700
52     H52    -8.9279   -5.5052   -2.1502 H        1 ZINC000034893919    0.1000
53     H53    -7.5708   -6.1182   -3.1252 H        1 ZINC000034893919    0.1100
54     H54    -7.1203   -8.6983   -3.1139 H        1 ZINC000034893919    0.2200
55     H55   -10.0195  -11.8962   -0.9539 H        1 ZINC000034893919    0.4200
56     H56   -12.2059  -11.4372    1.0878 H        1 ZINC000034893919    0.1400
57     H57   -13.4733  -13.3353   -0.0197 H        1 ZINC000034893919    0.1000
58     H58   -12.1643  -13.4543   -1.3135 H        1 ZINC000034893919    0.1000
59     H59   -10.4396  -13.9557    0.4777 H        1 ZINC000034893919    0.1000
60     H60   -11.7487  -13.8367    1.7714 H        1 ZINC000034893919    0.1100
61     H61   -12.8688   -7.7296    1.6965 H        1 ZINC000034893919    0.4200
62     H62   -12.1578   -6.2854    1.2153 H        1 ZINC000034893919    0.4100
63     H63    -4.4199   -4.6993   -3.0178 H        1 ZINC000034893919    0.4000
64     H64    -3.2198   -6.2338   -4.2766 H        1 ZINC000034893919    0.0700
65     H65    -1.6370   -6.7526   -3.6491 H        1 ZINC000034893919    0.0900
66     H66    -3.1003   -6.9646   -2.6580 H        1 ZINC000034893919    0.1000
67     H67    -0.5308   -3.3924   -6.0863 H        1 ZINC000034893919    0.0700
68     H68     0.2385   -2.4917   -4.7577 H        1 ZINC000034893919    0.0700
69     H69     2.1249   -4.1011   -4.7589 H        1 ZINC000034893919    0.0700
70     H70     1.3556   -5.0018   -6.0875 H        1 ZINC000034893919    0.0700
71     H71     1.9335   -3.3399   -6.3564 H        1 ZINC000034893919    0.0800
@<TRIPOS>BOND
1     1     2     1
2     1     39    1
3     1     40    1
4     1     41    1
5     2     3     1
6     2     42    1
7     2     43    1
8     3     4     1
9     4     5     2
10    4     6     1
11    6     7     1
12    6     8     1
13    6     9     1
14    8     44    1
15    8     45    1
16    8     46    1
17    9     10    1
18    9     47    1
19    10    11    2
20    10    12    1
21    10    30    1
22    12    13    1
23    12    48    1
24    12    49    1
25    13    14    1
26    14    15    1
27    14    50    1
28    14    51    1
29    15    16    1
30    15    52    1
31    15    53    1
32    16    29    1
33    16    17    1
34    17    18    2
35    17    54    1
36    18    19    1
37    19    29    ar
38    19    20    ar
39    20    21    1
40    20    25    ar
41    21    22    1
42    21    55    1
43    22    24    1
44    22    23    1
45    22    56    1
46    23    24    1
47    23    57    1
48    23    58    1
49    24    59    1
50    24    60    1
51    25    26    ar
52    26    27    1
53    26    28    ar
54    27    61    1
55    27    62    1
56    28    29    ar
57    30    31    1
58    30    63    1
59    31    32    1
60    31    33    1
61    31    34    1
62    33    64    1
63    33    65    1
64    33    66    1
65    34    35    2
66    34    36    1
67    36    37    1
68    37    38    1
69    37    67    1
70    37    68    1
71    38    69    1
72    38    70    1
73    38    71    1
@<TRIPOS>SUBSTRUCTURE
1   ZINC000034893919 1     RESIDUE    1   A     ZIN   1
