@<TRIPOS>MOLECULE
ZINC000059676426
77    82    1     0     0
SMALL
USER_CHARGES
@<TRIPOS>ATOM
1      C1     -0.0744    1.3944   -0.7284 C.3      1 ZINC000059676426   -0.1200
2      C2     -0.0587   -0.1101   -0.6429 C.ar     1 ZINC000059676426    0.0200
3      C3     -0.1341   -0.8883   -1.7852 C.ar     1 ZINC000059676426   -0.2100
4      C4     -0.1169   -2.2676   -1.6671 C.ar     1 ZINC000059676426    0.1800
5      C5     -0.1991   -3.1145   -2.9109 C.3      1 ZINC000059676426   -0.1000
6      N6     -0.0299   -2.8561   -0.4927 N.ar     1 ZINC000059676426   -0.5100
7      C7      0.0451   -2.1596    0.6353 C.ar     1 ZINC000059676426    0.3500
8      C8      0.0381   -0.7562    0.5878 C.ar     1 ZINC000059676426   -0.1600
9      C9      0.1319   -0.2867    1.9811 C.ar     1 ZINC000059676426   -0.0900
10     C10     0.1896   -1.4368    2.7821 C.ar     1 ZINC000059676426    0.1500
11     C11     0.2839   -1.3003    4.1636 C.ar     1 ZINC000059676426   -0.1400
12     C12     0.3193   -0.0453    4.7323 C.ar     1 ZINC000059676426   -0.0800
13     C13     0.2618    1.0903    3.9390 C.ar     1 ZINC000059676426   -0.1500
14     C14     0.1691    0.9755    2.5688 C.ar     1 ZINC000059676426   -0.0700
15     N15     0.1411   -2.5463    1.9560 N.pl3    1 ZINC000059676426   -0.4800
16     C16     0.1774   -3.9356    2.4195 C.3      1 ZINC000059676426    0.1600
17     C17    -1.2280   -4.4184    2.6703 C.ar     1 ZINC000059676426   -0.1100
18     C18    -1.8028   -4.2549    3.9166 C.ar     1 ZINC000059676426   -0.1000
19     C19    -3.0921   -4.6978    4.1467 C.ar     1 ZINC000059676426   -0.1200
20     C20    -3.8064   -5.3037    3.1303 C.ar     1 ZINC000059676426   -0.0900
21     C21    -3.2317   -5.4665    1.8834 C.ar     1 ZINC000059676426   -0.0800
22     C22    -4.0104   -6.1275    0.7754 C.3      1 ZINC000059676426   -0.0500
23     H23    -3.3983   -6.1663   -0.1257 H        1 ZINC000059676426    0.1000
24     C24    -4.3837   -7.5275    1.1897 C.2      1 ZINC000059676426    0.5300
25     O25    -5.3875   -7.7193    1.8428 O.2      1 ZINC000059676426   -0.5300
26     N26    -3.6020   -8.5664    0.8346 N.am     1 ZINC000059676426   -0.7200
27     C27    -4.0253   -9.9370    1.1324 C.3      1 ZINC000059676426    0.1900
28     H28    -4.5601   -9.9538    2.0821 H        1 ZINC000059676426    0.1100
29     C29    -4.9468  -10.4394    0.0192 C.3      1 ZINC000059676426    0.0700
30     O30    -4.2125  -10.5277   -1.2035 O.3      1 ZINC000059676426   -0.5600
31     C31    -2.8137  -10.8286    1.2223 C.ar     1 ZINC000059676426   -0.0900
32     C32    -1.7665  -10.6632    0.3353 C.ar     1 ZINC000059676426   -0.0900
33     C33    -0.6551  -11.4810    0.4177 C.ar     1 ZINC000059676426   -0.1200
34     C34    -0.5908  -12.4641    1.3874 C.ar     1 ZINC000059676426   -0.1200
35     C35    -1.6377  -12.6290    2.2750 C.ar     1 ZINC000059676426   -0.1200
36     C36    -2.7472  -11.8083    2.1953 C.ar     1 ZINC000059676426   -0.1100
37     C37    -5.2810   -5.3228    0.4946 C.3      1 ZINC000059676426   -0.0700
38     C38    -4.9241   -3.9260   -0.0716 C.3      1 ZINC000059676426   -0.1100
39     C39    -6.2112   -3.5278   -0.8357 C.3      1 ZINC000059676426   -0.1200
40     C40    -6.6952   -4.8460   -1.4743 C.3      1 ZINC000059676426   -0.1200
41     C41    -6.1038   -5.9873   -0.6285 C.3      1 ZINC000059676426   -0.1200
42     C42    -1.9444   -5.0198    1.6522 C.ar     1 ZINC000059676426   -0.0800
43     H43     0.9465    1.7635   -0.8263 H        1 ZINC000059676426    0.0800
44     H44    -0.6571    1.7029   -1.5965 H        1 ZINC000059676426    0.0700
45     H45    -0.5241    1.8050    0.1756 H        1 ZINC000059676426    0.0700
46     H46    -0.2060   -0.4245   -2.7579 H        1 ZINC000059676426    0.1400
47     H47     0.8062   -3.3120   -3.2830 H        1 ZINC000059676426    0.0800
48     H48    -0.6916   -4.0581   -2.6761 H        1 ZINC000059676426    0.0800
49     H49    -0.7713   -2.5858   -3.6732 H        1 ZINC000059676426    0.0800
50     H50     0.3289   -2.1783    4.7908 H        1 ZINC000059676426    0.1200
51     H51     0.3922    0.0543    5.8052 H        1 ZINC000059676426    0.1300
52     H52     0.2897    2.0683    4.3965 H        1 ZINC000059676426    0.1300
53     H53     0.1241    1.8614    1.9527 H        1 ZINC000059676426    0.1300
54     H54     0.6459   -4.5603    1.6589 H        1 ZINC000059676426    0.1000
55     H55     0.7525   -3.9954    3.3435 H        1 ZINC000059676426    0.0900
56     H56    -1.2446   -3.7814    4.7108 H        1 ZINC000059676426    0.1200
57     H57    -3.5410   -4.5707    5.1207 H        1 ZINC000059676426    0.1300
58     H58    -4.8133   -5.6503    3.3103 H        1 ZINC000059676426    0.1300
59     H59    -2.7591   -8.4067    0.3819 H        1 ZINC000059676426    0.4000
60     H60    -5.3324  -11.4240    0.2834 H        1 ZINC000059676426    0.0600
61     H61    -5.7779   -9.7452   -0.1055 H        1 ZINC000059676426    0.0500
62     H62    -4.7352  -10.8404   -1.9546 H        1 ZINC000059676426    0.3800
63     H63    -1.8167   -9.8951   -0.4223 H        1 ZINC000059676426    0.1200
64     H64     0.1628  -11.3522   -0.2757 H        1 ZINC000059676426    0.1200
65     H65     0.2772  -13.1036    1.4514 H        1 ZINC000059676426    0.1200
66     H66    -1.5876  -13.3972    3.0324 H        1 ZINC000059676426    0.1200
67     H67    -3.5651  -11.9371    2.8887 H        1 ZINC000059676426    0.1200
68     H68    -5.8794   -5.2279    1.4007 H        1 ZINC000059676426    0.0900
69     H69    -4.7208   -3.2224    0.7357 H        1 ZINC000059676426    0.0600
70     H70    -4.0751   -3.9905   -0.7522 H        1 ZINC000059676426    0.0700
71     H71    -6.9605   -3.1408   -0.1451 H        1 ZINC000059676426    0.0700
72     H72    -5.9848   -2.7911   -1.6064 H        1 ZINC000059676426    0.0700
73     H73    -7.7840   -4.8925   -1.4550 H        1 ZINC000059676426    0.0600
74     H74    -6.3361   -4.9174   -2.5010 H        1 ZINC000059676426    0.0600
75     H75    -5.4577   -6.6126   -1.2447 H        1 ZINC000059676426    0.0600
76     H76    -6.9056   -6.5877   -0.1988 H        1 ZINC000059676426    0.0700
77     H77    -1.4955   -5.1469    0.6781 H        1 ZINC000059676426    0.1300
@<TRIPOS>BOND
1     1     2     1
2     1     43    1
3     1     44    1
4     1     45    1
5     2     8     ar
6     2     3     ar
7     3     4     ar
8     3     46    1
9     4     5     1
10    4     6     ar
11    5     47    1
12    5     48    1
13    5     49    1
14    6     7     ar
15    7     15    1
16    7     8     ar
17    8     9     1
18    9     14    ar
19    9     10    ar
20    10    11    ar
21    10    15    1
22    11    12    ar
23    11    50    1
24    12    13    ar
25    12    51    1
26    13    14    ar
27    13    52    1
28    14    53    1
29    15    16    1
30    16    17    1
31    16    54    1
32    16    55    1
33    17    42    ar
34    17    18    ar
35    18    19    ar
36    18    56    1
37    19    20    ar
38    19    57    1
39    20    21    ar
40    20    58    1
41    21    22    1
42    21    42    ar
43    22    23    1
44    22    24    1
45    22    37    1
46    24    25    2
47    24    26    am
48    26    27    1
49    26    59    1
50    27    28    1
51    27    29    1
52    27    31    1
53    29    30    1
54    29    60    1
55    29    61    1
56    30    62    1
57    31    36    ar
58    31    32    ar
59    32    33    ar
60    32    63    1
61    33    34    ar
62    33    64    1
63    34    35    ar
64    34    65    1
65    35    36    ar
66    35    66    1
67    36    67    1
68    37    41    1
69    37    38    1
70    37    68    1
71    38    39    1
72    38    69    1
73    38    70    1
74    39    40    1
75    39    71    1
76    39    72    1
77    40    41    1
78    40    73    1
79    40    74    1
80    41    75    1
81    41    76    1
82    42    77    1
@<TRIPOS>SUBSTRUCTURE
1   ZINC000059676426 1     RESIDUE    1   A     ZIN   1
