@<TRIPOS>MOLECULE
ZINC000004802676
75    77    1     0     0
SMALL
USER_CHARGES
@<TRIPOS>ATOM
1      C1      1.6086    4.0948    1.2578 C.2      1 ZINC000004802676   -0.1500
2      C2      1.9764    2.8187    1.1440 C.2      1 ZINC000004802676   -0.1300
3      C3      0.9956    1.7531    0.8497 C.2      1 ZINC000004802676   -0.0900
4      C4     -0.2073    1.7113    1.4590 C.2      1 ZINC000004802676   -0.1000
5      C5     -0.5679    2.7385    2.4390 C.2      1 ZINC000004802676   -0.1500
6      C6     -1.7564    2.6972    3.0411 C.2      1 ZINC000004802676   -0.0800
7      C7     -2.7863    1.6077    2.7637 C.3      1 ZINC000004802676   -0.0900
8      C8     -3.2735    0.9708    4.0631 C.3      1 ZINC000004802676   -0.1200
9      C9     -3.6604    2.0268    5.1152 C.3      1 ZINC000004802676   -0.1000
10     C10    -2.4587    2.8950    5.3427 C.3      1 ZINC000004802676   -0.0300
11     C11    -1.2558    1.9659    5.5176 C.3      1 ZINC000004802676   -0.1500
12     C12    -2.3836    3.8934    6.4329 C.2      1 ZINC000004802676   -0.1000
13     C13    -3.0752    3.7910    7.7679 C.3      1 ZINC000004802676   -0.0300
14     H14    -2.8391    4.6699    8.3678 H        1 ZINC000004802676    0.0800
15     C15    -4.5880    3.7112    7.5538 C.3      1 ZINC000004802676   -0.1500
16     C16    -2.5960    2.5332    8.4954 C.3      1 ZINC000004802676   -0.0800
17     C17    -3.1929    2.4948    9.8786 C.2      1 ZINC000004802676   -0.1400
18     C18    -3.8768    1.4475   10.2679 C.2      1 ZINC000004802676   -0.1900
19     C19    -4.4737    1.4090   11.6511 C.3      1 ZINC000004802676    0.1600
20     O20    -4.1583    2.6207   12.3399 O.3      1 ZINC000004802676   -0.5500
21     C21    -5.9931    1.2622   11.5470 C.3      1 ZINC000004802676   -0.1400
22     C22    -6.5995    1.2262   12.9513 C.3      1 ZINC000004802676   -0.1500
23     C23    -3.8981    0.2194   12.4221 C.3      1 ZINC000004802676   -0.1100
24     C24    -2.3714    0.3169   12.4447 C.3      1 ZINC000004802676   -0.1500
25     C25    -1.6053    4.8933    6.0390 C.2      1 ZINC000004802676   -0.1700
26     C26    -1.1255    4.6617    4.6086 C.3      1 ZINC000004802676   -0.0900
27     C27    -2.1917    3.7163    4.0547 C.3      1 ZINC000004802676   -0.0600
28     H28    -3.0796    4.2595    3.7312 H        1 ZINC000004802676    0.0900
29     C29     1.4062    0.7098   -0.1701 C.3      1 ZINC000004802676   -0.1100
30     C30     2.8282    0.2451    0.1605 C.3      1 ZINC000004802676    0.1100
31     H31     2.8368   -0.2231    1.1448 H        1 ZINC000004802676    0.0600
32     O32     3.2586   -0.7016   -0.8196 O.3      1 ZINC000004802676   -0.5700
33     C33     3.7783    1.4434    0.1594 C.3      1 ZINC000004802676   -0.1400
34     C34     3.4217    2.3911    1.3037 C.3      1 ZINC000004802676    0.1400
35     H35     4.0711    3.2660    1.2717 H        1 ZINC000004802676    0.1000
36     F36     3.5788    1.7322    2.5277 F        1 ZINC000004802676   -0.2000
37     H37     2.3480    4.8531    1.4689 H        1 ZINC000004802676    0.1100
38     H38     0.5718    4.3710    1.1346 H        1 ZINC000004802676    0.1200
39     H39    -0.9044    0.9205    1.2242 H        1 ZINC000004802676    0.1200
40     H40     0.1292    3.5292    2.6738 H        1 ZINC000004802676    0.1300
41     H41    -3.6360    2.0439    2.2384 H        1 ZINC000004802676    0.0700
42     H42    -2.3346    0.8396    2.1360 H        1 ZINC000004802676    0.0700
43     H43    -4.1429    0.3492    3.8487 H        1 ZINC000004802676    0.0600
44     H44    -2.4811    0.3412    4.4678 H        1 ZINC000004802676    0.0700
45     H45    -4.4893    2.6309    4.7464 H        1 ZINC000004802676    0.0600
46     H46    -3.9442    1.5358    6.0460 H        1 ZINC000004802676    0.0700
47     H47    -1.1211    1.3719    4.6137 H        1 ZINC000004802676    0.0700
48     H48    -0.3605    2.5607    5.6983 H        1 ZINC000004802676    0.0500
49     H49    -1.4289    1.3031    6.3655 H        1 ZINC000004802676    0.0500
50     H50    -5.0882    3.6371    8.5194 H        1 ZINC000004802676    0.0600
51     H51    -4.9295    4.6072    7.0355 H        1 ZINC000004802676    0.0500
52     H52    -4.8242    2.8322    6.9539 H        1 ZINC000004802676    0.0600
53     H53    -2.9102    1.6500    7.9394 H        1 ZINC000004802676    0.0700
54     H54    -1.5086    2.5483    8.5692 H        1 ZINC000004802676    0.0700
55     H55    -3.0569    3.3306   10.5489 H        1 ZINC000004802676    0.1100
56     H56    -4.0129    0.6117    9.5976 H        1 ZINC000004802676    0.1100
57     H57    -4.4930    3.4179   11.9068 H        1 ZINC000004802676    0.3700
58     H58    -6.4030    2.1086   10.9959 H        1 ZINC000004802676    0.0600
59     H59    -6.2337    0.3369   11.0235 H        1 ZINC000004802676    0.0700
60     H60    -6.2689    2.1003   13.5123 H        1 ZINC000004802676    0.0600
61     H61    -7.6870    1.2316   12.8777 H        1 ZINC000004802676    0.0500
62     H62    -6.2745    0.3210   13.4642 H        1 ZINC000004802676    0.0600
63     H63    -4.2781    0.2303   13.4437 H        1 ZINC000004802676    0.0700
64     H64    -4.1957   -0.7085   11.9337 H        1 ZINC000004802676    0.0700
65     H65    -1.9845    0.1958   11.4329 H        1 ZINC000004802676    0.0500
66     H66    -2.0753    1.2915   12.8327 H        1 ZINC000004802676    0.0600
67     H67    -1.9667   -0.4672   13.0847 H        1 ZINC000004802676    0.0500
68     H68    -1.3478    5.7496    6.6447 H        1 ZINC000004802676    0.1200
69     H69    -1.1052    5.5978    4.0506 H        1 ZINC000004802676    0.0700
70     H70    -0.1458    4.1839    4.6014 H        1 ZINC000004802676    0.0800
71     H71     0.7228   -0.1381   -0.1236 H        1 ZINC000004802676    0.0800
72     H72     1.3851    1.1447   -1.1693 H        1 ZINC000004802676    0.0900
73     H73     2.7045   -1.4923   -0.8725 H        1 ZINC000004802676    0.3800
74     H74     4.8031    1.0934    0.2834 H        1 ZINC000004802676    0.0900
75     H75     3.6901    1.9748   -0.7882 H        1 ZINC000004802676    0.0900
@<TRIPOS>BOND
1     1     2     2
2     1     37    1
3     1     38    1
4     2     34    1
5     2     3     1
6     3     4     2
7     3     29    1
8     4     5     1
9     4     39    1
10    5     6     2
11    5     40    1
12    6     27    1
13    6     7     1
14    7     8     1
15    7     41    1
16    7     42    1
17    8     9     1
18    8     43    1
19    8     44    1
20    9     10    1
21    9     45    1
22    9     46    1
23    10    27    1
24    10    11    1
25    10    12    1
26    11    47    1
27    11    48    1
28    11    49    1
29    12    13    1
30    12    25    2
31    13    14    1
32    13    15    1
33    13    16    1
34    15    50    1
35    15    51    1
36    15    52    1
37    16    17    1
38    16    53    1
39    16    54    1
40    17    18    2
41    17    55    1
42    18    19    1
43    18    56    1
44    19    20    1
45    19    21    1
46    19    23    1
47    20    57    1
48    21    22    1
49    21    58    1
50    21    59    1
51    22    60    1
52    22    61    1
53    22    62    1
54    23    24    1
55    23    63    1
56    23    64    1
57    24    65    1
58    24    66    1
59    24    67    1
60    25    26    1
61    25    68    1
62    26    27    1
63    26    69    1
64    26    70    1
65    27    28    1
66    29    30    1
67    29    71    1
68    29    72    1
69    30    31    1
70    30    32    1
71    30    33    1
72    32    73    1
73    33    34    1
74    33    74    1
75    33    75    1
76    34    35    1
77    34    36    1
@<TRIPOS>SUBSTRUCTURE
1   ZINC000004802676 1     RESIDUE    1   A     ZIN   1
