@<TRIPOS>MOLECULE
ZINC000015987659
32    31    1     0     0
SMALL
USER_CHARGES
@<TRIPOS>ATOM
1      C1     -0.3005    1.3708    0.4028 C.3      1 ZINC000015987659    0.0300
2      O2     -0.2330   -0.0775    0.3245 O.3      1 ZINC000015987659   -0.3300
3      C3      0.3939   -0.6017   -0.7403 C.2      1 ZINC000015987659    0.4500
4      O4      0.8706    0.1256   -1.5792 O.2      1 ZINC000015987659   -0.4800
5      C5      0.5034   -2.0973   -0.8895 C.3      1 ZINC000015987659    0.0400
6      H6     -0.4328   -2.5627   -0.5812 H        1 ZINC000015987659    0.1800
7      N7      0.7768   -2.4306   -2.2938 N.4      1 ZINC000015987659   -0.6300
8      H8      0.8501   -3.4320   -2.3936 H        1 ZINC000015987659    0.4500
9      H9      0.0247   -2.0890   -2.8732 H        1 ZINC000015987659    0.4500
10     H10     1.6435   -1.9999   -2.5791 H        1 ZINC000015987659    0.4400
11     C11     1.6439   -2.6154   -0.0109 C.3      1 ZINC000015987659   -0.1400
12     C12     1.6756   -4.1441   -0.0653 C.3      1 ZINC000015987659   -0.1500
13     C13     2.8160   -4.6621    0.8132 C.3      1 ZINC000015987659    0.1000
14     N14     2.8464   -6.1259    0.7611 N.pl3    1 ZINC000015987659   -0.6900
15     C15     3.7753   -6.8066    1.4633 C.2      1 ZINC000015987659    0.7100
16     N16     4.6763   -6.1396    2.2133 N.pl3    1 ZINC000015987659   -0.8400
17     N17     3.8032   -8.1523    1.4154 N.2      1 ZINC000015987659   -0.5400
18     N18     4.6304   -8.8071    2.1577 N.pl3    1 ZINC000015987659    0.2200
19     O19     4.2829   -9.1994    3.2572 O.2      1 ZINC000015987659   -0.2100
20     O20     5.7589   -9.0330    1.7591 O.2      1 ZINC000015987659   -0.2200
21     H21     0.7091    1.7808    0.4262 H        1 ZINC000015987659    0.0800
22     H22    -0.8296    1.7574   -0.4682 H        1 ZINC000015987659    0.0800
23     H23    -0.8318    1.6613    1.3091 H        1 ZINC000015987659    0.1200
24     H24     2.5918   -2.2191   -0.3751 H        1 ZINC000015987659    0.1100
25     H25     1.4859   -2.2916    1.0178 H        1 ZINC000015987659    0.1300
26     H26     0.7277   -4.5403    0.2988 H        1 ZINC000015987659    0.1000
27     H27     1.8335   -4.4678   -1.0941 H        1 ZINC000015987659    0.0800
28     H28     3.7639   -4.2659    0.4491 H        1 ZINC000015987659    0.0900
29     H29     2.6581   -4.3383    1.8420 H        1 ZINC000015987659    0.0900
30     H30     2.1984   -6.6055    0.2217 H        1 ZINC000015987659    0.4300
31     H31     4.7170   -5.1712    2.1755 H        1 ZINC000015987659    0.4200
32     H32     5.2836   -6.6284    2.7906 H        1 ZINC000015987659    0.4300
@<TRIPOS>BOND
1     1     2     1
2     1     21    1
3     1     22    1
4     1     23    1
5     2     3     1
6     3     4     2
7     3     5     1
8     5     6     1
9     5     7     1
10    5     11    1
11    7     8     1
12    7     9     1
13    7     10    1
14    11    12    1
15    11    24    1
16    11    25    1
17    12    13    1
18    12    26    1
19    12    27    1
20    13    14    1
21    13    28    1
22    13    29    1
23    14    15    1
24    14    30    1
25    15    16    1
26    15    17    2
27    16    31    1
28    16    32    1
29    17    18    1
30    18    19    2
31    18    20    2
@<TRIPOS>SUBSTRUCTURE
1   ZINC000015987659 1     RESIDUE    1   A     ZIN   1
