@<TRIPOS>MOLECULE
ZINC000003932233
  32   32    0    0    0
SMALL
USER_CHARGES
NO_NAME
@<TRIPOS>ATOM
    1 C1        0.0548     1.2680     0.7437 C.3    1 <0>      -0.1500
    2 C2        0.1971    -0.2460     0.5750 C.3    1 <0>      -0.0900
    3 H3       -0.7547    -0.7414     0.7668 H      1 <0>       0.0700
    4 C4        0.7070    -0.5859    -0.8407 C.3    1 <0>      -0.1300
    5 C5        1.6751    -1.7719    -0.6862 C.3    1 <0>      -0.0600
    6 C6        1.1611    -2.9748    -1.4799 C.3    1 <0>      -0.0100
    7 N7        1.1851    -2.6611    -2.9148 N.4    1 <0>      -0.6400
    8 H8        0.7587    -3.4157    -3.4313 H      1 <0>       0.4300
    9 H9        0.6726    -1.8080    -3.0812 H      1 <0>       0.4200
   10 H10       2.1404    -2.5440    -3.2176 H      1 <0>       0.4400
   11 C11       3.0695    -1.3777    -1.1771 C.3    1 <0>      -0.1900
   12 C12       4.0206    -2.5271    -0.9643 C.2    1 <0>       0.4800
   13 O13       3.6364    -3.5410    -0.4067 O.co2  1 <0>      -0.6800
   14 O14       5.1742    -2.4431    -1.3497 O.co2  1 <0>      -0.6800
   15 C15       1.7196    -2.1113     0.8180 C.3    1 <0>      -0.0900
   16 C16       1.2945    -0.7959     1.5196 C.3    1 <0>      -0.1000
   17 H17       2.1328    -0.1018     1.5797 H      1 <0>       0.0800
   18 C18       0.7295    -1.0823     2.9123 C.3    1 <0>      -0.1400
   19 H19       1.0111     1.7482     0.5364 H      1 <0>       0.0600
   20 H20      -0.6976     1.6419     0.0493 H      1 <0>       0.0500
   21 H21      -0.2506     1.4926     1.7657 H      1 <0>       0.0600
   22 H22      -0.1290    -0.8672    -1.4811 H      1 <0>       0.0500
   23 H23       1.2308     0.2709    -1.2646 H      1 <0>       0.0800
   24 H24       1.7986    -3.8374    -1.2859 H      1 <0>       0.1600
   25 H25       0.1397    -3.2019    -1.1747 H      1 <0>       0.1200
   26 H26       3.0256    -1.1342    -2.2387 H      1 <0>       0.0500
   27 H27       3.4189    -0.5089    -0.6193 H      1 <0>       0.0800
   28 H28       1.0149    -2.9099     1.0499 H      1 <0>       0.0700
   29 H29       2.7294    -2.3941     1.1155 H      1 <0>       0.1000
   30 H30       1.4981    -1.5511     3.5268 H      1 <0>       0.0600
   31 H31       0.4140    -0.1475     3.3757 H      1 <0>       0.0500
   32 H32      -0.1260    -1.7523     2.8266 H      1 <0>       0.0500
@<TRIPOS>BOND
   1    1    2 1
   2    1   19 1
   3    1   20 1
   4    1   21 1
   5    2    3 1
   6    2   16 1
   7    2    4 1
   8    4    5 1
   9    4   22 1
  10    4   23 1
  11    5    6 1
  12    5   11 1
  13    5   15 1
  14    6    7 1
  15    6   24 1
  16    6   25 1
  17    7    8 1
  18    7    9 1
  19    7   10 1
  20   11   12 1
  21   11   26 1
  22   11   27 1
  23   12   13 ar
  24   12   14 ar
  25   15   16 1
  26   15   28 1
  27   15   29 1
  28   16   17 1
  29   16   18 1
  30   18   30 1
  31   18   31 1
  32   18   32 1
