@<TRIPOS>MOLECULE
ZINC000001491485
45    48    1     0     0
SMALL
USER_CHARGES
@<TRIPOS>ATOM
1      C1     -1.0446    0.9056    0.1940 C.3      1 ZINC000001491485    0.0400
2      O2     -0.8050   -0.4999    0.0982 O.3      1 ZINC000001491485   -0.2800
3      C3     -1.8912   -1.3023   -0.0400 C.ar     1 ZINC000001491485    0.2400
4      N4     -3.1034   -0.7759   -0.0861 N.ar     1 ZINC000001491485   -0.4800
5      C5     -4.1618   -1.5606   -0.2214 C.ar     1 ZINC000001491485   -0.0200
6      C6     -5.5417   -0.9572   -0.2737 C.3      1 ZINC000001491485   -0.0700
7      C7     -4.0060   -2.9277   -0.3151 C.ar     1 ZINC000001491485    0.0700
8      N8     -2.7969   -3.4658   -0.2696 N.ar     1 ZINC000001491485   -0.5400
9      C9     -1.7317   -2.6896   -0.1398 C.ar     1 ZINC000001491485    0.4100
10     N10    -0.4594   -3.2518   -0.0916 N.pl3    1 ZINC000001491485   -1.0500
11     S11    -0.2753   -4.8942   -0.1966 S.o2     1 ZINC000001491485    2.6300
12     O12    -0.8569   -5.4391    0.9799 O.2      1 ZINC000001491485   -1.0200
13     O13    -0.6840   -5.2608   -1.5072 O.2      1 ZINC000001491485   -1.0000
14     C14     1.4512   -5.2327   -0.1007 C.ar     1 ZINC000001491485   -0.6700
15     C15     1.9838   -5.8524    1.0161 C.ar     1 ZINC000001491485    0.0200
16     C16     3.3491   -6.1001    1.0486 C.ar     1 ZINC000001491485   -0.2000
17     C17     4.1324   -5.7239   -0.0269 C.ar     1 ZINC000001491485    0.1300
18     N18     3.6001   -5.1351   -1.0784 N.ar     1 ZINC000001491485   -0.4900
19     C19     2.2989   -4.8852   -1.1513 C.ar     1 ZINC000001491485    0.2600
20     C20     1.7442   -4.2205   -2.3546 C.ar     1 ZINC000001491485   -0.0400
21     C21     1.0221   -3.0338   -2.2250 C.ar     1 ZINC000001491485   -0.0900
22     C22     0.5068   -2.4155   -3.3420 C.ar     1 ZINC000001491485   -0.0500
23     C23     0.7073   -2.9766   -4.6053 C.ar     1 ZINC000001491485   -0.0300
24     C24     0.1552   -2.3136   -5.8047 C.2      1 ZINC000001491485    0.2300
25     N25    -0.5343   -1.1967   -5.8292 N.2      1 ZINC000001491485   -0.2800
26     N26    -0.8507   -0.9203   -7.0453 N.2      1 ZINC000001491485   -0.2900
27     C27    -0.3797   -1.8420   -7.8385 C.2      1 ZINC000001491485    0.1300
28     O28     0.2707   -2.7397   -7.0786 O.3      1 ZINC000001491485   -0.2300
29     C29     1.4304   -4.1647   -4.7341 C.ar     1 ZINC000001491485   -0.1000
30     C30     1.9494   -4.7788   -3.6165 C.ar     1 ZINC000001491485   -0.0800
31     H31    -0.0949    1.4297    0.3006 H        1 ZINC000001491485    0.0800
32     H32    -1.5506    1.2503   -0.7078 H        1 ZINC000001491485    0.0500
33     H33    -1.6713    1.1090    1.0624 H        1 ZINC000001491485    0.0500
34     H34    -5.8016   -0.7337   -1.3084 H        1 ZINC000001491485    0.0600
35     H35    -6.2629   -1.6634    0.1377 H        1 ZINC000001491485    0.0600
36     H36    -5.5587   -0.0380    0.3119 H        1 ZINC000001491485    0.0600
37     H37    -4.8733   -3.5617   -0.4256 H        1 ZINC000001491485    0.1500
38     H38     1.3513   -6.1367    1.8441 H        1 ZINC000001491485    0.1500
39     H39     3.7955   -6.5818    1.9059 H        1 ZINC000001491485    0.1400
40     H40     5.1951   -5.9149   -0.0045 H        1 ZINC000001491485    0.1600
41     H41     0.8669   -2.6003   -1.2481 H        1 ZINC000001491485    0.2000
42     H42    -0.0524   -1.4971   -3.2414 H        1 ZINC000001491485    0.1400
43     H43    -0.4886   -1.8755   -8.9125 H        1 ZINC000001491485    0.2600
44     H44     1.5859   -4.5993   -5.7105 H        1 ZINC000001491485    0.1300
45     H45     2.5086   -5.6974   -3.7159 H        1 ZINC000001491485    0.1300
@<TRIPOS>BOND
1     1     2     1
2     1     31    1
3     1     32    1
4     1     33    1
5     2     3     1
6     3     9     ar
7     3     4     ar
8     4     5     ar
9     5     6     1
10    5     7     ar
11    6     34    1
12    6     35    1
13    6     36    1
14    7     8     ar
15    7     37    1
16    8     9     ar
17    9     10    1
18    10    11    1
19    11    12    2
20    11    13    2
21    11    14    1
22    14    19    ar
23    14    15    ar
24    15    16    ar
25    15    38    1
26    16    17    ar
27    16    39    1
28    17    18    ar
29    17    40    1
30    18    19    ar
31    19    20    1
32    20    30    ar
33    20    21    ar
34    21    22    ar
35    21    41    1
36    22    23    ar
37    22    42    1
38    23    24    1
39    23    29    ar
40    24    28    1
41    24    25    2
42    25    26    1
43    26    27    2
44    27    28    1
45    27    43    1
46    29    30    ar
47    29    44    1
48    30    45    1
@<TRIPOS>SUBSTRUCTURE
1   ZINC000001491485 1     RESIDUE    1   A     ZIN   1
