@<TRIPOS>MOLECULE
ZINC000001547575
  60   62    0    0    0
SMALL
USER_CHARGES
NO_NAME
@<TRIPOS>ATOM
    1 C1       -0.9543    -0.7050    -0.4791 C.3    1 <0>      -0.1900
    2 C2        0.2572     0.1574    -0.1191 C.3    1 <0>      -0.0100
    3 N3        0.8057    -0.2827     1.1706 N.4    1 <0>      -0.3800
    4 H4        1.6526     0.2290     1.3682 H      1 <0>       0.4200
    5 C5       -0.1776    -0.0308     2.2325 C.3    1 <0>       0.0000
    6 C6       -0.4158     1.4522     2.3550 C.2    1 <0>      -0.2200
    7 C7       -1.6508     1.9315     2.3047 C.2    1 <0>      -0.0300
    8 C8       -2.8036     1.0065     2.3155 C.ar   1 <0>      -0.0900
    9 C9       -2.7670    -0.1493     3.0962 C.ar   1 <0>      -0.1100
   10 C10      -3.8464    -1.0091     3.1028 C.ar   1 <0>      -0.1000
   11 C11      -4.9634    -0.7277     2.3373 C.ar   1 <0>      -0.0400
   12 C12      -6.1382    -1.6714     2.3491 C.3    1 <0>      -0.0700
   13 C13      -5.6900    -3.0500     1.8596 C.3    1 <0>      -0.1100
   14 C14      -6.8828    -4.0081     1.8715 C.3    1 <0>      -0.1200
   15 C15      -7.4285    -4.1254     3.2961 C.3    1 <0>      -0.1200
   16 C16      -7.8768    -2.7468     3.7856 C.3    1 <0>      -0.1200
   17 C17      -6.6840    -1.7887     3.7736 C.3    1 <0>      -0.1100
   18 C18      -5.0069     0.4178     1.5605 C.ar   1 <0>      -0.0300
   19 Cl19     -6.4137     0.7632     0.6038 Cl     1 <0>      -0.0500
   20 C20      -3.9353     1.2885     1.5496 C.ar   1 <0>      -0.0800
   21 C21       1.1045    -1.7198     1.1108 C.3    1 <0>       0.0200
   22 C22       2.1286    -1.9822     0.0048 C.3    1 <0>      -0.1400
   23 C23       2.4398    -3.4789    -0.0574 C.3    1 <0>      -0.1200
   24 C24       3.0111    -3.9373     1.2858 C.3    1 <0>      -0.1300
   25 C25       1.9870    -3.6749     2.3918 C.3    1 <0>      -0.1200
   26 C26       1.6758    -2.1782     2.4541 C.3    1 <0>      -0.1400
   27 H27      -1.6991    -0.6342     0.3136 H      1 <0>       0.0800
   28 H28      -1.3859    -0.3523    -1.4158 H      1 <0>       0.1000
   29 H29      -0.6409    -1.7429    -0.5915 H      1 <0>       0.0800
   30 H30       1.0189     0.0547    -0.8920 H      1 <0>       0.1300
   31 H31      -0.0485     1.2012    -0.0467 H      1 <0>       0.1300
   32 H32      -1.1146    -0.5302     1.9860 H      1 <0>       0.1400
   33 H33       0.2021    -0.4172     3.1784 H      1 <0>       0.1400
   34 H34       0.4195     2.1245     2.4838 H      1 <0>       0.1400
   35 H35      -1.8145     2.9979     2.2558 H      1 <0>       0.1400
   36 H36      -1.8952    -0.3709     3.6940 H      1 <0>       0.1300
   37 H37      -3.8187    -1.9039     3.7068 H      1 <0>       0.1400
   38 H38      -6.9186    -1.2884     1.6915 H      1 <0>       0.0900
   39 H39      -5.3012    -2.9664     0.8447 H      1 <0>       0.0600
   40 H40      -4.9097    -3.4330     2.5172 H      1 <0>       0.0600
   41 H41      -7.6631    -3.6251     1.2139 H      1 <0>       0.0700
   42 H42      -6.5634    -4.9902     1.5228 H      1 <0>       0.0700
   43 H43      -8.2783    -4.8080     3.3046 H      1 <0>       0.0700
   44 H44      -6.6482    -4.5084     3.9537 H      1 <0>       0.0600
   45 H45      -8.6571    -2.3638     3.1279 H      1 <0>       0.0700
   46 H46      -8.2655    -2.8304     4.8004 H      1 <0>       0.0700
   47 H47      -5.9036    -2.1717     4.4313 H      1 <0>       0.0600
   48 H48      -7.0033    -0.8066     4.1224 H      1 <0>       0.0600
   49 H49      -3.9699     2.1818     0.9435 H      1 <0>       0.1400
   50 H50       0.1896    -2.2725     0.8974 H      1 <0>       0.1400
   51 H51       1.7216    -1.6556    -0.9521 H      1 <0>       0.0900
   52 H52       3.0435    -1.4294     0.2182 H      1 <0>       0.0900
   53 H53       1.5249    -4.0317    -0.2708 H      1 <0>       0.0700
   54 H54       3.1694    -3.6658    -0.8454 H      1 <0>       0.0800
   55 H55       3.2328    -5.0036     1.2415 H      1 <0>       0.0800
   56 H56       3.9260    -3.3846     1.4992 H      1 <0>       0.0700
   57 H57       1.0721    -4.2277     2.1784 H      1 <0>       0.0700
   58 H58       2.3940    -4.0015     3.3488 H      1 <0>       0.0800
   59 H59       2.5906    -1.6255     2.6675 H      1 <0>       0.0900
   60 H60       0.9462    -1.9913     3.2420 H      1 <0>       0.0900
@<TRIPOS>BOND
   1    1    2 1
   2    1   27 1
   3    1   28 1
   4    1   29 1
   5    2    3 1
   6    2   30 1
   7    2   31 1
   8    3    4 1
   9    3    5 1
  10    3   21 1
  11    5    6 1
  12    5   32 1
  13    5   33 1
  14    6    7 2
  15    6   34 1
  16    7    8 1
  17    7   35 1
  18    8   20 ar
  19    8    9 ar
  20    9   10 ar
  21    9   36 1
  22   10   11 ar
  23   10   37 1
  24   11   12 1
  25   11   18 ar
  26   12   17 1
  27   12   13 1
  28   12   38 1
  29   13   14 1
  30   13   39 1
  31   13   40 1
  32   14   15 1
  33   14   41 1
  34   14   42 1
  35   15   16 1
  36   15   43 1
  37   15   44 1
  38   16   17 1
  39   16   45 1
  40   16   46 1
  41   17   47 1
  42   17   48 1
  43   18   19 1
  44   18   20 ar
  45   20   49 1
  46   21   26 1
  47   21   22 1
  48   21   50 1
  49   22   23 1
  50   22   51 1
  51   22   52 1
  52   23   24 1
  53   23   53 1
  54   23   54 1
  55   24   25 1
  56   24   55 1
  57   24   56 1
  58   25   26 1
  59   25   57 1
  60   25   58 1
  61   26   59 1
  62   26   60 1
