@<TRIPOS>MOLECULE
ZINC000043130413
46    49    1     0     0
SMALL
USER_CHARGES
@<TRIPOS>ATOM
1      C1     -1.8278   -3.8379   -0.5016 C.3      1 ZINC000043130413   -0.1400
2      C2     -2.6037   -2.9991   -1.5191 C.3      1 ZINC000043130413   -0.0300
3      C3     -3.9259   -3.6939   -1.8506 C.3      1 ZINC000043130413   -0.1400
4      C4     -2.8839   -1.6371   -0.9380 C.ar     1 ZINC000043130413   -0.2400
5      C5     -3.6620   -1.5197    0.1935 C.ar     1 ZINC000043130413    0.0000
6      C6     -3.9224   -0.2594    0.7327 C.ar     1 ZINC000043130413   -0.2200
7      C7     -4.7561   -0.1298    1.9465 C.2      1 ZINC000043130413    0.4100
8      N8     -5.9725   -0.5791    2.0870 N.2      1 ZINC000043130413   -0.3100
9      N9     -6.4084   -0.2550    3.3790 N.am     1 ZINC000043130413   -0.5600
10     C10    -5.4037    0.4018    3.9942 C.2      1 ZINC000043130413    0.6500
11     O11    -5.4206    0.8390    5.1310 O.2      1 ZINC000043130413   -0.5700
12     N12    -4.3759    0.4827    3.1260 N.am     1 ZINC000043130413   -0.4900
13     C13    -3.1360    1.0914    3.3739 C.ar     1 ZINC000043130413    0.1500
14     C14    -3.0680    2.4670    3.5853 C.ar     1 ZINC000043130413   -0.0400
15     C15    -1.8596    3.0798    3.8298 C.ar     1 ZINC000043130413   -0.1300
16     C16    -0.6919    2.3251    3.8676 C.ar     1 ZINC000043130413    0.1000
17     C17    -0.7567    0.9360    3.6547 C.ar     1 ZINC000043130413   -0.1000
18     C18    -1.9875    0.3235    3.4131 C.ar     1 ZINC000043130413   -0.0600
19     C19     0.6201    0.4457    3.7576 C.2      1 ZINC000043130413   -0.2000
20     C20     1.3979    1.5094    4.0134 C.2      1 ZINC000043130413    0.0400
21     N21     0.6325    2.6413    4.0828 N.pl3    1 ZINC000043130413   -0.4900
22     C22     1.1442    3.9884    4.3469 C.3      1 ZINC000043130413    0.0800
23     C23    -3.3908    0.8823    0.1204 C.ar     1 ZINC000043130413    0.3200
24     O24    -3.6396    2.1122    0.6399 O.3      1 ZINC000043130413   -0.6900
25     C25    -2.6105    0.7534   -1.0157 C.ar     1 ZINC000043130413   -0.2800
26     C26    -2.3523   -0.5039   -1.5414 C.ar     1 ZINC000043130413    0.1700
27     O27    -1.5861   -0.6270   -2.6565 O.3      1 ZINC000043130413   -0.5100
28     H28    -1.5953   -4.8108   -0.9346 H        1 ZINC000043130413    0.0400
29     H29    -0.9018   -3.3261   -0.2395 H        1 ZINC000043130413    0.0500
30     H30    -2.4337   -3.9743    0.3943 H        1 ZINC000043130413    0.0500
31     H31    -2.0119   -2.8915   -2.4281 H        1 ZINC000043130413    0.0700
32     H32    -4.5192   -3.7984   -0.9422 H        1 ZINC000043130413    0.0500
33     H33    -4.4771   -3.0981   -2.5781 H        1 ZINC000043130413    0.0500
34     H34    -3.7233   -4.6804   -2.2677 H        1 ZINC000043130413    0.0400
35     H35    -4.0703   -2.4028    0.6623 H        1 ZINC000043130413    0.1000
36     H36    -7.2749   -0.4648    3.7611 H        1 ZINC000043130413    0.4500
37     H37    -3.9715    3.0580    3.5567 H        1 ZINC000043130413    0.1200
38     H38    -1.8184    4.1468    3.9919 H        1 ZINC000043130413    0.1200
39     H39    -2.0410   -0.7427    3.2496 H        1 ZINC000043130413    0.1200
40     H40     0.9472   -0.5778    3.6487 H        1 ZINC000043130413    0.1400
41     H41     2.4693    1.4766    4.1449 H        1 ZINC000043130413    0.1600
42     H42     1.4001    4.4712    3.4038 H        1 ZINC000043130413    0.0700
43     H43     0.3801    4.5733    4.8589 H        1 ZINC000043130413    0.0800
44     H44     2.0329    3.9229    4.9745 H        1 ZINC000043130413    0.0800
45     H45    -2.1992    1.6319   -1.4906 H        1 ZINC000043130413    0.1100
46     H46    -0.6412   -0.7248   -2.4756 H        1 ZINC000043130413    0.3800
@<TRIPOS>BOND
1     1     2     1
2     1     28    1
3     1     29    1
4     1     30    1
5     2     3     1
6     2     4     1
7     2     31    1
8     3     32    1
9     3     33    1
10    3     34    1
11    4     26    ar
12    4     5     ar
13    5     6     ar
14    5     35    1
15    6     7     1
16    6     23    ar
17    7     12    1
18    7     8     2
19    8     9     1
20    9     10    am
21    9     36    1
22    10    11    2
23    10    12    am
24    12    13    1
25    13    18    ar
26    13    14    ar
27    14    15    ar
28    14    37    1
29    15    16    ar
30    15    38    1
31    16    21    1
32    16    17    ar
33    17    18    ar
34    17    19    1
35    18    39    1
36    19    20    2
37    19    40    1
38    20    21    1
39    20    41    1
40    21    22    1
41    22    42    1
42    22    43    1
43    22    44    1
44    23    24    1
45    23    25    ar
46    25    26    ar
47    25    45    1
48    26    27    1
49    27    46    1
@<TRIPOS>SUBSTRUCTURE
1   ZINC000043130413 1     RESIDUE    1   A     ZIN   1
