@<TRIPOS>MOLECULE
ZINC000000014493
44    46    1     0     0
SMALL
USER_CHARGES
@<TRIPOS>ATOM
1      C1     -2.2359   -0.9970   -1.1190 C.3      1 ZINC000000014493   -0.1500
2      C2     -1.5755   -1.8949   -0.0708 C.3      1 ZINC000000014493   -0.0900
3      C3     -1.5664   -3.3411   -0.5713 C.3      1 ZINC000000014493   -0.1300
4      C4     -0.9359   -4.2423    0.4951 C.3      1 ZINC000000014493    0.1300
5      N5      0.3917   -3.7135    0.8365 N.am     1 ZINC000000014493   -0.5900
6      C6      1.4818   -4.5038    0.7771 C.2      1 ZINC000000014493    0.6400
7      O7      1.3721   -5.6657    0.4386 O.2      1 ZINC000000014493   -0.5600
8      O8      2.6925   -4.0059    1.0927 O.3      1 ZINC000000014493   -0.3000
9      C9      3.7336   -4.8806    1.1130 C.ar     1 ZINC000000014493    0.0700
10     C10     4.2853   -5.3297   -0.0778 C.ar     1 ZINC000000014493   -0.0700
11     C11     5.3426   -6.2180   -0.0574 C.ar     1 ZINC000000014493   -0.1800
12     C12     5.8530   -6.6610    1.1542 C.ar     1 ZINC000000014493    0.1300
13     O13     6.8941   -7.5351    1.1745 O.3      1 ZINC000000014493   -0.2500
14     C14     7.4856   -7.8501   -0.0076 C.ar     1 ZINC000000014493    0.0800
15     C15     8.2072   -6.8892   -0.7015 C.ar     1 ZINC000000014493   -0.1400
16     C16     8.8080   -7.2122   -1.9027 C.ar     1 ZINC000000014493   -0.1000
17     C17     8.6908   -8.4917   -2.4137 C.ar     1 ZINC000000014493   -0.1200
18     C18     7.9723   -9.4510   -1.7243 C.ar     1 ZINC000000014493   -0.1000
19     C19     7.3740   -9.1347   -0.5200 C.ar     1 ZINC000000014493   -0.1200
20     C20     5.3012   -6.2117    2.3452 C.ar     1 ZINC000000014493   -0.1300
21     C21     4.2475   -5.3191    2.3245 C.ar     1 ZINC000000014493   -0.0800
22     C22     0.5084   -2.3065    1.2435 C.3      1 ZINC000000014493    0.1100
23     C23    -0.1382   -1.4271    0.1687 C.3      1 ZINC000000014493   -0.1300
24     H24    -1.6748   -1.0542   -2.0517 H        1 ZINC000000014493    0.0500
25     H25    -3.2596   -1.3301   -1.2897 H        1 ZINC000000014493    0.0600
26     H26    -2.2436    0.0329   -0.7622 H        1 ZINC000000014493    0.0600
27     H27    -2.1364   -1.8372    0.8620 H        1 ZINC000000014493    0.0700
28     H28    -2.5888   -3.6660   -0.7639 H        1 ZINC000000014493    0.0800
29     H29    -0.9847   -3.4042   -1.4910 H        1 ZINC000000014493    0.0700
30     H30    -1.5656   -4.2511    1.3848 H        1 ZINC000000014493    0.0800
31     H31    -0.8365   -5.2553    0.1053 H        1 ZINC000000014493    0.1000
32     H32     3.8877   -4.9851   -1.0210 H        1 ZINC000000014493    0.1300
33     H33     5.7718   -6.5680   -0.9846 H        1 ZINC000000014493    0.1400
34     H34     8.2988   -5.8896   -0.3029 H        1 ZINC000000014493    0.1300
35     H35     9.3694   -6.4646   -2.4433 H        1 ZINC000000014493    0.1300
36     H36     9.1610   -8.7420   -3.3532 H        1 ZINC000000014493    0.1300
37     H37     7.8823  -10.4496   -2.1256 H        1 ZINC000000014493    0.1300
38     H38     6.8129   -9.8844    0.0181 H        1 ZINC000000014493    0.1300
39     H39     5.6982   -6.5568    3.2884 H        1 ZINC000000014493    0.1400
40     H40     3.8179   -4.9692    3.2515 H        1 ZINC000000014493    0.1400
41     H41    -0.0035   -2.1575    2.1942 H        1 ZINC000000014493    0.0700
42     H42     1.5608   -2.0423    1.3474 H        1 ZINC000000014493    0.0900
43     H43     0.4300   -1.5081   -0.7580 H        1 ZINC000000014493    0.0700
44     H44    -0.1442   -0.3895    0.5028 H        1 ZINC000000014493    0.0800
@<TRIPOS>BOND
1     1     2     1
2     1     24    1
3     1     25    1
4     1     26    1
5     2     23    1
6     2     3     1
7     2     27    1
8     3     4     1
9     3     28    1
10    3     29    1
11    4     5     1
12    4     30    1
13    4     31    1
14    5     6     am
15    5     22    1
16    6     7     2
17    6     8     1
18    8     9     1
19    9     21    ar
20    9     10    ar
21    10    11    ar
22    10    32    1
23    11    12    ar
24    11    33    1
25    12    13    1
26    12    20    ar
27    13    14    1
28    14    19    ar
29    14    15    ar
30    15    16    ar
31    15    34    1
32    16    17    ar
33    16    35    1
34    17    18    ar
35    17    36    1
36    18    19    ar
37    18    37    1
38    19    38    1
39    20    21    ar
40    20    39    1
41    21    40    1
42    22    23    1
43    22    41    1
44    22    42    1
45    23    43    1
46    23    44    1
@<TRIPOS>SUBSTRUCTURE
1   ZINC000000014493 1     RESIDUE    1   A     ZIN   1
