@<TRIPOS>MOLECULE
ZINC000000642574
  41   43    0    0    0
SMALL
USER_CHARGES
NO_NAME
@<TRIPOS>ATOM
    1 C1        1.4202    -4.7678    -4.1220 C.3    1 <0>      -0.1500
    2 C2        0.3612    -3.9007    -3.4383 C.3    1 <0>       0.0600
    3 O3       -0.1883    -4.6153    -2.3000 O.3    1 <0>      -0.3500
    4 C4       -1.1369    -3.9882    -1.5868 C.2    1 <0>       0.4600
    5 O5       -1.4962    -2.8789    -1.9033 O.2    1 <0>      -0.4800
    6 C6       -1.7538    -4.6678    -0.3916 C.3    1 <0>       0.0900
    7 H7       -2.1539    -5.6365    -0.6907 H      1 <0>       0.1200
    8 C8       -0.6881    -4.8675     0.6879 C.3    1 <0>      -0.1700
    9 O9       -2.8096    -3.8556     0.1259 O.3    1 <0>      -0.2800
   10 C10      -3.8792    -4.5015     0.6621 C.ar   1 <0>       0.1500
   11 C11      -4.9956    -3.7815     1.0612 C.ar   1 <0>      -0.1300
   12 C12      -6.0821    -4.4375     1.6058 C.ar   1 <0>      -0.0500
   13 C13      -6.0571    -5.8166     1.7533 C.ar   1 <0>       0.0400
   14 O14      -7.1270    -6.4626     2.2891 O.3    1 <0>      -0.2000
   15 C15      -8.2263    -6.6176     1.5177 C.2    1 <0>       0.4300
   16 N16      -8.3763    -6.1179     0.3202 N.2    1 <0>      -0.5000
   17 C17      -9.6023    -6.4757    -0.1522 C.ar   1 <0>       0.0500
   18 C18     -10.2846    -6.2312    -1.3442 C.ar   1 <0>      -0.0500
   19 C19     -11.5498    -6.7459    -1.5257 C.ar   1 <0>      -0.1000
   20 C20     -12.1479    -7.5049    -0.5305 C.ar   1 <0>      -0.0200
   21 Cl21    -13.7425    -8.1457    -0.7757 Cl     1 <0>      -0.0400
   22 C22     -11.4827    -7.7545     0.6542 C.ar   1 <0>      -0.0700
   23 C23     -10.2104    -7.2438     0.8523 C.ar   1 <0>       0.0100
   24 O24      -9.3214    -7.3131     1.8694 O.3    1 <0>      -0.1900
   25 C25      -4.9408    -6.5367     1.3537 C.ar   1 <0>      -0.0500
   26 C26      -3.8563    -5.8811     0.8046 C.ar   1 <0>      -0.2000
   27 H27       1.8327    -4.2314    -4.9765 H      1 <0>       0.0800
   28 H28       2.2182    -4.9924    -3.4143 H      1 <0>       0.0700
   29 H29       0.9641    -5.6975    -4.4624 H      1 <0>       0.0700
   30 H30       0.8172    -2.9710    -3.0979 H      1 <0>       0.0700
   31 H31      -0.4368    -3.6761    -4.1460 H      1 <0>       0.0700
   32 H32      -0.2880    -3.8987     0.9871 H      1 <0>       0.0800
   33 H33      -1.1343    -5.3590     1.5525 H      1 <0>       0.0800
   34 H34       0.1172    -5.4870     0.2932 H      1 <0>       0.0900
   35 H35      -5.0150    -2.7077     0.9464 H      1 <0>       0.1500
   36 H36      -6.9510    -3.8768     1.9172 H      1 <0>       0.1400
   37 H37      -9.8230    -5.6405    -2.1217 H      1 <0>       0.1500
   38 H38     -12.0790    -6.5570    -2.4480 H      1 <0>       0.1500
   39 H39     -11.9541    -8.3463     1.4250 H      1 <0>       0.1500
   40 H40      -4.9212    -7.6104     1.4689 H      1 <0>       0.1400
   41 H41      -2.9872    -6.4417     0.4935 H      1 <0>       0.1400
@<TRIPOS>BOND
   1    1    2 1
   2    1   27 1
   3    1   28 1
   4    1   29 1
   5    2    3 1
   6    2   30 1
   7    2   31 1
   8    3    4 1
   9    4    5 2
  10    4    6 1
  11    6    7 1
  12    6    8 1
  13    6    9 1
  14    8   32 1
  15    8   33 1
  16    8   34 1
  17    9   10 1
  18   10   26 ar
  19   10   11 ar
  20   11   12 ar
  21   11   35 1
  22   12   13 ar
  23   12   36 1
  24   13   14 1
  25   13   25 ar
  26   14   15 1
  27   15   24 1
  28   15   16 2
  29   16   17 1
  30   17   23 ar
  31   17   18 ar
  32   18   19 ar
  33   18   37 1
  34   19   20 ar
  35   19   38 1
  36   20   21 1
  37   20   22 ar
  38   22   23 ar
  39   22   39 1
  40   23   24 1
  41   25   26 ar
  42   25   40 1
  43   26   41 1
