@<TRIPOS>MOLECULE
ZINC000034850365
65    68    1     0     0
SMALL
USER_CHARGES
@<TRIPOS>ATOM
1      C1     -0.0187    1.5258    0.0104 C.3      1 ZINC000034850365   -0.1800
2      C2      0.0021   -0.0041    0.0020 C.3      1 ZINC000034850365    0.0300
3      H3     -1.0205   -0.3813    0.0098 H        1 ZINC000034850365    0.1500
4      C4      0.7183   -0.4975   -1.2570 C.3      1 ZINC000034850365    0.0300
5      N5      0.7536   -1.9669   -1.2530 N.3      1 ZINC000034850365   -0.5300
6      C6      1.3845   -2.4816   -2.4757 C.3      1 ZINC000034850365    0.1000
7      C7      1.1854   -3.9734   -2.5539 C.ar     1 ZINC000034850365   -0.1000
8      C8      2.1144   -4.8253   -1.9863 C.ar     1 ZINC000034850365   -0.1200
9      C9      1.9318   -6.1937   -2.0580 C.ar     1 ZINC000034850365   -0.1000
10     C10     0.8201   -6.7101   -2.6969 C.ar     1 ZINC000034850365   -0.0500
11     C11     0.6213   -8.2018   -2.7755 C.3      1 ZINC000034850365   -0.1100
12     C12    -0.1637   -8.6679   -1.5765 C.2      1 ZINC000034850365    0.5200
13     O13    -0.5260   -7.8675   -0.7404 O.2      1 ZINC000034850365   -0.5300
14     N14    -0.4630   -9.9742   -1.4332 N.am     1 ZINC000034850365   -0.6100
15     C15    -0.0259  -10.9565   -2.4345 C.3      1 ZINC000034850365    0.1100
16     C16     0.7397  -12.0773   -1.7241 C.3      1 ZINC000034850365   -0.1400
17     C17    -0.1339  -12.6604   -0.6111 C.3      1 ZINC000034850365    0.1500
18     N18     0.5824  -13.7548    0.0489 N.pl3    1 ZINC000034850365   -0.7400
19     C19    -0.1307  -14.7623    0.7023 C.ar     1 ZINC000034850365    0.2400
20     C20    -1.5193  -14.7311    0.7224 C.ar     1 ZINC000034850365   -0.2100
21     C21    -2.2228  -15.7285    1.3693 C.ar     1 ZINC000034850365   -0.0400
22     C22    -1.5471  -16.7581    1.9969 C.ar     1 ZINC000034850365   -0.2100
23     C23    -0.1622  -16.7931    1.9799 C.ar     1 ZINC000034850365    0.1500
24     F24     0.4954  -17.8004    2.5946 F        1 ZINC000034850365   -0.1400
25     C25     0.5471  -15.8004    1.3284 C.ar     1 ZINC000034850365   -0.2300
26     C26    -0.4537  -11.5694    0.4133 C.3      1 ZINC000034850365   -0.1500
27     C27    -1.2276  -10.4437   -0.2697 C.3      1 ZINC000034850365    0.1100
28     C28    -0.1096   -5.8581   -3.2633 C.ar     1 ZINC000034850365   -0.1000
29     C29     0.0711   -4.4897   -3.1883 C.ar     1 ZINC000034850365   -0.0900
30     C30     1.4402   -2.4692   -0.0545 C.3      1 ZINC000034850365    0.0200
31     C31     0.7180   -1.9594    1.1947 C.3      1 ZINC000034850365    0.0000
32     N32     0.7124   -0.4906    1.1920 N.4      1 ZINC000034850365   -0.5100
33     H33     1.6624   -0.1509    1.1788 H        1 ZINC000034850365    0.4200
34     H34     0.2469   -0.1548    2.0218 H        1 ZINC000034850365    0.4300
35     H35     1.0039    1.9031    0.0027 H        1 ZINC000034850365    0.0800
36     H36    -0.5459    1.8868   -0.8726 H        1 ZINC000034850365    0.1100
37     H37    -0.5289    1.8773    0.9072 H        1 ZINC000034850365    0.0900
38     H38     0.1829   -0.1490   -2.1402 H        1 ZINC000034850365    0.1200
39     H39     1.7367   -0.1093   -1.2719 H        1 ZINC000034850365    0.0600
40     H40     0.9299   -2.0083   -3.3460 H        1 ZINC000034850365    0.1000
41     H41     2.4511   -2.2579   -2.4561 H        1 ZINC000034850365    0.0600
42     H42     2.9829   -4.4218   -1.4871 H        1 ZINC000034850365    0.1200
43     H43     2.6579   -6.8593   -1.6151 H        1 ZINC000034850365    0.1200
44     H44     0.0745   -8.4481   -3.6858 H        1 ZINC000034850365    0.1100
45     H45     1.5919   -8.6975   -2.7894 H        1 ZINC000034850365    0.1100
46     H46    -0.8960  -11.3730   -2.9419 H        1 ZINC000034850365    0.0800
47     H47     0.6264  -10.4721   -3.1611 H        1 ZINC000034850365    0.0900
48     H48     0.9864  -12.8604   -2.4410 H        1 ZINC000034850365    0.0900
49     H49     1.6569  -11.6753   -1.2938 H        1 ZINC000034850365    0.0700
50     H50    -1.0619  -13.0398   -1.0390 H        1 ZINC000034850365    0.0900
51     H51     1.5519  -13.7796    0.0320 H        1 ZINC000034850365    0.4000
52     H52    -2.0487  -13.9271    0.2327 H        1 ZINC000034850365    0.1300
53     H53    -3.3024  -15.7036    1.3849 H        1 ZINC000034850365    0.1300
54     H54    -2.0997  -17.5366    2.5019 H        1 ZINC000034850365    0.1300
55     H55     1.6266  -15.8274    1.3146 H        1 ZINC000034850365    0.1300
56     H56    -1.0564  -11.9910    1.2177 H        1 ZINC000034850365    0.0800
57     H57     0.4747  -11.1721    0.8235 H        1 ZINC000034850365    0.0700
58     H58    -1.3709   -9.6213    0.4311 H        1 ZINC000034850365    0.1000
59     H59    -2.1965  -10.8160   -0.6025 H        1 ZINC000034850365    0.0700
60     H60    -0.9783   -6.2616   -3.7622 H        1 ZINC000034850365    0.1200
61     H61    -0.6552   -3.8241   -3.6308 H        1 ZINC000034850365    0.1200
62     H62     1.4314   -3.5591   -0.0603 H        1 ZINC000034850365    0.1300
63     H63     2.4705   -2.1134   -0.0496 H        1 ZINC000034850365    0.0600
64     H64    -0.3083   -2.3267    1.1963 H        1 ZINC000034850365    0.1400
65     H65     1.2340   -2.3192    2.0848 H        1 ZINC000034850365    0.1400
@<TRIPOS>BOND
1     1     2     1
2     1     35    1
3     1     36    1
4     1     37    1
5     2     3     1
6     2     32    1
7     2     4     1
8     4     5     1
9     4     38    1
10    4     39    1
11    5     6     1
12    5     30    1
13    6     7     1
14    6     40    1
15    6     41    1
16    7     29    ar
17    7     8     ar
18    8     9     ar
19    8     42    1
20    9     10    ar
21    9     43    1
22    10    11    1
23    10    28    ar
24    11    12    1
25    11    44    1
26    11    45    1
27    12    13    2
28    12    14    am
29    14    27    1
30    14    15    1
31    15    16    1
32    15    46    1
33    15    47    1
34    16    17    1
35    16    48    1
36    16    49    1
37    17    18    1
38    17    26    1
39    17    50    1
40    18    19    1
41    18    51    1
42    19    25    ar
43    19    20    ar
44    20    21    ar
45    20    52    1
46    21    22    ar
47    21    53    1
48    22    23    ar
49    22    54    1
50    23    24    1
51    23    25    ar
52    25    55    1
53    26    27    1
54    26    56    1
55    26    57    1
56    27    58    1
57    27    59    1
58    28    29    ar
59    28    60    1
60    29    61    1
61    30    31    1
62    30    62    1
63    30    63    1
64    31    32    1
65    31    64    1
66    31    65    1
67    32    33    1
68    32    34    1
@<TRIPOS>SUBSTRUCTURE
1   ZINC000034850365 1     RESIDUE    1   A     ZIN   1
