@<TRIPOS>MOLECULE
ZINC000022001248
  48   50    0    0    0
SMALL
USER_CHARGES
NO_NAME
@<TRIPOS>ATOM
    1 C1       -1.2358     1.1317    -0.2484 C.2    1 <0>      -0.1100
    2 C2       -0.7259    -0.0933    -0.1895 C.2    1 <0>       0.0200
    3 N3       -1.5212    -1.1640     0.0987 N.2    1 <0>      -0.4500
    4 C4       -1.0460    -2.3157     0.3969 C.2    1 <0>       0.2000
    5 C5       -2.0174    -3.4244     0.7106 C.3    1 <0>      -0.1200
    6 C6        0.4212    -2.6255     0.4516 C.3    1 <0>      -0.1000
    7 C7        0.8301    -3.3220    -0.8207 C.2    1 <0>       0.4800
    8 O8        0.0692    -3.3630    -1.7583 O.2    1 <0>      -0.5000
    9 O9        2.0396    -3.8969    -0.9122 O.3    1 <0>      -0.3400
   10 C10       2.3658    -4.5498    -2.1675 C.3    1 <0>       0.0900
   11 C11       3.8756    -4.4752    -2.4038 C.3    1 <0>      -0.1500
   12 C12       1.9307    -6.0154    -2.1082 C.3    1 <0>      -0.1700
   13 C13       1.2361    -1.3393     0.6074 C.3    1 <0>      -0.0200
   14 H14       2.2930    -1.5525     0.4475 H      1 <0>       0.1200
   15 C15       1.0355    -0.7755     1.9905 C.ar   1 <0>      -0.0400
   16 C16      -0.2154    -0.5487     2.4622 C.ar   1 <0>      -0.0900
   17 C17      -0.4415    -0.0259     3.7418 C.ar   1 <0>      -0.0800
   18 C18       0.5779     0.2829     4.5810 C.ar   1 <0>      -0.0600
   19 C19       1.9060     0.0748     4.1612 C.ar   1 <0>       0.0200
   20 N20       3.1198     0.2284     4.6298 N.2    1 <0>      -0.3400
   21 O21       3.9188    -0.1338     3.7896 O.3    1 <0>       0.3800
   22 N22       3.4529    -0.5418     2.7447 N.2    1 <0>      -0.3400
   23 C23       2.1454    -0.4847     2.8073 C.ar   1 <0>       0.0300
   24 C24       0.7464    -0.3284    -0.4470 C.3    1 <0>      -0.0700
   25 C25       0.9498    -0.8913    -1.8300 C.2    1 <0>       0.4700
   26 O26       1.9886    -1.4403    -2.1120 O.2    1 <0>      -0.5000
   27 O27      -0.0229    -0.7829    -2.7486 O.3    1 <0>      -0.3300
   28 C28       0.2424    -1.3481    -4.0595 C.3    1 <0>       0.0400
   29 H29      -0.5980     1.9714    -0.4817 H      1 <0>       0.1200
   30 H30      -2.2890     1.2874    -0.0672 H      1 <0>       0.1200
   31 H31      -3.0370    -3.0479     0.6292 H      1 <0>       0.0900
   32 H32      -1.8748    -4.2428     0.0049 H      1 <0>       0.0900
   33 H33      -1.8428    -3.7844     1.7245 H      1 <0>       0.0900
   34 H34       0.6190    -3.2808     1.2998 H      1 <0>       0.1400
   35 H35       1.8451    -4.0489    -2.9836 H      1 <0>       0.0800
   36 H36       4.3963    -4.9760    -1.5877 H      1 <0>       0.0700
   37 H37       4.1205    -4.9653    -3.3461 H      1 <0>       0.0800
   38 H38       4.1856    -3.4310    -2.4460 H      1 <0>       0.0700
   39 H39       0.8551    -6.0685    -1.9398 H      1 <0>       0.0600
   40 H40       2.1756    -6.5055    -3.0504 H      1 <0>       0.0800
   41 H41       2.4514    -6.5163    -1.2920 H      1 <0>       0.0700
   42 H42      -1.0624    -0.7776     1.8325 H      1 <0>       0.1600
   43 H43      -1.4576     0.1364     4.0696 H      1 <0>       0.1500
   44 H44       0.3732     0.6851     5.5622 H      1 <0>       0.1500
   45 H45       1.2926     0.6092    -0.3434 H      1 <0>       0.1300
   46 H46       0.4356    -2.4164    -3.9622 H      1 <0>       0.0700
   47 H47      -0.6227    -1.1925    -4.7041 H      1 <0>       0.1000
   48 H48       1.1135    -0.8596    -4.4962 H      1 <0>       0.0600
@<TRIPOS>BOND
   1    1    2 2
   2    1   29 1
   3    1   30 1
   4    2   24 1
   5    2    3 1
   6    3    4 2
   7    4    5 1
   8    4    6 1
   9    5   31 1
  10    5   32 1
  11    5   33 1
  12    6    7 1
  13    6   13 1
  14    6   34 1
  15    7    8 2
  16    7    9 1
  17    9   10 1
  18   10   11 1
  19   10   12 1
  20   10   35 1
  21   11   36 1
  22   11   37 1
  23   11   38 1
  24   12   39 1
  25   12   40 1
  26   12   41 1
  27   13   14 1
  28   13   15 1
  29   13   24 1
  30   15   23 ar
  31   15   16 ar
  32   16   17 ar
  33   16   42 1
  34   17   18 ar
  35   17   43 1
  36   18   19 ar
  37   18   44 1
  38   19   23 ar
  39   19   20 2
  40   20   21 1
  41   21   22 1
  42   22   23 2
  43   24   25 1
  44   24   45 1
  45   25   26 2
  46   25   27 1
  47   27   28 1
  48   28   46 1
  49   28   47 1
  50   28   48 1
