@<TRIPOS>MOLECULE
ZINC000000056625
  30   30    0    0    0
SMALL
USER_CHARGES
NO_NAME
@<TRIPOS>ATOM
    1 C1       -0.0178     1.4648     0.0101 C.3    1 <0>      -0.0500
    2 N2        0.0021    -0.0041     0.0020 N.4    1 <0>      -0.5100
    3 H3        0.4744    -0.3295    -0.8281 H      1 <0>       0.4300
    4 H4        0.4901    -0.3383     0.8195 H      1 <0>       0.4300
    5 C5       -1.3761    -0.5125     0.0124 C.3    1 <0>      -0.0400
    6 C6       -1.3553    -2.0424     0.0040 C.3    1 <0>       0.1400
    7 H7       -0.8281    -2.4035     0.8871 H      1 <0>       0.1300
    8 O8       -0.6865    -2.5032    -1.1717 O.3    1 <0>      -0.5500
    9 C9       -2.7691    -2.5640     0.0147 C.ar   1 <0>      -0.1100
   10 C10      -3.4616    -2.7036    -1.1732 C.ar   1 <0>      -0.1300
   11 C11      -4.7592    -3.1814    -1.1687 C.ar   1 <0>      -0.1000
   12 C12      -5.3678    -3.5217     0.0283 C.ar   1 <0>       0.1000
   13 O13      -6.6438    -3.9921     0.0345 O.3    1 <0>      -0.4800
   14 C14      -4.6703    -3.3815     1.2247 C.ar   1 <0>       0.1100
   15 O15      -5.2633    -3.7147     2.4023 O.3    1 <0>      -0.3000
   16 C16      -4.4874    -3.5448     3.5903 C.3    1 <0>       0.0200
   17 C17      -3.3688    -2.9072     1.2126 C.ar   1 <0>      -0.1800
   18 H18       1.0047     1.8421     0.0024 H      1 <0>       0.1300
   19 H19      -0.5450     1.8259    -0.8730 H      1 <0>       0.1200
   20 H20      -0.5280     1.8163     0.9069 H      1 <0>       0.1200
   21 H21      -1.8863    -0.1610     0.9092 H      1 <0>       0.1400
   22 H22      -1.9033    -0.1515    -0.8706 H      1 <0>       0.1400
   23 H23      -1.1017    -2.2189    -1.9974 H      1 <0>       0.3900
   24 H24      -2.9882    -2.4387    -2.1071 H      1 <0>       0.1300
   25 H25      -5.2984    -3.2889    -2.0983 H      1 <0>       0.1500
   26 H26      -6.7088    -4.9537    -0.0438 H      1 <0>       0.4000
   27 H27      -5.0773    -3.8464     4.4558 H      1 <0>       0.1100
   28 H28      -3.5902    -4.1609     3.5295 H      1 <0>       0.0600
   29 H29      -4.2028    -2.4975     3.6917 H      1 <0>       0.0600
   30 H30      -2.8254    -2.7975     2.1395 H      1 <0>       0.1400
@<TRIPOS>BOND
   1    1    2 1
   2    1   18 1
   3    1   19 1
   4    1   20 1
   5    2    3 1
   6    2    4 1
   7    2    5 1
   8    5    6 1
   9    5   21 1
  10    5   22 1
  11    6    7 1
  12    6    8 1
  13    6    9 1
  14    8   23 1
  15    9   17 ar
  16    9   10 ar
  17   10   11 ar
  18   10   24 1
  19   11   12 ar
  20   11   25 1
  21   12   13 1
  22   12   14 ar
  23   13   26 1
  24   14   15 1
  25   14   17 ar
  26   15   16 1
  27   16   27 1
  28   16   28 1
  29   16   29 1
  30   17   30 1
