@<TRIPOS>MOLECULE
ZINC000299888867
71    76    1     0     0
SMALL
USER_CHARGES
@<TRIPOS>ATOM
1      C1     -1.4204    1.6287    1.9660 C.3      1 ZINC000299888867   -0.1500
2      C2     -1.5593    0.1369    2.1279 C.2      1 ZINC000299888867    0.4600
3      O3     -1.3487   -0.3766    3.2011 O.2      1 ZINC000299888867   -0.5100
4      O4     -1.9170   -0.6215    1.0797 O.3      1 ZINC000299888867   -0.3400
5      C5     -2.0313   -2.0508    1.3087 C.3      1 ZINC000299888867    0.0100
6      C6     -2.4388   -2.7335    0.0285 C.2      1 ZINC000299888867    0.3500
7      O7     -2.7053   -2.0756   -0.9484 O.2      1 ZINC000299888867   -0.3900
8      C8     -2.5138   -4.2374   -0.0325 C.3      1 ZINC000299888867    0.0300
9      O9     -1.3456   -4.7935    0.5129 O.3      1 ZINC000299888867   -0.3300
10     C10    -0.3765   -4.6864   -0.5579 C.3      1 ZINC000299888867    0.2400
11     C11     0.7312   -3.6981   -0.1737 C.3      1 ZINC000299888867   -0.1300
12     C12     1.8735   -4.6036    0.3560 C.3      1 ZINC000299888867   -0.1200
13     C13     1.7970   -5.8379   -0.5780 C.3      1 ZINC000299888867   -0.1200
14     C14     0.2839   -6.0445   -0.8103 C.3      1 ZINC000299888867   -0.1400
15     O15    -1.0536   -4.2349   -1.7605 O.3      1 ZINC000299888867   -0.3400
16     C16    -2.3647   -4.7150   -1.5354 C.3      1 ZINC000299888867    0.0500
17     H17    -2.3950   -5.8023   -1.6056 H        1 ZINC000299888867    0.1000
18     C18    -3.6076   -4.1031   -2.1483 C.3      1 ZINC000299888867   -0.1300
19     C19    -4.7029   -4.3869   -1.0593 C.3      1 ZINC000299888867   -0.0700
20     H20    -5.2748   -5.2729   -1.3351 H        1 ZINC000299888867    0.1000
21     C21    -5.6172   -3.1796   -1.0216 C.3      1 ZINC000299888867   -0.1100
22     H22    -5.0213   -2.2841   -1.1979 H        1 ZINC000299888867    0.1000
23     C23    -6.6767   -3.2904   -2.1272 C.3      1 ZINC000299888867   -0.1200
24     C24    -7.2935   -1.9037   -2.3196 C.3      1 ZINC000299888867   -0.0900
25     C25    -7.7249   -1.3374   -0.9993 C.2      1 ZINC000299888867   -0.0500
26     C26    -8.5550   -0.2694   -0.9961 C.2      1 ZINC000299888867   -0.2300
27     C27    -8.8873    0.2550    0.3572 C.2      1 ZINC000299888867    0.4100
28     O28   -10.0093    0.6111    0.6657 O.2      1 ZINC000299888867   -0.4500
29     C29    -7.7386    0.3090    1.3040 C.2      1 ZINC000299888867   -0.2300
30     C30    -6.9213   -0.7671    1.2720 C.2      1 ZINC000299888867   -0.0700
31     C31    -7.2947   -1.8718    0.3245 C.3      1 ZINC000299888867   -0.0300
32     C32    -8.5679   -2.4695    0.9267 C.3      1 ZINC000299888867   -0.1500
33     C33    -6.3419   -3.0288    0.3040 C.3      1 ZINC000299888867    0.1700
34     F34    -7.0663   -4.1968    0.5649 F        1 ZINC000299888867   -0.1900
35     C35    -5.2750   -2.8912    1.3968 C.3      1 ZINC000299888867    0.0800
36     H36    -4.5678   -2.1072    1.1262 H        1 ZINC000299888867    0.0700
37     O37    -5.8968   -2.5734    2.6435 O.3      1 ZINC000299888867   -0.5400
38     C38    -4.5487   -4.2274    1.5057 C.3      1 ZINC000299888867   -0.1500
39     C39    -3.9173   -4.6871    0.2472 C.3      1 ZINC000299888867   -0.0300
40     C40    -3.8568   -6.2130    0.3401 C.3      1 ZINC000299888867   -0.1500
41     H41    -1.1254    2.0715    2.9174 H        1 ZINC000299888867    0.1100
42     H42    -0.6610    1.8435    1.2143 H        1 ZINC000299888867    0.1000
43     H43    -2.3745    2.0502    1.6495 H        1 ZINC000299888867    0.1000
44     H44    -1.0701   -2.4437    1.6400 H        1 ZINC000299888867    0.1100
45     H45    -2.7836   -2.2369    2.0751 H        1 ZINC000299888867    0.1000
46     H46     1.0624   -3.1366   -1.0473 H        1 ZINC000299888867    0.0900
47     H47     0.3858   -3.0217    0.6082 H        1 ZINC000299888867    0.0800
48     H48     2.8379   -4.1051    0.2584 H        1 ZINC000299888867    0.0800
49     H49     1.6895   -4.8911    1.3911 H        1 ZINC000299888867    0.0800
50     H50     2.3034   -5.6342   -1.5215 H        1 ZINC000299888867    0.0700
51     H51     2.2311   -6.7116   -0.0919 H        1 ZINC000299888867    0.0800
52     H52    -0.1046   -6.7857   -0.1119 H        1 ZINC000299888867    0.0900
53     H53     0.1026   -6.3645   -1.8364 H        1 ZINC000299888867    0.0900
54     H54    -3.4781   -3.0310   -2.2963 H        1 ZINC000299888867    0.1200
55     H55    -3.8588   -4.5966   -3.0872 H        1 ZINC000299888867    0.0800
56     H56    -6.2093   -3.6190   -3.0554 H        1 ZINC000299888867    0.0800
57     H57    -7.4486   -4.0002   -1.8296 H        1 ZINC000299888867    0.0800
58     H58    -6.5566   -1.2408   -2.7730 H        1 ZINC000299888867    0.0900
59     H59    -8.1583   -1.9819   -2.9785 H        1 ZINC000299888867    0.0900
60     H60    -8.9454    0.1683   -1.9029 H        1 ZINC000299888867    0.1500
61     H61    -7.5716    1.1452    1.9667 H        1 ZINC000299888867    0.1500
62     H62    -6.0426   -0.8296    1.8968 H        1 ZINC000299888867    0.1500
63     H63    -9.3388   -1.7009    0.9825 H        1 ZINC000299888867    0.0600
64     H64    -8.9168   -3.2891    0.2985 H        1 ZINC000299888867    0.0700
65     H65    -8.3551   -2.8441    1.9279 H        1 ZINC000299888867    0.0800
66     H66    -5.2761   -2.4725    3.3781 H        1 ZINC000299888867    0.3800
67     H67    -3.7404   -4.1268    2.2299 H        1 ZINC000299888867    0.0800
68     H68    -5.2503   -4.9767    1.8725 H        1 ZINC000299888867    0.1000
69     H69    -4.8692   -6.6159    0.3653 H        1 ZINC000299888867    0.0700
70     H70    -3.3295   -6.6093   -0.5277 H        1 ZINC000299888867    0.0600
71     H71    -3.3284   -6.5011    1.2489 H        1 ZINC000299888867    0.0700
@<TRIPOS>BOND
1     1     2     1
2     1     41    1
3     1     42    1
4     1     43    1
5     2     3     2
6     2     4     1
7     4     5     1
8     5     6     1
9     5     44    1
10    5     45    1
11    6     7     2
12    6     8     1
13    8     16    1
14    8     39    1
15    8     9     1
16    9     10    1
17    10    14    1
18    10    11    1
19    10    15    1
20    11    12    1
21    11    46    1
22    11    47    1
23    12    13    1
24    12    48    1
25    12    49    1
26    13    14    1
27    13    50    1
28    13    51    1
29    14    52    1
30    14    53    1
31    15    16    1
32    16    17    1
33    16    18    1
34    18    19    1
35    18    54    1
36    18    55    1
37    19    20    1
38    19    39    1
39    19    21    1
40    21    22    1
41    21    33    1
42    21    23    1
43    23    24    1
44    23    56    1
45    23    57    1
46    24    25    1
47    24    58    1
48    24    59    1
49    25    31    1
50    25    26    2
51    26    27    1
52    26    60    1
53    27    28    2
54    27    29    1
55    29    30    2
56    29    61    1
57    30    31    1
58    30    62    1
59    31    32    1
60    31    33    1
61    32    63    1
62    32    64    1
63    32    65    1
64    33    34    1
65    33    35    1
66    35    36    1
67    35    37    1
68    35    38    1
69    37    66    1
70    38    39    1
71    38    67    1
72    38    68    1
73    39    40    1
74    40    69    1
75    40    70    1
76    40    71    1
@<TRIPOS>SUBSTRUCTURE
1   ZINC000299888867 1     RESIDUE    1   A     ZIN   1
