@<TRIPOS>MOLECULE
ZINC000257838199
47    49    1     0     0
SMALL
USER_CHARGES
@<TRIPOS>ATOM
1      C1     -0.0187    1.5258    0.0104 C.3      1 ZINC000257838199   -0.1400
2      C2      0.0021   -0.0041    0.0020 C.3      1 ZINC000257838199   -0.0500
3      C3      0.7421   -0.5109    1.2415 C.3      1 ZINC000257838199   -0.1500
4      C4     -1.4333   -0.5336    0.0129 C.3      1 ZINC000257838199   -0.1500
5      C5      0.7074   -0.4901   -1.2379 C.2      1 ZINC000257838199    0.4600
6      O6      1.1497    0.3081   -2.0357 O.2      1 ZINC000257838199   -0.4700
7      O7      0.8459   -1.8067   -1.4587 O.3      1 ZINC000257838199   -0.2300
8      C8      1.4918   -2.1770   -2.5953 C.2      1 ZINC000257838199   -0.0500
9      C9      1.7154   -3.4368   -2.9787 C.2      1 ZINC000257838199   -0.1300
10     C10     2.3973   -3.5850   -4.1817 C.2      1 ZINC000257838199   -0.1000
11     C11     2.7242   -2.4154   -4.7660 C.2      1 ZINC000257838199   -0.2000
12     C12     3.4711   -2.3117   -6.0793 C.3      1 ZINC000257838199   -0.0400
13     C13     4.0860   -3.6840   -6.3813 C.3      1 ZINC000257838199    0.0200
14     N14     3.0539   -4.7186   -6.2299 N.4      1 ZINC000257838199   -0.1100
15     O15     1.8381   -4.2966   -6.9257 O.3      1 ZINC000257838199   -0.6200
16     C16     3.5368   -5.9777   -6.8125 C.3      1 ZINC000257838199    0.0600
17     C17     2.4796   -7.0405   -6.6584 C.ar     1 ZINC000257838199   -0.1100
18     C18     2.5750   -7.9673   -5.6378 C.ar     1 ZINC000257838199   -0.1000
19     C19     1.6052   -8.9426   -5.4963 C.ar     1 ZINC000257838199   -0.1300
20     C20     0.5399   -8.9914   -6.3757 C.ar     1 ZINC000257838199   -0.0900
21     C21     0.4434   -8.0648   -7.3970 C.ar     1 ZINC000257838199   -0.1200
22     C22     1.4102   -7.0851   -7.5354 C.ar     1 ZINC000257838199    0.0200
23     Cl23    1.2896   -5.9211   -8.8177 Cl       1 ZINC000257838199   -0.0300
24     C24     2.7541   -4.9261   -4.8075 C.3      1 ZINC000257838199    0.0900
25     S25     2.1547   -1.0716   -3.7907 S.3      1 ZINC000257838199    0.2200
26     H26     1.0039    1.9031    0.0027 H        1 ZINC000257838199    0.0700
27     H27    -0.5459    1.8868   -0.8726 H        1 ZINC000257838199    0.0700
28     H28    -0.5289    1.8773    0.9072 H        1 ZINC000257838199    0.0800
29     H29     0.2319   -0.1594    2.1383 H        1 ZINC000257838199    0.0800
30     H30     0.7568   -1.6008    1.2356 H        1 ZINC000257838199    0.0700
31     H31     1.7647   -0.1336    1.2338 H        1 ZINC000257838199    0.0600
32     H32    -1.9605   -0.1726   -0.8702 H        1 ZINC000257838199    0.0600
33     H33    -1.4185   -1.6235    0.0069 H        1 ZINC000257838199    0.0700
34     H34    -1.9435   -0.1821    0.9097 H        1 ZINC000257838199    0.0800
35     H35     1.3888   -4.2837   -2.3935 H        1 ZINC000257838199    0.1500
36     H36     2.7804   -2.0338   -6.8754 H        1 ZINC000257838199    0.1100
37     H37     4.2600   -1.5641   -5.9969 H        1 ZINC000257838199    0.0900
38     H38     4.4667   -3.6959   -7.4026 H        1 ZINC000257838199    0.1100
39     H39     4.9019   -3.8788   -5.6851 H        1 ZINC000257838199    0.0900
40     H40     3.7515   -5.8295   -7.8709 H        1 ZINC000257838199    0.1200
41     H41     4.4451   -6.2913   -6.2980 H        1 ZINC000257838199    0.1000
42     H42     3.4075   -7.9301   -4.9508 H        1 ZINC000257838199    0.1300
43     H43     1.6802   -9.6667   -4.6986 H        1 ZINC000257838199    0.1300
44     H44    -0.2170   -9.7538   -6.2652 H        1 ZINC000257838199    0.1300
45     H45    -0.3890   -8.1030   -8.0841 H        1 ZINC000257838199    0.1300
46     H46     3.6283   -5.3422   -4.3067 H        1 ZINC000257838199    0.0900
47     H47     1.9124   -5.6114   -4.7076 H        1 ZINC000257838199    0.1100
@<TRIPOS>BOND
1     1     2     1
2     1     26    1
3     1     27    1
4     1     28    1
5     2     3     1
6     2     4     1
7     2     5     1
8     3     29    1
9     3     30    1
10    3     31    1
11    4     32    1
12    4     33    1
13    4     34    1
14    5     6     2
15    5     7     1
16    7     8     1
17    8     25    1
18    8     9     2
19    9     10    1
20    9     35    1
21    10    24    1
22    10    11    2
23    11    12    1
24    11    25    1
25    12    13    1
26    12    36    1
27    12    37    1
28    13    14    1
29    13    38    1
30    13    39    1
31    14    15    1
32    14    16    1
33    14    24    1
34    16    17    1
35    16    40    1
36    16    41    1
37    17    22    ar
38    17    18    ar
39    18    19    ar
40    18    42    1
41    19    20    ar
42    19    43    1
43    20    21    ar
44    20    44    1
45    21    22    ar
46    21    45    1
47    22    23    1
48    24    46    1
49    24    47    1
@<TRIPOS>SUBSTRUCTURE
1   ZINC000257838199 1     RESIDUE    1   A     ZIN   1
