@<TRIPOS>MOLECULE
ZINC000003925337
56    59    1     0     0
SMALL
USER_CHARGES
@<TRIPOS>ATOM
1      C1      0.3232    2.3933    0.1420 C.3      1 ZINC000003925337    0.0900
2      N2      0.1559    0.9388    0.1955 N.am     1 ZINC000003925337   -0.7300
3      C3      0.6134    0.1704   -0.8128 C.2      1 ZINC000003925337    0.5500
4      O4      1.1649    0.6841   -1.7665 O.2      1 ZINC000003925337   -0.5000
5      C5      0.4445   -1.2975   -0.7588 C.ar     1 ZINC000003925337   -0.0900
6      C6     -0.1931   -1.8896    0.3319 C.ar     1 ZINC000003925337   -0.1300
7      C7     -0.3475   -3.2623    0.3758 C.ar     1 ZINC000003925337    0.1000
8      F8     -0.9650   -3.8383    1.4304 F        1 ZINC000003925337   -0.1300
9      C9      0.1296   -4.0486   -0.6604 C.ar     1 ZINC000003925337   -0.1300
10     C10     0.7629   -3.4656   -1.7435 C.ar     1 ZINC000003925337   -0.0800
11     C11     0.9174   -2.0960   -1.8016 C.ar     1 ZINC000003925337   -0.0600
12     C12     1.6072   -1.4640   -2.9830 C.3      1 ZINC000003925337    0.1600
13     N13     2.9935   -1.1499   -2.6284 N.am     1 ZINC000003925337   -0.6900
14     C14     3.8074   -0.5747   -3.5356 C.2      1 ZINC000003925337    0.5800
15     O15     3.3911   -0.3163   -4.6485 O.2      1 ZINC000003925337   -0.5100
16     C16     5.2037   -0.2584   -3.1785 C.ar     1 ZINC000003925337    0.0500
17     N17     5.6480   -0.5540   -1.9511 N.ar     1 ZINC000003925337   -0.4400
18     C18     6.8791   -0.3002   -1.5659 C.ar     1 ZINC000003925337    0.4000
19     N19     7.2828   -0.6297   -0.2813 N.am     1 ZINC000003925337   -0.9400
20     C20     7.9233   -1.9222    0.0030 C.3      1 ZINC000003925337    0.1100
21     C21     7.1170   -2.6679    1.0647 C.3      1 ZINC000003925337   -0.1600
22     C22     7.1363   -1.9076    2.3887 C.3      1 ZINC000003925337   -0.1100
23     C23     6.3032   -0.6271    2.2634 C.3      1 ZINC000003925337   -0.6100
24     S24     7.0633    0.4287    0.9839 S.o2     1 ZINC000003925337    2.5900
25     O25     8.3759    0.8168    1.3656 O.2      1 ZINC000003925337   -0.9400
26     O26     6.1270    1.3781    0.4927 O.2      1 ZINC000003925337   -0.9400
27     C27     7.7934    0.3077   -2.4584 C.ar     1 ZINC000003925337   -0.1200
28     C28     9.1147    0.5935   -2.0845 C.ar     1 ZINC000003925337   -0.0500
29     C29     9.9331    1.1823   -3.0099 C.ar     1 ZINC000003925337   -0.1600
30     C30     9.4460    1.4796   -4.2796 C.ar     1 ZINC000003925337    0.1500
31     N31     8.2080    1.2099   -4.6234 N.ar     1 ZINC000003925337   -0.4500
32     C32     7.3639    0.6369   -3.7667 C.ar     1 ZINC000003925337    0.1300
33     C33     6.0287    0.3341   -4.1249 C.ar     1 ZINC000003925337    0.1800
34     O34     5.5631    0.6217   -5.3657 O.3      1 ZINC000003925337   -0.4500
35     H35     1.3846    2.6351    0.0874 H        1 ZINC000003925337    0.0700
36     H36    -0.1846    2.7853   -0.7392 H        1 ZINC000003925337    0.0600
37     H37    -0.1059    2.8415    1.0382 H        1 ZINC000003925337    0.0800
38     H38    -0.2842    0.5289    0.9565 H        1 ZINC000003925337    0.4000
39     H39    -0.5648   -1.2768    1.1398 H        1 ZINC000003925337    0.1400
40     H40     0.0070   -5.1209   -0.6224 H        1 ZINC000003925337    0.1500
41     H41     1.1332   -4.0840   -2.5478 H        1 ZINC000003925337    0.1500
42     H42     1.5955   -2.1570   -3.8242 H        1 ZINC000003925337    0.0800
43     H43     1.0865   -0.5474   -3.2601 H        1 ZINC000003925337    0.1100
44     H44     3.3257   -1.3560   -1.7406 H        1 ZINC000003925337    0.4100
45     H45     7.9608   -2.5175   -0.9093 H        1 ZINC000003925337    0.1000
46     H46     8.9363   -1.7531    0.3684 H        1 ZINC000003925337    0.0900
47     H47     6.0864   -2.7722    0.7254 H        1 ZINC000003925337    0.0800
48     H48     7.5476   -3.6582    1.2129 H        1 ZINC000003925337    0.1000
49     H49     6.7178   -2.5369    3.1741 H        1 ZINC000003925337    0.0900
50     H50     8.1640   -1.6480    2.6426 H        1 ZINC000003925337    0.0900
51     H51     5.2826   -0.8798    1.9758 H        1 ZINC000003925337    0.1400
52     H52     6.2962   -0.0989    3.2169 H        1 ZINC000003925337    0.1400
53     H53     9.4757    0.3562   -1.0946 H        1 ZINC000003925337    0.1500
54     H54    10.9562    1.4164   -2.7552 H        1 ZINC000003925337    0.1500
55     H55    10.1030    1.9443   -4.9999 H        1 ZINC000003925337    0.1700
56     H56     5.6842   -0.0923   -6.0065 H        1 ZINC000003925337    0.4000
@<TRIPOS>BOND
1     1     2     1
2     1     35    1
3     1     36    1
4     1     37    1
5     2     3     am
6     2     38    1
7     3     4     2
8     3     5     1
9     5     11    ar
10    5     6     ar
11    6     7     ar
12    6     39    1
13    7     8     1
14    7     9     ar
15    9     10    ar
16    9     40    1
17    10    11    ar
18    10    41    1
19    11    12    1
20    12    13    1
21    12    42    1
22    12    43    1
23    13    14    am
24    13    44    1
25    14    15    2
26    14    16    1
27    16    33    ar
28    16    17    ar
29    17    18    ar
30    18    19    1
31    18    27    ar
32    19    24    am
33    19    20    1
34    20    21    1
35    20    45    1
36    20    46    1
37    21    22    1
38    21    47    1
39    21    48    1
40    22    23    1
41    22    49    1
42    22    50    1
43    23    24    1
44    23    51    1
45    23    52    1
46    24    25    2
47    24    26    2
48    27    32    ar
49    27    28    ar
50    28    29    ar
51    28    53    1
52    29    30    ar
53    29    54    1
54    30    31    ar
55    30    55    1
56    31    32    ar
57    32    33    ar
58    33    34    1
59    34    56    1
@<TRIPOS>SUBSTRUCTURE
1   ZINC000003925337 1     RESIDUE    1   A     ZIN   1
