@<TRIPOS>MOLECULE
ZINC000000896041
37    39    1     0     0
SMALL
USER_CHARGES
@<TRIPOS>ATOM
1      O1     -0.0164    1.3548    0.0095 O.3      1 ZINC000000896041   -0.5000
2      C2      0.0021   -0.0041    0.0020 C.ar     1 ZINC000000896041    0.1000
3      C3      0.0058   -0.6923   -1.2026 C.ar     1 ZINC000000896041   -0.1400
4      C4      0.0251   -2.0736   -1.2075 C.ar     1 ZINC000000896041   -0.1000
5      C5      0.0401   -2.7702   -0.0132 C.ar     1 ZINC000000896041   -0.1000
6      C6      0.0606   -4.2770   -0.0215 C.3      1 ZINC000000896041   -0.0700
7      C7      1.5098   -4.7674   -0.0310 C.3      1 ZINC000000896041    0.1400
8      H8      2.0357   -4.3190   -0.8740 H        1 ZINC000000896041    0.0600
9      N9      2.1650   -4.3650    1.2174 N.3      1 ZINC000000896041   -0.6800
10     C10     3.5035   -4.9696    1.3082 C.3      1 ZINC000000896041    0.0500
11     C11     3.3427   -6.4689    1.5602 C.3      1 ZINC000000896041   -0.0800
12     C12     2.3829   -7.0591    0.5589 C.ar     1 ZINC000000896041   -0.0600
13     C13     2.3741   -8.4351    0.3857 C.ar     1 ZINC000000896041   -0.1300
14     C14     1.5070   -9.0210   -0.5195 C.ar     1 ZINC000000896041    0.0800
15     O15     1.5022  -10.3707   -0.6858 O.3      1 ZINC000000896041   -0.4900
16     C16     0.6395   -8.2223   -1.2585 C.ar     1 ZINC000000896041    0.0800
17     O17    -0.2186   -8.7883   -2.1489 O.3      1 ZINC000000896041   -0.4900
18     C18     0.6535   -6.8500   -1.0832 C.ar     1 ZINC000000896041   -0.1300
19     C19     1.5264   -6.2668   -0.1754 C.ar     1 ZINC000000896041   -0.0700
20     C20     0.0368   -2.0866    1.1886 C.ar     1 ZINC000000896041   -0.0900
21     C21     0.0230   -0.7053    1.1989 C.ar     1 ZINC000000896041   -0.1400
22     H22     0.8616    1.7601    0.0033 H        1 ZINC000000896041    0.3900
23     H23    -0.0066   -0.1486   -2.1357 H        1 ZINC000000896041    0.1300
24     H24     0.0280   -2.6098   -2.1449 H        1 ZINC000000896041    0.1300
25     H25    -0.4441   -4.6522    0.8688 H        1 ZINC000000896041    0.0900
26     H26    -0.4525   -4.6425   -0.9111 H        1 ZINC000000896041    0.0800
27     H27     2.2164   -3.3600    1.2912 H        1 ZINC000000896041    0.3500
28     H28     4.0412   -4.8110    0.3734 H        1 ZINC000000896041    0.0400
29     H29     4.0548   -4.5167    2.1323 H        1 ZINC000000896041    0.0800
30     H30     4.3120   -6.9580    1.4642 H        1 ZINC000000896041    0.0800
31     H31     2.9574   -6.6272    2.5675 H        1 ZINC000000896041    0.0900
32     H32     3.0483   -9.0528    0.9604 H        1 ZINC000000896041    0.1300
33     H33     0.8903  -10.8370   -0.0999 H        1 ZINC000000896041    0.3900
34     H34    -1.0764   -9.0266   -1.7714 H        1 ZINC000000896041    0.3900
35     H35    -0.0193   -6.2290   -1.6560 H        1 ZINC000000896041    0.1400
36     H36     0.0490   -2.6330    2.1202 H        1 ZINC000000896041    0.1300
37     H37     0.0204   -0.1718    2.1379 H        1 ZINC000000896041    0.1300
@<TRIPOS>BOND
1     1     2     1
2     1     22    1
3     2     21    ar
4     2     3     ar
5     3     4     ar
6     3     23    1
7     4     5     ar
8     4     24    1
9     5     6     1
10    5     20    ar
11    6     7     1
12    6     25    1
13    6     26    1
14    7     8     1
15    7     19    1
16    7     9     1
17    9     10    1
18    9     27    1
19    10    11    1
20    10    28    1
21    10    29    1
22    11    12    1
23    11    30    1
24    11    31    1
25    12    19    ar
26    12    13    ar
27    13    14    ar
28    13    32    1
29    14    15    1
30    14    16    ar
31    15    33    1
32    16    17    1
33    16    18    ar
34    17    34    1
35    18    19    ar
36    18    35    1
37    20    21    ar
38    20    36    1
39    21    37    1
@<TRIPOS>SUBSTRUCTURE
1   ZINC000000896041 1     RESIDUE    1   A     ZIN   1
