@<TRIPOS>MOLECULE
ZINC000016953163
  56   57    0    0    0
SMALL
USER_CHARGES
NO_NAME
@<TRIPOS>ATOM
    1 C1       -0.0173     1.4248     0.0099 C.3    1 <0>       0.0300
    2 O2        0.0021    -0.0041     0.0020 O.3    1 <0>      -0.3100
    3 C3        0.6062    -0.6075    -1.0564 C.ar   1 <0>       0.0900
    4 C4        1.1727     0.1587    -2.0618 C.ar   1 <0>      -0.1700
    5 C5        1.7870    -0.4565    -3.1372 C.ar   1 <0>      -0.1100
    6 C6        1.8372    -1.8356    -3.2121 C.ar   1 <0>      -0.0700
    7 C7        2.5075    -2.5009    -4.3865 C.3    1 <0>      -0.0800
    8 C8        3.9888    -2.7191    -4.0718 C.3    1 <0>      -0.0800
    9 H9        4.4445    -1.7693    -3.7920 H      1 <0>       0.0700
   10 C10       4.1236    -3.7102    -2.9141 C.3    1 <0>      -0.1500
   11 C11       4.6955    -3.2794    -5.3078 C.3    1 <0>      -0.0800
   12 H12       4.2398    -4.2292    -5.5876 H      1 <0>       0.0700
   13 C13       4.5607    -2.2883    -6.4655 C.3    1 <0>      -0.1500
   14 C14       6.1768    -3.4976    -4.9931 C.3    1 <0>      -0.0800
   15 C15       6.8471    -4.1629    -6.1675 C.ar   1 <0>      -0.0700
   16 C16       6.8923    -5.5420    -6.2452 C.ar   1 <0>      -0.1100
   17 C17       7.5066    -6.1572    -7.3206 C.ar   1 <0>      -0.1700
   18 C18       8.0781    -5.3910    -8.3232 C.ar   1 <0>       0.0900
   19 O19       8.6822    -5.9944    -9.3816 O.3    1 <0>      -0.3100
   20 C20       8.6910    -7.4233    -9.3955 C.3    1 <0>       0.0300
   21 C21       8.0322    -4.0020    -8.2451 C.ar   1 <0>       0.1000
   22 O22       8.5913    -3.2454    -9.2271 O.3    1 <0>      -0.3100
   23 C23       8.5064    -1.8264    -9.0807 C.3    1 <0>       0.0300
   24 C24       7.4107    -3.3920    -7.1677 C.ar   1 <0>      -0.1700
   25 C25       1.2740    -2.6064    -2.2116 C.ar   1 <0>      -0.1700
   26 C26       0.6617    -1.9965    -1.1290 C.ar   1 <0>       0.1000
   27 O27       0.1074    -2.7530    -0.1443 O.3    1 <0>      -0.3100
   28 C28       0.1928    -4.1720    -0.2904 C.3    1 <0>       0.0300
   29 H29       1.0053     1.8021     0.0021 H      1 <0>       0.0500
   30 H30      -0.5445     1.7859    -0.8732 H      1 <0>       0.0500
   31 H31      -0.5275     1.7763     0.9067 H      1 <0>       0.1000
   32 H32       1.1343     1.2366    -2.0060 H      1 <0>       0.1300
   33 H33       2.2283     0.1421    -3.9204 H      1 <0>       0.1300
   34 H34       2.0316    -3.4623    -4.5797 H      1 <0>       0.0700
   35 H35       2.4129    -1.8651    -5.2669 H      1 <0>       0.0800
   36 H36       3.6201    -3.3110    -2.0336 H      1 <0>       0.0600
   37 H37       3.6679    -4.6600    -3.1939 H      1 <0>       0.0500
   38 H38       5.1789    -3.8656    -2.6899 H      1 <0>       0.0600
   39 H39       5.0642    -2.6875    -7.3460 H      1 <0>       0.0600
   40 H40       3.5054    -2.1328    -6.6897 H      1 <0>       0.0600
   41 H41       5.0165    -1.3385    -6.1857 H      1 <0>       0.0500
   42 H42       6.6527    -2.5362    -4.7999 H      1 <0>       0.0700
   43 H43       6.2715    -4.1333    -4.1127 H      1 <0>       0.0800
   44 H44       6.4472    -6.1406    -5.4642 H      1 <0>       0.1300
   45 H45       7.5412    -7.2351    -7.3786 H      1 <0>       0.1300
   46 H46       9.2024    -7.7748   -10.2916 H      1 <0>       0.1000
   47 H47       9.2117    -7.7921    -8.5118 H      1 <0>       0.0500
   48 H48       7.6656    -7.7930    -9.3937 H      1 <0>       0.0500
   49 H49       8.9902    -1.3439    -9.9299 H      1 <0>       0.1000
   50 H50       7.4590    -1.5273    -9.0410 H      1 <0>       0.0500
   51 H51       9.0053    -1.5258    -8.1593 H      1 <0>       0.0500
   52 H52       7.3737    -2.3145    -7.1048 H      1 <0>       0.1300
   53 H53       1.3146    -3.6839    -2.2726 H      1 <0>       0.1300
   54 H54      -0.2869    -4.6545     0.5611 H      1 <0>       0.1000
   55 H55      -0.3098    -4.4735    -1.2094 H      1 <0>       0.0500
   56 H56       1.2403    -4.4703    -0.3345 H      1 <0>       0.0500
@<TRIPOS>BOND
   1    1    2 1
   2    1   29 1
   3    1   30 1
   4    1   31 1
   5    2    3 1
   6    3   26 ar
   7    3    4 ar
   8    4    5 ar
   9    4   32 1
  10    5    6 ar
  11    5   33 1
  12    6    7 1
  13    6   25 ar
  14    7    8 1
  15    7   34 1
  16    7   35 1
  17    8    9 1
  18    8   10 1
  19    8   11 1
  20   10   36 1
  21   10   37 1
  22   10   38 1
  23   11   12 1
  24   11   13 1
  25   11   14 1
  26   13   39 1
  27   13   40 1
  28   13   41 1
  29   14   15 1
  30   14   42 1
  31   14   43 1
  32   15   24 ar
  33   15   16 ar
  34   16   17 ar
  35   16   44 1
  36   17   18 ar
  37   17   45 1
  38   18   19 1
  39   18   21 ar
  40   19   20 1
  41   20   46 1
  42   20   47 1
  43   20   48 1
  44   21   22 1
  45   21   24 ar
  46   22   23 1
  47   23   49 1
  48   23   50 1
  49   23   51 1
  50   24   52 1
  51   25   26 ar
  52   25   53 1
  53   26   27 1
  54   27   28 1
  55   28   54 1
  56   28   55 1
  57   28   56 1
