@<TRIPOS>MOLECULE
ZINC000003915436
75    80    1     0     0
SMALL
USER_CHARGES
@<TRIPOS>ATOM
1      C1      0.0200    1.3351    0.0730 C.3      1 ZINC000003915436    0.0300
2      O2      0.0477   -0.0767   -0.1465 O.3      1 ZINC000003915436   -0.3100
3      C3     -1.1476   -0.7251   -0.1462 C.ar     1 ZINC000003915436    0.1000
4      C4     -2.3208   -0.0202    0.0545 C.ar     1 ZINC000003915436   -0.1700
5      C5     -3.5428   -0.6767    0.0538 C.ar     1 ZINC000003915436   -0.0600
6      C6     -3.5925   -2.0392   -0.1501 C.ar     1 ZINC000003915436   -0.0800
7      C7     -2.4179   -2.7511   -0.3489 C.ar     1 ZINC000003915436   -0.1700
8      C8     -1.1973   -2.1007   -0.3537 C.ar     1 ZINC000003915436    0.1000
9      O9     -0.0497   -2.8035   -0.5503 O.3      1 ZINC000003915436   -0.3100
10     C10    -0.1778   -4.2133   -0.7457 C.3      1 ZINC000003915436    0.0300
11     C11    -4.8971   -2.7924   -0.1711 C.3      1 ZINC000003915436    0.0900
12     N12    -5.9603   -1.9957    0.4489 N.3      1 ZINC000003915436   -0.5300
13     C13    -7.2568   -2.6792    0.3489 C.3      1 ZINC000003915436    0.0600
14     C14    -7.6759   -2.7653   -1.1201 C.3      1 ZINC000003915436   -0.1200
15     C15    -9.0059   -3.4666   -1.2227 C.ar     1 ZINC000003915436   -0.0900
16     C16    -9.0519   -4.8415   -1.3628 C.ar     1 ZINC000003915436   -0.1000
17     C17   -10.2691   -5.4873   -1.4567 C.ar     1 ZINC000003915436   -0.1400
18     C18   -11.4478   -4.7541   -1.4102 C.ar     1 ZINC000003915436    0.1400
19     N19   -12.6820   -5.4050   -1.5045 N.am     1 ZINC000003915436   -0.6600
20     C20   -13.7208   -4.7955   -2.1095 C.2      1 ZINC000003915436    0.5700
21     O21   -13.5605   -3.7218   -2.6577 O.2      1 ZINC000003915436   -0.5200
22     C22   -15.0514   -5.4303   -2.1067 C.ar     1 ZINC000003915436   -0.2200
23     C23   -15.2704   -6.5956   -1.3735 C.ar     1 ZINC000003915436   -0.0100
24     C24   -16.5158   -7.1969   -1.3645 C.ar     1 ZINC000003915436   -0.1800
25     C25   -17.5623   -6.6515   -2.0794 C.ar     1 ZINC000003915436    0.0200
26     C26   -17.3674   -5.4846   -2.8190 C.ar     1 ZINC000003915436   -0.2300
27     C27   -16.1084   -4.8604   -2.8391 C.ar     1 ZINC000003915436    0.2900
28     N28   -15.9074   -3.7181   -3.5731 N.pl3    1 ZINC000003915436   -0.6100
29     C29   -16.9622   -2.9729   -4.0634 C.ar     1 ZINC000003915436    0.1900
30     C30   -16.7528   -1.6733   -4.5304 C.ar     1 ZINC000003915436    0.0800
31     O31   -15.5060   -1.1316   -4.5009 O.3      1 ZINC000003915436   -0.3100
32     C32   -15.3663    0.2021   -4.9948 C.3      1 ZINC000003915436    0.0300
33     C33   -17.8152   -0.9393   -5.0231 C.ar     1 ZINC000003915436   -0.1500
34     C34   -19.0923   -1.4797   -5.0596 C.ar     1 ZINC000003915436   -0.1200
35     C35   -19.3203   -2.7584   -4.6015 C.ar     1 ZINC000003915436   -0.0600
36     C36   -18.2586   -3.5124   -4.0990 C.ar     1 ZINC000003915436   -0.1800
37     C37   -18.4727   -4.8789   -3.5865 C.2      1 ZINC000003915436    0.4400
38     O38   -19.5114   -5.4808   -3.7897 O.2      1 ZINC000003915436   -0.4600
39     C39   -11.3981   -3.3733   -1.2694 C.ar     1 ZINC000003915436   -0.1100
40     C40   -10.1777   -2.7342   -1.1708 C.ar     1 ZINC000003915436   -0.1000
41     C41    -6.0199   -0.6596   -0.1650 C.3      1 ZINC000003915436    0.0500
42     C42    -4.7925    0.1348    0.2823 C.3      1 ZINC000003915436   -0.0700
43     H43     1.0369    1.7267    0.0482 H        1 ZINC000003915436    0.1000
44     H44    -0.5724    1.8126   -0.7074 H        1 ZINC000003915436    0.0500
45     H45    -0.4256    1.5428    1.0458 H        1 ZINC000003915436    0.0600
46     H46    -2.2851    1.0475    0.2132 H        1 ZINC000003915436    0.1400
47     H47    -2.4575   -3.8191   -0.5047 H        1 ZINC000003915436    0.1300
48     H48    -0.6486   -4.6602    0.1299 H        1 ZINC000003915436    0.0600
49     H49    -0.7922   -4.4037   -1.6256 H        1 ZINC000003915436    0.0500
50     H50     0.8099   -4.6512   -0.8904 H        1 ZINC000003915436    0.1000
51     H51    -5.1684   -3.0131   -1.2034 H        1 ZINC000003915436    0.0500
52     H52    -4.7816   -3.7271    0.3776 H        1 ZINC000003915436    0.0900
53     H53    -7.1704   -3.6844    0.7616 H        1 ZINC000003915436    0.0800
54     H54    -8.0065   -2.1199    0.9085 H        1 ZINC000003915436    0.0800
55     H55    -7.7623   -1.7602   -1.5328 H        1 ZINC000003915436    0.0800
56     H56    -6.9262   -3.3246   -1.6796 H        1 ZINC000003915436    0.0700
57     H57    -8.1349   -5.4110   -1.3992 H        1 ZINC000003915436    0.1300
58     H58   -10.3043   -6.5611   -1.5664 H        1 ZINC000003915436    0.1300
59     H59   -12.7905   -6.2950   -1.1345 H        1 ZINC000003915436    0.4100
60     H60   -14.4606   -7.0326   -0.8080 H        1 ZINC000003915436    0.1300
61     H61   -16.6703   -8.1007   -0.7938 H        1 ZINC000003915436    0.1400
62     H62   -18.5315   -7.1277   -2.0667 H        1 ZINC000003915436    0.1500
63     H63   -14.9999   -3.4259   -3.7521 H        1 ZINC000003915436    0.4400
64     H64   -14.3244    0.5120   -4.9144 H        1 ZINC000003915436    0.1000
65     H65   -15.6762    0.2371   -6.0392 H        1 ZINC000003915436    0.0600
66     H66   -15.9917    0.8744   -4.4075 H        1 ZINC000003915436    0.0600
67     H67   -17.6494    0.0654   -5.3830 H        1 ZINC000003915436    0.1400
68     H68   -19.9122   -0.8945   -5.4490 H        1 ZINC000003915436    0.1400
69     H69   -20.3158   -3.1759   -4.6316 H        1 ZINC000003915436    0.1400
70     H70   -12.3129   -2.8003   -1.2329 H        1 ZINC000003915436    0.1400
71     H71   -10.1384   -1.6605   -1.0612 H        1 ZINC000003915436    0.1200
72     H72    -6.0186   -0.7551   -1.2508 H        1 ZINC000003915436    0.0400
73     H73    -6.9257   -0.1475    0.1594 H        1 ZINC000003915436    0.0800
74     H74    -4.8814    0.3716    1.3426 H        1 ZINC000003915436    0.0800
75     H75    -4.7324    1.0605   -0.2899 H        1 ZINC000003915436    0.0800
@<TRIPOS>BOND
1     1     2     1
2     1     43    1
3     1     44    1
4     1     45    1
5     2     3     1
6     3     8     ar
7     3     4     ar
8     4     5     ar
9     4     46    1
10    5     42    1
11    5     6     ar
12    6     7     ar
13    6     11    1
14    7     8     ar
15    7     47    1
16    8     9     1
17    9     10    1
18    10    48    1
19    10    49    1
20    10    50    1
21    11    12    1
22    11    51    1
23    11    52    1
24    12    13    1
25    12    41    1
26    13    14    1
27    13    53    1
28    13    54    1
29    14    15    1
30    14    55    1
31    14    56    1
32    15    40    ar
33    15    16    ar
34    16    17    ar
35    16    57    1
36    17    18    ar
37    17    58    1
38    18    19    1
39    18    39    ar
40    19    20    am
41    19    59    1
42    20    21    2
43    20    22    1
44    22    27    ar
45    22    23    ar
46    23    24    ar
47    23    60    1
48    24    25    ar
49    24    61    1
50    25    26    ar
51    25    62    1
52    26    37    1
53    26    27    ar
54    27    28    1
55    28    29    1
56    28    63    1
57    29    36    ar
58    29    30    ar
59    30    31    1
60    30    33    ar
61    31    32    1
62    32    64    1
63    32    65    1
64    32    66    1
65    33    34    ar
66    33    67    1
67    34    35    ar
68    34    68    1
69    35    36    ar
70    35    69    1
71    36    37    1
72    37    38    2
73    39    40    ar
74    39    70    1
75    40    71    1
76    41    42    1
77    41    72    1
78    41    73    1
79    42    74    1
80    42    75    1
@<TRIPOS>SUBSTRUCTURE
1   ZINC000003915436 1     RESIDUE    1   A     ZIN   1
