@<TRIPOS>MOLECULE
ZINC000002562219
30    30    1     0     0
SMALL
USER_CHARGES
@<TRIPOS>ATOM
1      C1     -0.0184    1.5028    0.0103 C.3      1 ZINC000002562219   -0.1700
2      C2      0.0021   -0.0041    0.0020 C.2      1 ZINC000002562219    0.5100
3      O3      1.0605   -0.5961   -0.0113 O.2      1 ZINC000002562219   -0.5500
4      N4     -1.1558   -0.6938    0.0094 N.am     1 ZINC000002562219   -0.7100
5      C5     -1.1360   -2.1586    0.0013 C.3      1 ZINC000002562219    0.1400
6      H6     -0.2952   -2.5082   -0.5979 H        1 ZINC000002562219    0.1200
7      C7     -2.4444   -2.6850   -0.5963 C.3      1 ZINC000002562219    0.1100
8      H8     -3.2882   -2.2944   -0.0276 H        1 ZINC000002562219    0.0900
9      O9     -2.5507   -2.2655   -1.9582 O.3      1 ZINC000002562219   -0.5500
10     C10    -2.4449   -4.2153   -0.5280 C.3      1 ZINC000002562219    0.0500
11     H11    -3.3958   -4.5962   -0.9006 H        1 ZINC000002562219    0.0800
12     O12    -1.3781   -4.7293   -1.3279 O.3      1 ZINC000002562219   -0.5400
13     C13    -2.2527   -4.6534    0.9262 C.3      1 ZINC000002562219    0.0600
14     H14    -3.0884   -4.2953    1.5273 H        1 ZINC000002562219    0.0900
15     C15    -2.1921   -6.1807    0.9952 C.3      1 ZINC000002562219    0.0800
16     O16    -2.1298   -6.5937    2.3618 O.3      1 ZINC000002562219   -0.5600
17     O17    -1.0333   -4.1047    1.4304 O.3      1 ZINC000002562219   -0.3700
18     C18    -0.9927   -2.6762    1.4349 C.3      1 ZINC000002562219    0.2500
19     H19    -0.0426   -2.3409    1.8508 H        1 ZINC000002562219    0.1100
20     O20    -2.0663   -2.1714    2.2316 O.3      1 ZINC000002562219   -0.5800
21     H21     1.0042    1.8801    0.0026 H        1 ZINC000002562219    0.0900
22     H22    -0.5455    1.8639   -0.8728 H        1 ZINC000002562219    0.0900
23     H23    -0.5286    1.8543    0.9071 H        1 ZINC000002562219    0.0900
24     H24    -2.0023   -0.2203    0.0200 H        1 ZINC000002562219    0.4100
25     H25    -3.3574   -2.5643   -2.4000 H        1 ZINC000002562219    0.3800
26     H26    -1.3186   -5.6945   -1.3309 H        1 ZINC000002562219    0.3800
27     H27    -3.0832   -6.6010    0.5288 H        1 ZINC000002562219    0.0600
28     H28    -1.3055   -6.5333    0.4682 H        1 ZINC000002562219    0.0600
29     H29    -2.0892   -7.5524    2.4815 H        1 ZINC000002562219    0.3800
30     H30    -2.0412   -2.4604    3.1541 H        1 ZINC000002562219    0.3900
@<TRIPOS>BOND
1     1     2     1
2     1     21    1
3     1     22    1
4     1     23    1
5     2     3     2
6     2     4     am
7     4     5     1
8     4     24    1
9     5     6     1
10    5     18    1
11    5     7     1
12    7     8     1
13    7     9     1
14    7     10    1
15    9     25    1
16    10    11    1
17    10    12    1
18    10    13    1
19    12    26    1
20    13    14    1
21    13    15    1
22    13    17    1
23    15    16    1
24    15    27    1
25    15    28    1
26    16    29    1
27    17    18    1
28    18    19    1
29    18    20    1
30    20    30    1
@<TRIPOS>SUBSTRUCTURE
1   ZINC000002562219 1     RESIDUE    1   A     ZIN   1
