@<TRIPOS>MOLECULE
ZINC000000587604
  44   48    0    0    0
SMALL
USER_CHARGES
NO_NAME
@<TRIPOS>ATOM
    1 N1       -0.0167     1.3813     0.0096 N.pl3  1 <0>      -0.8300
    2 C2        0.0021    -0.0041     0.0020 C.ar   1 <0>       0.4500
    3 N3       -1.1332    -0.6932     0.0036 N.ar   1 <0>      -0.5500
    4 C4       -1.1180    -2.0199    -0.0036 C.ar   1 <0>       0.4300
    5 C5       -2.4022    -2.7570    -0.0015 C.2    1 <0>       0.1500
    6 N6       -3.6018    -2.2266     0.0013 N.2    1 <0>      -0.1800
    7 N7       -4.5697    -3.2355     0.0020 N.pl3  1 <0>      -0.3800
    8 C8       -6.0185    -3.0183     0.0042 C.3    1 <0>       0.1900
    9 C9       -6.5172    -2.9424    -1.4159 C.ar   1 <0>      -0.1600
   10 C10      -6.6610    -1.7146    -2.0332 C.ar   1 <0>      -0.0600
   11 C11      -7.1186    -1.6446    -3.3361 C.ar   1 <0>      -0.1400
   12 C12      -7.4331    -2.8024    -4.0224 C.ar   1 <0>      -0.0800
   13 C13      -7.2904    -4.0317    -3.4068 C.ar   1 <0>      -0.1600
   14 C14      -6.8261    -4.1034    -2.1046 C.ar   1 <0>       0.1300
   15 F15      -6.6863    -5.3044    -1.5019 F      1 <0>      -0.1200
   16 C16      -3.9529    -4.4586    -0.0004 C.ar   1 <0>       0.3100
   17 N17      -4.4033    -5.7074    -0.0005 N.ar   1 <0>      -0.4900
   18 C18      -3.5809    -6.7340    -0.0027 C.ar   1 <0>       0.1700
   19 C19      -2.2044    -6.5615    -0.0051 C.ar   1 <0>      -0.2200
   20 C20      -1.6805    -5.2943    -0.0051 C.ar   1 <0>       0.0200
   21 C21      -2.5667    -4.2139    -0.0086 C.ar   1 <0>      -0.1900
   22 N22       0.0196    -2.7022    -0.0131 N.ar   1 <0>      -0.5300
   23 C23       1.1874    -2.0780    -0.0152 C.ar   1 <0>       0.1800
   24 C24       1.2160    -0.6965    -0.0133 C.ar   1 <0>      -0.2100
   25 C25       2.5268     0.0469    -0.0157 C.3    1 <0>      -0.1100
   26 C26       3.8038    -0.7721     0.1832 C.3    1 <0>      -0.1700
   27 C27       3.4730    -0.1932    -1.1938 C.3    1 <0>      -0.1700
   28 H28       0.8166     1.8776     0.0043 H      1 <0>       0.4100
   29 H29      -0.8633     1.8548     0.0162 H      1 <0>       0.4100
   30 H30      -6.5091    -3.8451     0.5178 H      1 <0>       0.1100
   31 H31      -6.2452    -2.0848     0.5193 H      1 <0>       0.1100
   32 H32      -6.4163    -0.8092    -1.4977 H      1 <0>       0.1400
   33 H33      -7.2307    -0.6845    -3.8178 H      1 <0>       0.1300
   34 H34      -7.7907    -2.7465    -5.0399 H      1 <0>       0.1300
   35 H35      -7.5368    -4.9362    -3.9431 H      1 <0>       0.1400
   36 H36      -3.9869    -7.7348    -0.0024 H      1 <0>       0.1700
   37 H37      -1.5494    -7.4202    -0.0065 H      1 <0>       0.1400
   38 H38      -0.6122    -5.1356    -0.0069 H      1 <0>       0.1500
   39 H39       2.1079    -2.6428    -0.0226 H      1 <0>       0.1700
   40 H40       2.4997     1.0492     0.4119 H      1 <0>       0.1100
   41 H41       4.6170    -0.3087     0.7419 H      1 <0>       0.1000
   42 H42       3.6957    -1.8486     0.3158 H      1 <0>       0.1000
   43 H43       3.1473    -0.8888    -1.9672 H      1 <0>       0.1000
   44 H44       4.0686     0.6511    -1.5412 H      1 <0>       0.1000
@<TRIPOS>BOND
   1    1    2 1
   2    1   28 1
   3    1   29 1
   4    2   24 ar
   5    2    3 ar
   6    3    4 ar
   7    4    5 1
   8    4   22 ar
   9    5   21 1
  10    5    6 2
  11    6    7 1
  12    7    8 1
  13    7   16 1
  14    8    9 1
  15    8   30 1
  16    8   31 1
  17    9   14 ar
  18    9   10 ar
  19   10   11 ar
  20   10   32 1
  21   11   12 ar
  22   11   33 1
  23   12   13 ar
  24   12   34 1
  25   13   14 ar
  26   13   35 1
  27   14   15 1
  28   16   21 ar
  29   16   17 ar
  30   17   18 ar
  31   18   19 ar
  32   18   36 1
  33   19   20 ar
  34   19   37 1
  35   20   21 ar
  36   20   38 1
  37   22   23 ar
  38   23   24 ar
  39   23   39 1
  40   24   25 1
  41   25   27 1
  42   25   26 1
  43   25   40 1
  44   26   27 1
  45   26   41 1
  46   26   42 1
  47   27   43 1
  48   27   44 1
