@<TRIPOS>MOLECULE
ZINC000001485546
  52   55    0    0    0
SMALL
USER_CHARGES
NO_NAME
@<TRIPOS>ATOM
    1 C1        2.5711    -0.5372     0.7440 C.3    1 <0>      -0.1200
    2 C2        1.1390    -0.7090     0.3075 C.cat  1 <0>       0.3200
    3 N3        0.7432    -1.0685    -0.8835 N.pl3  1 <0>      -0.4700
    4 H4        1.3270    -1.2687    -1.6318 H      1 <0>       0.4700
    5 C5       -0.5967    -1.1180    -0.9102 C.2    1 <0>       0.0100
    6 C6       -1.0543    -0.7767     0.3097 C.2    1 <0>       0.0300
    7 N7        0.0442    -0.5216     1.0887 N.pl3  1 <0>      -0.3600
    8 C8        0.0384    -0.1318     2.4372 C.ar   1 <0>       0.0900
    9 C9        0.8362    -0.8001     3.3562 C.ar   1 <0>      -0.1100
   10 C10       0.8313    -0.4170     4.6821 C.ar   1 <0>      -0.0400
   11 C11       0.0276     0.6379     5.0973 C.ar   1 <0>      -0.1100
   12 S12       0.0211     1.1281     6.7897 S.3    1 <0>       0.0200
   13 C13      -1.3547     0.2486     7.4518 C.ar   1 <0>      -0.1000
   14 C14      -2.0398    -0.6682     6.6638 C.ar   1 <0>      -0.1200
   15 C15      -3.1177    -1.3556     7.1861 C.ar   1 <0>      -0.1000
   16 C16      -3.5157    -1.1321     8.4914 C.ar   1 <0>      -0.1100
   17 C17      -2.8361    -0.2202     9.2788 C.ar   1 <0>      -0.0500
   18 C18      -3.2737     0.0198    10.7008 C.3    1 <0>      -0.0400
   19 C19      -2.1082    -0.1992    11.6307 C.2    1 <0>       0.5300
   20 N20      -1.5843    -1.4324    11.7758 N.am   1 <0>      -0.8500
   21 O21      -1.6417     0.7344    12.2485 O.2    1 <0>      -0.5300
   22 C22      -3.7832     1.4572    10.8444 C.3    1 <0>      -0.1300
   23 C23      -4.2983     1.6676    12.2706 C.3    1 <0>       0.0500
   24 O24      -5.3260     0.7148    12.5499 O.3    1 <0>      -0.3800
   25 C25      -4.8955    -0.6459    12.4773 C.3    1 <0>       0.0600
   26 C26      -4.4044    -0.9493    11.0594 C.3    1 <0>      -0.1500
   27 C27      -1.7538     0.4661     8.7654 C.ar   1 <0>      -0.0800
   28 C28      -0.7707     1.3065     4.1769 C.ar   1 <0>      -0.0400
   29 C29      -0.7608     0.9257     2.8503 C.ar   1 <0>      -0.1000
   30 H30       2.9488    -1.4833     1.1316 H      1 <0>       0.1200
   31 H31       3.1758    -0.2262    -0.1079 H      1 <0>       0.1200
   32 H32       2.6245     0.2223     1.5241 H      1 <0>       0.1200
   33 H33      -1.2038    -1.3850    -1.7625 H      1 <0>       0.2300
   34 H34      -2.0882    -0.7195     0.6164 H      1 <0>       0.2200
   35 H35       1.4605    -1.6202     3.0335 H      1 <0>       0.1500
   36 H36       1.4516    -0.9372     5.3969 H      1 <0>       0.1600
   37 H37      -1.7299    -0.8427     5.6440 H      1 <0>       0.1200
   38 H38      -3.6507    -2.0683     6.5742 H      1 <0>       0.1300
   39 H39      -4.3595    -1.6706     8.8970 H      1 <0>       0.1400
   40 H40      -1.9082    -2.1645    11.2280 H      1 <0>       0.4000
   41 H41      -0.8833    -1.5880    12.4280 H      1 <0>       0.4100
   42 H42      -2.9691     2.1539    10.6446 H      1 <0>       0.0900
   43 H43      -4.5932     1.6291    10.1355 H      1 <0>       0.0800
   44 H44      -3.4783     1.5352    12.9765 H      1 <0>       0.0700
   45 H45      -4.7015     2.6758    12.3665 H      1 <0>       0.1000
   46 H46      -4.0833    -0.8085    13.1858 H      1 <0>       0.0500
   47 H47      -5.7289    -1.3044    12.7220 H      1 <0>       0.1000
   48 H48      -5.2270    -0.8260    10.3549 H      1 <0>       0.0900
   49 H49      -4.0346    -1.9736    11.0133 H      1 <0>       0.0800
   50 H50      -1.2236     1.1780     9.3807 H      1 <0>       0.1300
   51 H51      -1.3958     2.1262     4.4990 H      1 <0>       0.1600
   52 H52      -1.3812     1.4452     2.1349 H      1 <0>       0.1500
@<TRIPOS>BOND
   1    1    2 1
   2    1   30 1
   3    1   31 1
   4    1   32 1
   5    2    7 ar
   6    2    3 ar
   7    3    4 1
   8    3    5 1
   9    5    6 2
  10    5   33 1
  11    6    7 1
  12    6   34 1
  13    7    8 1
  14    8   29 ar
  15    8    9 ar
  16    9   10 ar
  17    9   35 1
  18   10   11 ar
  19   10   36 1
  20   11   12 1
  21   11   28 ar
  22   12   13 1
  23   13   27 ar
  24   13   14 ar
  25   14   15 ar
  26   14   37 1
  27   15   16 ar
  28   15   38 1
  29   16   17 ar
  30   16   39 1
  31   17   18 1
  32   17   27 ar
  33   18   26 1
  34   18   19 1
  35   18   22 1
  36   19   20 am
  37   19   21 2
  38   20   40 1
  39   20   41 1
  40   22   23 1
  41   22   42 1
  42   22   43 1
  43   23   24 1
  44   23   44 1
  45   23   45 1
  46   24   25 1
  47   25   26 1
  48   25   46 1
  49   25   47 1
  50   26   48 1
  51   26   49 1
  52   27   50 1
  53   28   29 ar
  54   28   51 1
  55   29   52 1
