@<TRIPOS>MOLECULE
ZINC000000388661
  32   34    0    0    0
SMALL
USER_CHARGES
NO_NAME
@<TRIPOS>ATOM
    1 O1       -0.0164     1.3548     0.0095 O.3    1 <0>      -0.5000
    2 C2        0.0021    -0.0041     0.0020 C.ar   1 <0>       0.1100
    3 C3        0.0058    -0.6923    -1.2026 C.ar   1 <0>      -0.1400
    4 C4        0.0251    -2.0736    -1.2075 C.ar   1 <0>      -0.0900
    5 C5        0.0401    -2.7702    -0.0132 C.ar   1 <0>      -0.0900
    6 C6        0.0606    -4.2770    -0.0215 C.3    1 <0>      -0.0800
    7 H7        0.0607    -4.6387    -1.0498 H      1 <0>       0.1000
    8 C8        1.3147    -4.7811     0.7040 C.3    1 <0>       0.0700
    9 O9        1.3597    -6.2040     0.5900 O.3    1 <0>      -0.3100
   10 C10       0.2353    -6.9014     0.8983 C.ar   1 <0>       0.1500
   11 C11       0.3491    -8.2640     1.1488 C.ar   1 <0>      -0.1800
   12 C12      -0.7747    -9.0105     1.4618 C.ar   1 <0>       0.1400
   13 O13      -0.6614   -10.3425     1.7062 O.3    1 <0>      -0.5000
   14 C14      -2.0168    -8.3951     1.5248 C.ar   1 <0>      -0.1800
   15 C15      -2.1280    -7.0414     1.2778 C.ar   1 <0>      -0.0700
   16 C16      -1.0058    -6.2913     0.9671 C.ar   1 <0>      -0.1700
   17 C17      -1.1699    -4.8137     0.7140 C.3    1 <0>      -0.0700
   18 C18       0.0368    -2.0866     1.1886 C.ar   1 <0>      -0.1000
   19 C19       0.0230    -0.7053     1.1989 C.ar   1 <0>      -0.1400
   20 H20       0.8616     1.7601     0.0033 H      1 <0>       0.3900
   21 H21      -0.0066    -0.1486    -2.1357 H      1 <0>       0.1300
   22 H22       0.0280    -2.6098    -2.1449 H      1 <0>       0.1300
   23 H23       2.2034    -4.3477     0.2451 H      1 <0>       0.1100
   24 H24       1.2690    -4.4983     1.7557 H      1 <0>       0.0700
   25 H25       1.3163    -8.7419     1.0989 H      1 <0>       0.1400
   26 H26      -0.5014   -10.5598     2.6347 H      1 <0>       0.3900
   27 H27      -2.8955    -8.9745     1.7664 H      1 <0>       0.1300
   28 H28      -3.0957    -6.5646     1.3269 H      1 <0>       0.1300
   29 H29      -1.2794    -4.2928     1.6651 H      1 <0>       0.0800
   30 H30      -2.0584    -4.6465     0.1052 H      1 <0>       0.0900
   31 H31       0.0490    -2.6330     2.1202 H      1 <0>       0.1300
   32 H32       0.0204    -0.1718     2.1379 H      1 <0>       0.1300
@<TRIPOS>BOND
   1    1    2 1
   2    1   20 1
   3    2   19 ar
   4    2    3 ar
   5    3    4 ar
   6    3   21 1
   7    4    5 ar
   8    4   22 1
   9    5    6 1
  10    5   18 ar
  11    6    7 1
  12    6   17 1
  13    6    8 1
  14    8    9 1
  15    8   23 1
  16    8   24 1
  17    9   10 1
  18   10   16 ar
  19   10   11 ar
  20   11   12 ar
  21   11   25 1
  22   12   13 1
  23   12   14 ar
  24   13   26 1
  25   14   15 ar
  26   14   27 1
  27   15   16 ar
  28   15   28 1
  29   16   17 1
  30   17   29 1
  31   17   30 1
  32   18   19 ar
  33   18   31 1
  34   19   32 1
