@<TRIPOS>MOLECULE
ZINC000001544494
  22   21    0    0    0
SMALL
USER_CHARGES
NO_NAME
@<TRIPOS>ATOM
    1 N1       -0.0178     1.4648     0.0101 N.3    1 <0>      -0.8100
    2 C2        0.0021    -0.0041     0.0020 C.3    1 <0>       0.0300
    3 H3       -1.0205    -0.3814     0.0098 H      1 <0>       0.0800
    4 C4        0.7182    -0.4975    -1.2568 C.3    1 <0>       0.0500
    5 O5       -0.0359    -0.1233    -2.4115 O.3    1 <0>      -0.4100
    6 C6        0.5490    -0.5385    -3.6474 C.3    1 <0>       0.0200
    7 C7       -0.3384    -0.0866    -4.8089 C.3    1 <0>       0.0000
    8 N8       -0.3628     1.3812    -4.8642 N.4    1 <0>      -0.6400
    9 H9        0.5745     1.7282    -5.0023 H      1 <0>       0.4300
   10 H10      -0.9481     1.6792    -5.6302 H      1 <0>       0.4300
   11 H11      -0.7317     1.7443    -3.9981 H      1 <0>       0.4400
   12 C12       0.7309    -0.5033     1.2229 C.2    1 <0>       0.5000
   13 O13       1.1912     0.2909     2.0254 O.co2  1 <0>      -0.6700
   14 O14       0.8604    -1.7014     1.4082 O.co2  1 <0>      -0.6900
   15 H15       0.9191     1.8392     0.0032 H      1 <0>       0.3400
   16 H16      -0.5563     1.8234    -0.7642 H      1 <0>       0.3200
   17 H17       1.7103    -0.0491    -1.3098 H      1 <0>       0.0500
   18 H18       0.8116    -1.5829    -1.2198 H      1 <0>       0.0700
   19 H19       1.5376    -0.0909    -3.7500 H      1 <0>       0.0700
   20 H20       0.6389    -1.6247    -3.6600 H      1 <0>       0.1000
   21 H21       0.0600    -0.4788    -5.7445 H      1 <0>       0.1400
   22 H22      -1.3510    -0.4614    -4.6597 H      1 <0>       0.1400
@<TRIPOS>BOND
   1    1    2 1
   2    1   15 1
   3    1   16 1
   4    2    3 1
   5    2    4 1
   6    2   12 1
   7    4    5 1
   8    4   17 1
   9    4   18 1
  10    5    6 1
  11    6    7 1
  12    6   19 1
  13    6   20 1
  14    7    8 1
  15    7   21 1
  16    7   22 1
  17    8    9 1
  18    8   10 1
  19    8   11 1
  20   12   13 ar
  21   12   14 ar
