@<TRIPOS>MOLECULE
ZINC000003930677
67    72    1     0     0
SMALL
USER_CHARGES
@<TRIPOS>ATOM
1      C1     -0.5821    1.3688   -0.8058 C.2      1 ZINC000003930677   -0.1700
2      C2     -0.6822    0.1157   -1.1744 C.2      1 ZINC000003930677   -0.1400
3      C3     -1.7977   -0.5306   -1.9896 C.3      1 ZINC000003930677   -0.1300
4      C4     -1.6463   -2.0303   -1.6281 C.3      1 ZINC000003930677    0.0500
5      O5     -0.2146   -2.1991   -1.5139 O.3      1 ZINC000003930677   -0.3500
6      C6      0.2851   -1.0108   -0.8924 C.3      1 ZINC000003930677    0.1500
7      C7      0.4069   -1.2196    0.6317 C.3      1 ZINC000003930677   -0.1400
8      C8      1.8876   -0.9200    0.9935 C.3      1 ZINC000003930677   -0.1100
9      C9      2.3450   -0.0028   -0.1489 C.3      1 ZINC000003930677   -0.0800
10     H10     1.9561    1.0057   -0.0082 H        1 ZINC000003930677    0.0800
11     C11     3.8502    0.0336   -0.3759 C.3      1 ZINC000003930677   -0.0500
12     H12     4.2174   -0.9873   -0.4813 H        1 ZINC000003930677    0.1000
13     C13     4.5277    0.6821    0.8195 C.3      1 ZINC000003930677   -0.1100
14     C14     5.9625    1.0966    0.4967 C.3      1 ZINC000003930677   -0.1000
15     C15     5.9180    2.0362   -0.6816 C.2      1 ZINC000003930677    0.0200
16     C16     6.6741    3.1554   -0.7239 C.2      1 ZINC000003930677   -0.2400
17     C17     6.5496    4.0647   -1.7881 C.2      1 ZINC000003930677    0.3900
18     O18     7.3388    4.9831   -1.8840 O.2      1 ZINC000003930677   -0.4700
19     C19     5.4554    3.9199   -2.8114 C.3      1 ZINC000003930677   -0.1700
20     C20     5.2101    2.4371   -3.1053 C.3      1 ZINC000003930677   -0.0800
21     C21     5.0312    1.7048   -1.7963 C.2      1 ZINC000003930677   -0.1200
22     C22     4.0942    0.7784   -1.6638 C.2      1 ZINC000003930677   -0.0500
23     C23     3.2672    0.4406   -2.8885 C.3      1 ZINC000003930677   -0.0300
24     H24     3.3768    1.2357   -3.6260 H        1 ZINC000003930677    0.1100
25     C25     3.7611   -0.8551   -3.4787 C.ar     1 ZINC000003930677   -0.0100
26     C26     2.9906   -1.5231   -4.4145 C.ar     1 ZINC000003930677   -0.1300
27     C27     3.4353   -2.7094   -4.9589 C.ar     1 ZINC000003930677   -0.0500
28     C28     4.6687   -3.2369   -4.5634 C.ar     1 ZINC000003930677   -0.1800
29     C29     5.1510   -4.5022   -5.1398 C.2      1 ZINC000003930677    0.3900
30     C30     6.4806   -5.0672   -4.7108 C.3      1 ZINC000003930677   -0.2000
31     O31     4.4786   -5.0901   -5.9598 O.2      1 ZINC000003930677   -0.4600
32     C32     5.4415   -2.5556   -3.6176 C.ar     1 ZINC000003930677   -0.0700
33     C33     4.9853   -1.3678   -3.0864 C.ar     1 ZINC000003930677   -0.1400
34     C34     1.7827    0.2940   -2.5196 C.3      1 ZINC000003930677   -0.1000
35     C35     1.6859   -0.6755   -1.3829 C.3      1 ZINC000003930677   -0.0400
36     C36     2.4410   -1.9601   -1.7299 C.3      1 ZINC000003930677   -0.1600
37     H37     0.2711    1.6957   -0.2299 H        1 ZINC000003930677    0.1100
38     H38    -1.3504    2.0758   -1.0817 H        1 ZINC000003930677    0.1100
39     H39    -2.7724   -0.1537   -1.6798 H        1 ZINC000003930677    0.0800
40     H40    -1.6405   -0.3712   -3.0563 H        1 ZINC000003930677    0.0900
41     H41    -2.1365   -2.2489   -0.6795 H        1 ZINC000003930677    0.0600
42     H42    -2.0459   -2.6600   -2.4231 H        1 ZINC000003930677    0.0900
43     H43    -0.2541   -0.5312    1.1582 H        1 ZINC000003930677    0.0700
44     H44     0.1591   -2.2492    0.8899 H        1 ZINC000003930677    0.0800
45     H45     1.9533   -0.4042    1.9515 H        1 ZINC000003930677    0.0700
46     H46     2.4740   -1.8387    1.0084 H        1 ZINC000003930677    0.0700
47     H47     3.9602    1.5648    1.1145 H        1 ZINC000003930677    0.0700
48     H48     4.5396   -0.0251    1.6488 H        1 ZINC000003930677    0.0800
49     H49     6.4025    1.6028    1.3559 H        1 ZINC000003930677    0.0900
50     H50     6.5530    0.2159    0.2443 H        1 ZINC000003930677    0.0900
51     H51     7.3810    3.3532    0.0683 H        1 ZINC000003930677    0.1400
52     H52     4.5393    4.3695   -2.4281 H        1 ZINC000003930677    0.1000
53     H53     5.7493    4.4274   -3.7302 H        1 ZINC000003930677    0.1000
54     H54     4.3100    2.3287   -3.7105 H        1 ZINC000003930677    0.0900
55     H55     6.0649    2.0247   -3.6412 H        1 ZINC000003930677    0.0800
56     H56     2.0384   -1.1144   -4.7189 H        1 ZINC000003930677    0.1300
57     H57     2.8327   -3.2299   -5.6884 H        1 ZINC000003930677    0.1300
58     H58     6.9357   -4.4056   -3.9737 H        1 ZINC000003930677    0.0800
59     H59     6.3315   -6.0533   -4.2710 H        1 ZINC000003930677    0.0900
60     H60     7.1363   -5.1513   -5.5775 H        1 ZINC000003930677    0.0900
61     H61     6.3949   -2.9569   -3.3069 H        1 ZINC000003930677    0.1300
62     H62     5.5811   -0.8403   -2.3562 H        1 ZINC000003930677    0.1300
63     H63     1.3759    1.2618   -2.2263 H        1 ZINC000003930677    0.0800
64     H64     1.2263   -0.1011   -3.3696 H        1 ZINC000003930677    0.0700
65     H65     3.5129   -1.7621   -1.7328 H        1 ZINC000003930677    0.0800
66     H66     2.2150   -2.7261   -0.9881 H        1 ZINC000003930677    0.0500
67     H67     2.1331   -2.3075   -2.7162 H        1 ZINC000003930677    0.0700
@<TRIPOS>BOND
1     1     2     2
2     1     37    1
3     1     38    1
4     2     6     1
5     2     3     1
6     3     4     1
7     3     39    1
8     3     40    1
9     4     5     1
10    4     41    1
11    4     42    1
12    5     6     1
13    6     35    1
14    6     7     1
15    7     8     1
16    7     43    1
17    7     44    1
18    8     9     1
19    8     45    1
20    8     46    1
21    9     10    1
22    9     35    1
23    9     11    1
24    11    12    1
25    11    22    1
26    11    13    1
27    13    14    1
28    13    47    1
29    13    48    1
30    14    15    1
31    14    49    1
32    14    50    1
33    15    21    1
34    15    16    2
35    16    17    1
36    16    51    1
37    17    18    2
38    17    19    1
39    19    20    1
40    19    52    1
41    19    53    1
42    20    21    1
43    20    54    1
44    20    55    1
45    21    22    2
46    22    23    1
47    23    24    1
48    23    25    1
49    23    34    1
50    25    33    ar
51    25    26    ar
52    26    27    ar
53    26    56    1
54    27    28    ar
55    27    57    1
56    28    29    1
57    28    32    ar
58    29    30    1
59    29    31    2
60    30    58    1
61    30    59    1
62    30    60    1
63    32    33    ar
64    32    61    1
65    33    62    1
66    34    35    1
67    34    63    1
68    34    64    1
69    35    36    1
70    36    65    1
71    36    66    1
72    36    67    1
@<TRIPOS>SUBSTRUCTURE
1   ZINC000003930677 1     RESIDUE    1   A     ZIN   1
