@<TRIPOS>MOLECULE
ZINC000005115833
  54   55    0    0    0
SMALL
USER_CHARGES
NO_NAME
@<TRIPOS>ATOM
    1 C1       -0.0306     1.5238     0.0152 C.3    1 <0>      -0.1900
    2 C2       -0.0126    -0.0061     0.0095 C.3    1 <0>       0.0300
    3 H3        0.4909    -0.3602    -0.8901 H      1 <0>       0.1400
    4 C4        0.7349    -0.5120     1.2449 C.3    1 <0>      -0.1500
    5 C5        0.8616    -2.0352     1.1762 C.3    1 <0>      -0.1300
    6 C6        1.6090    -2.5410     2.4116 C.3    1 <0>      -0.1100
    7 C7        1.7357    -4.0642     2.3428 C.3    1 <0>      -0.1400
    8 C8        2.4720    -4.5625     3.5597 C.2    1 <0>       0.5100
    9 O9        2.8574    -3.7767     4.3993 O.2    1 <0>      -0.5100
   10 N10       2.7021    -5.8814     3.7150 N.am   1 <0>      -0.6700
   11 C11       3.4688    -6.3355     4.7938 C.ar   1 <0>       0.1700
   12 C12       4.3090    -7.4303     4.6384 C.ar   1 <0>      -0.1400
   13 C13       5.0644    -7.8761     5.7052 C.ar   1 <0>      -0.0500
   14 C14       4.9844    -7.2339     6.9272 C.ar   1 <0>      -0.1900
   15 C15       5.8097    -7.7234     8.0892 C.3    1 <0>       0.5100
   16 F16       7.0470    -7.0704     8.0903 F      1 <0>      -0.1700
   17 F17       5.1378    -7.4514     9.2858 F      1 <0>      -0.1800
   18 F18       6.0105    -9.1028     7.9704 F      1 <0>      -0.1700
   19 C19       4.1491    -6.1433     7.0851 C.ar   1 <0>      -0.0500
   20 C20       3.3954    -5.6890     6.0206 C.ar   1 <0>      -0.1200
   21 N21      -1.3915    -0.5121     0.0302 N.4    1 <0>      -0.5100
   22 H22      -1.3796    -1.5179     0.1093 H      1 <0>       0.4300
   23 H23      -1.8824    -0.1185     0.8189 H      1 <0>       0.4300
   24 C24      -2.0732    -0.1268    -1.2127 C.3    1 <0>      -0.0100
   25 C25      -3.5094    -0.6538    -1.1912 C.3    1 <0>      -0.0800
   26 C26      -4.2087    -0.2585    -2.4663 C.2    1 <0>       0.0300
   27 C27      -4.8265     0.9123    -2.7132 C.2    1 <0>       0.0300
   28 N28      -5.3196     0.8664    -3.9598 N.pl3  1 <0>      -0.4700
   29 H29      -5.8128     1.5793    -4.3951 H      1 <0>       0.4800
   30 C30      -5.0308    -0.2884    -4.4946 C.cat  1 <0>       0.3300
   31 N31      -4.3328    -1.0183    -3.5981 N.pl3  1 <0>      -0.5100
   32 H32       0.9926     1.8992    -0.0001 H      1 <0>       0.1100
   33 H33      -0.5631     1.8842    -0.8649 H      1 <0>       0.0800
   34 H34      -0.5341     1.8779     0.9148 H      1 <0>       0.0900
   35 H35       1.7289    -0.0657     1.2762 H      1 <0>       0.1200
   36 H36       0.1831    -0.2334     2.1428 H      1 <0>       0.0900
   37 H37      -0.1324    -2.4814     1.1449 H      1 <0>       0.0600
   38 H38       1.4133    -2.3137     0.2783 H      1 <0>       0.0800
   39 H39       2.6030    -2.0948     2.4429 H      1 <0>       0.0800
   40 H40       1.0573    -2.2625     3.3094 H      1 <0>       0.0800
   41 H41       0.7418    -4.5105     2.3115 H      1 <0>       0.1000
   42 H42       2.2875    -4.3428     1.4450 H      1 <0>       0.1000
   43 H43       2.3362    -6.5157     3.0789 H      1 <0>       0.4100
   44 H44       4.3713    -7.9327     3.6844 H      1 <0>       0.1400
   45 H45       5.7180    -8.7275     5.5849 H      1 <0>       0.1400
   46 H46       4.0889    -5.6438     8.0408 H      1 <0>       0.1400
   47 H47       2.7432    -4.8371     6.1446 H      1 <0>       0.1500
   48 H48      -2.0861     0.9598    -1.2982 H      1 <0>       0.1400
   49 H49      -1.5429    -0.5520    -2.0648 H      1 <0>       0.1400
   50 H50      -3.4965    -1.7404    -1.1057 H      1 <0>       0.1200
   51 H51      -4.0397    -0.2286    -0.3391 H      1 <0>       0.1400
   52 H52      -4.9103     1.7427    -2.0278 H      1 <0>       0.2300
   53 H53      -5.3015    -0.6061    -5.4907 H      1 <0>       0.2700
   54 H54      -3.9892    -1.9159    -3.7293 H      1 <0>       0.4700
@<TRIPOS>BOND
   1    1    2 1
   2    1   32 1
   3    1   33 1
   4    1   34 1
   5    2    3 1
   6    2    4 1
   7    2   21 1
   8    4    5 1
   9    4   35 1
  10    4   36 1
  11    5    6 1
  12    5   37 1
  13    5   38 1
  14    6    7 1
  15    6   39 1
  16    6   40 1
  17    7    8 1
  18    7   41 1
  19    7   42 1
  20    8    9 2
  21    8   10 am
  22   10   11 1
  23   10   43 1
  24   11   20 ar
  25   11   12 ar
  26   12   13 ar
  27   12   44 1
  28   13   14 ar
  29   13   45 1
  30   14   15 1
  31   14   19 ar
  32   15   16 1
  33   15   17 1
  34   15   18 1
  35   19   20 ar
  36   19   46 1
  37   20   47 1
  38   21   22 1
  39   21   23 1
  40   21   24 1
  41   24   25 1
  42   24   48 1
  43   24   49 1
  44   25   26 1
  45   25   50 1
  46   25   51 1
  47   26   31 1
  48   26   27 2
  49   27   28 1
  50   27   52 1
  51   28   29 1
  52   28   30 ar
  53   30   31 ar
  54   30   53 1
  55   31   54 1
