@<TRIPOS>MOLECULE
ZINC000003961802
56    60    1     0     0
SMALL
USER_CHARGES
@<TRIPOS>ATOM
1      O1      3.8943   -3.9476    3.9665 O.2      1 ZINC000003961802   -0.5100
2      C2      4.6912   -3.5590    4.7942 C.2      1 ZINC000003961802    0.5200
3      C3      4.8186   -4.1068    6.1985 C.3      1 ZINC000003961802   -0.1500
4      C4      6.1983   -3.6006    6.6793 C.3      1 ZINC000003961802   -0.1300
5      C5      6.3975   -2.3462    5.8001 C.3      1 ZINC000003961802    0.0900
6      N6      5.5935   -2.5827    4.5952 N.am     1 ZINC000003961802   -0.5600
7      C7      5.7418   -1.8758    3.3943 C.ar     1 ZINC000003961802    0.1000
8      C8      4.9286   -2.1647    2.3004 C.ar     1 ZINC000003961802   -0.0800
9      C9      5.1105   -1.4413    1.1352 C.ar     1 ZINC000003961802   -0.1400
10     C10     6.0906   -0.4582    1.0944 C.ar     1 ZINC000003961802    0.2800
11     O11     6.2765    0.2567   -0.0444 O.3      1 ZINC000003961802   -0.2500
12     C12     7.1739    1.2769   -0.0180 C.ar     1 ZINC000003961802    0.1200
13     C13     6.7309    2.5890    0.0642 C.ar     1 ZINC000003961802   -0.1100
14     C14     7.6438    3.6270    0.0917 C.ar     1 ZINC000003961802   -0.0900
15     C15     8.9973    3.3497    0.0369 C.ar     1 ZINC000003961802   -0.1100
16     C16    10.0005    4.4852    0.0682 C.3      1 ZINC000003961802   -0.1000
17     C17    10.6644    4.5751   -1.3094 C.3      1 ZINC000003961802   -0.0100
18     N18    11.7906    3.6639   -1.4059 N.4      1 ZINC000003961802   -0.3700
19     H19    12.3900    3.8164   -0.6087 H        1 ZINC000003961802    0.4200
20     C20    12.5492    3.9965   -2.6191 C.3      1 ZINC000003961802   -0.0100
21     C21    13.5331    5.1631   -2.4300 C.3      1 ZINC000003961802   -0.1500
22     C22    14.5221    4.3662   -3.2970 C.3      1 ZINC000003961802   -0.1300
23     C23    13.7781    3.0994   -2.8426 C.3      1 ZINC000003961802   -0.1500
24     C24    11.4527    2.2528   -1.4576 C.3      1 ZINC000003961802   -0.0100
25     C25    10.9251    1.7633   -0.1052 C.3      1 ZINC000003961802   -0.0900
26     C26     9.4384    2.0510   -0.0453 C.ar     1 ZINC000003961802   -0.0900
27     C27     8.5352    1.0063   -0.0674 C.ar     1 ZINC000003961802   -0.1000
28     N28     6.8447   -0.2099    2.1522 N.ar     1 ZINC000003961802   -0.5000
29     C29     6.6962   -0.8756    3.2813 C.ar     1 ZINC000003961802    0.1000
30     H30     4.0253   -3.7142    6.8346 H        1 ZINC000003961802    0.1100
31     H31     4.7950   -5.1965    6.1865 H        1 ZINC000003961802    0.1100
32     H32     6.1699   -3.3357    7.7363 H        1 ZINC000003961802    0.1000
33     H33     6.9747   -4.3406    6.4849 H        1 ZINC000003961802    0.0900
34     H34     6.0452   -1.4581    6.3247 H        1 ZINC000003961802    0.0900
35     H35     7.4485   -2.2355    5.5334 H        1 ZINC000003961802    0.0900
36     H36     4.1743   -2.9354    2.3606 H        1 ZINC000003961802    0.1800
37     H37     4.4982   -1.6390    0.2678 H        1 ZINC000003961802    0.1500
38     H38     5.6725    2.7998    0.1062 H        1 ZINC000003961802    0.1400
39     H39     7.3015    4.6494    0.1553 H        1 ZINC000003961802    0.1400
40     H40     9.4892    5.4215    0.2919 H        1 ZINC000003961802    0.1200
41     H41    10.7561    4.2875    0.8285 H        1 ZINC000003961802    0.1000
42     H42     9.9326    4.3220   -2.0765 H        1 ZINC000003961802    0.1300
43     H43    11.0141    5.5946   -1.4722 H        1 ZINC000003961802    0.1400
44     H44    11.9155    4.0964   -3.5004 H        1 ZINC000003961802    0.1600
45     H45    13.2006    6.0936   -2.8901 H        1 ZINC000003961802    0.1000
46     H46    13.8628    5.2935   -1.3993 H        1 ZINC000003961802    0.1000
47     H47    14.4287    4.5684   -4.3640 H        1 ZINC000003961802    0.1000
48     H48    15.5521    4.4179   -2.9440 H        1 ZINC000003961802    0.1000
49     H49    14.1747    2.6657   -1.9247 H        1 ZINC000003961802    0.1000
50     H50    13.6434    2.3640   -3.6358 H        1 ZINC000003961802    0.1000
51     H51    10.6879    2.0957   -2.2181 H        1 ZINC000003961802    0.1300
52     H52    12.3423    1.6814   -1.7226 H        1 ZINC000003961802    0.1400
53     H53    11.0963    0.6911   -0.0099 H        1 ZINC000003961802    0.1200
54     H54    11.4346    2.2909    0.7011 H        1 ZINC000003961802    0.1000
55     H55     8.8851   -0.0137   -0.1272 H        1 ZINC000003961802    0.1300
56     H56     7.3306   -0.6451    4.1244 H        1 ZINC000003961802    0.1600
@<TRIPOS>BOND
1     1     2     2
2     2     6     am
3     2     3     1
4     3     4     1
5     3     30    1
6     3     31    1
7     4     5     1
8     4     32    1
9     4     33    1
10    5     6     1
11    5     34    1
12    5     35    1
13    6     7     1
14    7     29    ar
15    7     8     ar
16    8     9     ar
17    8     36    1
18    9     10    ar
19    9     37    1
20    10    11    1
21    10    28    ar
22    11    12    1
23    12    27    ar
24    12    13    ar
25    13    14    ar
26    13    38    1
27    14    15    ar
28    14    39    1
29    15    26    ar
30    15    16    1
31    16    17    1
32    16    40    1
33    16    41    1
34    17    18    1
35    17    42    1
36    17    43    1
37    18    19    1
38    18    20    1
39    18    24    1
40    20    23    1
41    20    21    1
42    20    44    1
43    21    22    1
44    21    45    1
45    21    46    1
46    22    23    1
47    22    47    1
48    22    48    1
49    23    49    1
50    23    50    1
51    24    25    1
52    24    51    1
53    24    52    1
54    25    26    1
55    25    53    1
56    25    54    1
57    26    27    ar
58    27    55    1
59    28    29    ar
60    29    56    1
@<TRIPOS>SUBSTRUCTURE
1   ZINC000003961802 1     RESIDUE    1   A     ZIN   1
