@<TRIPOS>MOLECULE
ZINC000096927633
46    49    1     0     0
SMALL
USER_CHARGES
@<TRIPOS>ATOM
1      C1     -0.0021    1.5420    0.0143 C.3      1 ZINC000096927633   -0.1600
2      C2      0.0266    0.0123   -0.0034 C.3      1 ZINC000096927633    0.1100
3      H3     -0.9865   -0.3895   -0.0184 H        1 ZINC000096927633    0.0900
4      C4      0.8379   -0.5051   -1.2199 C.3      1 ZINC000096927633    0.0400
5      O5      1.3773   -1.7601   -0.7293 O.3      1 ZINC000096927633   -0.3500
6      C6      1.7549   -1.4767    0.6241 C.3      1 ZINC000096927633    0.2700
7      H7      2.7594   -1.0547    0.6555 H        1 ZINC000096927633    0.1000
8      C8      1.6768   -2.7262    1.5055 C.3      1 ZINC000096927633    0.0800
9      N9      1.9364   -2.3221    2.9014 N.pl3    1 ZINC000096927633   -0.4400
10     C10     2.6859   -3.1278    3.6677 C.2      1 ZINC000096927633    0.2400
11     C11     2.9623   -2.8309    4.9871 C.2      1 ZINC000096927633   -0.3400
12     C12     3.7883   -3.7355    5.8052 C.2      1 ZINC000096927633    0.5900
13     O13     4.1490   -4.8053    5.3531 O.2      1 ZINC000096927633   -0.5500
14     N14     4.1443   -3.3775    7.0549 N.am     1 ZINC000096927633   -0.7200
15     C15     5.0563   -4.2244    7.8277 C.3      1 ZINC000096927633    0.1600
16     C16     5.2917   -3.6049    9.1811 C.ar     1 ZINC000096927633   -0.1500
17     C17     6.4428   -2.8778    9.4171 C.ar     1 ZINC000096927633   -0.0400
18     C18     6.6599   -2.3085   10.6579 C.ar     1 ZINC000096927633   -0.1700
19     C19     5.7238   -2.4664   11.6658 C.ar     1 ZINC000096927633    0.1400
20     F20     5.9360   -1.9096   12.8783 F        1 ZINC000096927633   -0.1300
21     C21     4.5702   -3.1946   11.4305 C.ar     1 ZINC000096927633   -0.1900
22     C22     4.3515   -3.7597   10.1862 C.ar     1 ZINC000096927633    0.1500
23     F23     3.2262   -4.4706    9.9552 F        1 ZINC000096927633   -0.1200
24     C24     2.4150   -1.5929    5.5569 C.2      1 ZINC000096927633    0.3900
25     O25     2.6200   -1.2829    6.7189 O.2      1 ZINC000096927633   -0.4900
26     C26     1.6090   -0.7416    4.6662 C.2      1 ZINC000096927633    0.0900
27     O27     1.0748    0.4200    5.1179 O.3      1 ZINC000096927633   -0.4200
28     C28     1.4099   -1.1432    3.3789 C.2      1 ZINC000096927633    0.0100
29     C29     0.6086   -0.2805    2.4691 C.2      1 ZINC000096927633    0.6000
30     O30    -0.1384    0.5823    2.8881 O.2      1 ZINC000096927633   -0.4700
31     N31     0.7695   -0.5034    1.1493 N.am     1 ZINC000096927633   -0.6400
32     H32     1.0185    1.9245    0.0166 H        1 ZINC000096927633    0.0600
33     H33    -0.5245    1.9058   -0.8705 H        1 ZINC000096927633    0.0800
34     H34    -0.5209    1.8853    0.9094 H        1 ZINC000096927633    0.0800
35     H35     0.1855   -0.6730   -2.0769 H        1 ZINC000096927633    0.1200
36     H36     1.6401    0.1881   -1.4730 H        1 ZINC000096927633    0.0800
37     H37     0.6835   -3.1685    1.4293 H        1 ZINC000096927633    0.1100
38     H38     2.4275   -3.4491    1.1862 H        1 ZINC000096927633    0.1300
39     H39     3.0847   -4.0359    3.2402 H        1 ZINC000096927633    0.1900
40     H40     3.7966   -2.5592    7.4426 H        1 ZINC000096927633    0.4100
41     H41     4.6157   -5.2135    7.9525 H        1 ZINC000096927633    0.0800
42     H42     6.0053   -4.3135    7.2989 H        1 ZINC000096927633    0.0900
43     H43     7.1737   -2.7544    8.6316 H        1 ZINC000096927633    0.1500
44     H44     7.5601   -1.7408   10.8414 H        1 ZINC000096927633    0.1500
45     H45     3.8395   -3.3183   12.2162 H        1 ZINC000096927633    0.1500
46     H46     1.2758    0.6114    6.0442 H        1 ZINC000096927633    0.4100
@<TRIPOS>BOND
1     1     2     1
2     1     32    1
3     1     33    1
4     1     34    1
5     2     3     1
6     2     31    1
7     2     4     1
8     4     5     1
9     4     35    1
10    4     36    1
11    5     6     1
12    6     7     1
13    6     31    1
14    6     8     1
15    8     9     1
16    8     37    1
17    8     38    1
18    9     28    1
19    9     10    1
20    10    11    2
21    10    39    1
22    11    12    1
23    11    24    1
24    12    13    2
25    12    14    am
26    14    15    1
27    14    40    1
28    15    16    1
29    15    41    1
30    15    42    1
31    16    22    ar
32    16    17    ar
33    17    18    ar
34    17    43    1
35    18    19    ar
36    18    44    1
37    19    20    1
38    19    21    ar
39    21    22    ar
40    21    45    1
41    22    23    1
42    24    25    2
43    24    26    1
44    26    27    1
45    26    28    2
46    27    46    1
47    28    29    1
48    29    30    2
49    29    31    am
@<TRIPOS>SUBSTRUCTURE
1   ZINC000096927633 1     RESIDUE    1   A     ZIN   1
