@<TRIPOS>MOLECULE
ZINC000004111883
18    19    1     0     0
SMALL
USER_CHARGES
@<TRIPOS>ATOM
1      C1     -0.0167    1.3784    0.0096 C.ar     1 ZINC000004111883   -0.1200
2      C2      1.1707    2.0857    0.0021 C.ar     1 ZINC000004111883   -0.1200
3      C3      2.3774    1.4109   -0.0131 C.ar     1 ZINC000004111883   -0.1000
4      C4      2.3970    0.0297   -0.0212 C.ar     1 ZINC000004111883   -0.1100
5      C5      3.5383   -0.9616   -0.0381 C.3      1 ZINC000004111883    0.0800
6      N6      2.9531   -2.2527    0.3890 N.3      1 ZINC000004111883   -0.6600
7      C7      1.5351   -2.1548   -0.0253 C.3      1 ZINC000004111883    0.0800
8      C8      1.2072   -0.6790   -0.0137 C.ar     1 ZINC000004111883   -0.1100
9      C9      0.0021   -0.0041    0.0020 C.ar     1 ZINC000004111883   -0.1000
10     H10    -0.9591    1.9056    0.0260 H        1 ZINC000004111883    0.1300
11     H11     1.1560    3.1656    0.0077 H        1 ZINC000004111883    0.1300
12     H12     3.3051    1.9639   -0.0189 H        1 ZINC000004111883    0.1200
13     H13     3.9470   -1.0481   -1.0449 H        1 ZINC000004111883    0.0600
14     H14     4.3165   -0.6517    0.6595 H        1 ZINC000004111883    0.0900
15     H15     3.4110   -3.0264   -0.0690 H        1 ZINC000004111883    0.3500
16     H16     1.4071   -2.5610   -1.0286 H        1 ZINC000004111883    0.0600
17     H17     0.8988   -2.6875    0.6813 H        1 ZINC000004111883    0.0900
18     H18    -0.9259   -0.5565    0.0077 H        1 ZINC000004111883    0.1200
@<TRIPOS>BOND
1     1     9     ar
2     1     2     ar
3     1     10    1
4     2     3     ar
5     2     11    1
6     3     4     ar
7     3     12    1
8     4     8     ar
9     4     5     1
10    5     6     1
11    5     13    1
12    5     14    1
13    6     7     1
14    6     15    1
15    7     8     1
16    7     16    1
17    7     17    1
18    8     9     ar
19    9     18    1
@<TRIPOS>SUBSTRUCTURE
1   ZINC000004111883 1     RESIDUE    1   A     ZIN   1
