@<TRIPOS>MOLECULE
ZINC000034946588
68    71    1     0     0
SMALL
USER_CHARGES
@<TRIPOS>ATOM
1      C1     -0.2047   -6.2081   -2.7625 C.3      1 ZINC000034946588   -0.1500
2      C2      0.9389   -5.4215   -2.1187 C.3      1 ZINC000034946588   -0.1400
3      C3      0.7956   -3.9381   -2.4647 C.3      1 ZINC000034946588    0.1100
4      N4      1.8906   -3.1849   -1.8483 N.am     1 ZINC000034946588   -0.6100
5      C5      3.1807   -3.0746   -2.5337 C.3      1 ZINC000034946588    0.1000
6      C6      3.1764   -1.8366   -3.4326 C.3      1 ZINC000034946588   -0.1400
7      C7      4.5237   -1.7215   -4.1484 C.3      1 ZINC000034946588   -0.1500
8      C8      1.7111   -2.5934   -0.6506 C.2      1 ZINC000034946588    0.5600
9      O9      0.6706   -2.7577   -0.0405 O.2      1 ZINC000034946588   -0.5200
10     C10     2.7660   -1.7545   -0.0841 C.2      1 ZINC000034946588   -0.1400
11     C11     3.9104   -2.3125    0.3901 C.2      1 ZINC000034946588   -0.0600
12     C12     4.9551   -1.4965    1.0089 C.ar     1 ZINC000034946588   -0.0700
13     C13     6.2886   -1.6172    0.6011 C.ar     1 ZINC000034946588   -0.0800
14     C14     7.2602   -0.8741    1.2072 C.ar     1 ZINC000034946588   -0.1100
15     C15     6.9376    0.0101    2.2397 C.ar     1 ZINC000034946588   -0.0300
16     C16     8.0053    0.7977    2.8997 C.ar     1 ZINC000034946588   -0.0200
17     C17     7.6847    1.6769    3.9350 C.ar     1 ZINC000034946588   -0.1200
18     C18     8.6760    2.4089    4.5486 C.ar     1 ZINC000034946588   -0.0600
19     C19    10.0033    2.2715    4.1348 C.ar     1 ZINC000034946588   -0.1300
20     C20    11.0679    3.0564    4.7932 C.2      1 ZINC000034946588    0.5700
21     O21    10.7765    3.9322    5.5842 O.2      1 ZINC000034946588   -0.5300
22     N22    12.3621    2.8013    4.5168 N.am     1 ZINC000034946588   -0.6200
23     C23    12.8515    1.8576    3.5012 C.3      1 ZINC000034946588    0.0900
24     C24    14.3934    1.8794    3.5607 C.3      1 ZINC000034946588   -0.1400
25     C25    14.6786    2.4111    4.9901 C.3      1 ZINC000034946588   -0.1300
26     C26    13.5215    3.4271    5.1783 C.3      1 ZINC000034946588    0.1000
27     C27    10.3234    1.3911    3.0984 C.ar     1 ZINC000034946588   -0.1200
28     C28     9.3316    0.6555    2.4895 C.ar     1 ZINC000034946588   -0.1200
29     C29     5.6123    0.1532    2.6500 C.ar     1 ZINC000034946588   -0.1100
30     C30     4.6221   -0.5833    2.0297 C.ar     1 ZINC000034946588    0.1700
31     N31     3.2785   -0.4105    2.3788 N.pl3    1 ZINC000034946588   -0.7300
32     C32     2.4618    0.1547    1.4287 C.2      1 ZINC000034946588    0.4200
33     N33     1.5780    1.0335    1.7732 N.2      1 ZINC000034946588   -0.7200
34     C34     2.6019   -0.2510   -0.0231 C.3      1 ZINC000034946588   -0.0200
35     H35    -1.1579   -5.8375   -2.3856 H        1 ZINC000034946588    0.0600
36     H36    -0.1682   -6.0823   -3.8446 H        1 ZINC000034946588    0.0600
37     H37    -0.1027   -7.2649   -2.5160 H        1 ZINC000034946588    0.0600
38     H38     0.9023   -5.5474   -1.0366 H        1 ZINC000034946588    0.0700
39     H39     1.8921   -5.7921   -2.4956 H        1 ZINC000034946588    0.0600
40     H40     0.8322   -3.8122   -3.5468 H        1 ZINC000034946588    0.0800
41     H41    -0.1576   -3.5674   -2.0878 H        1 ZINC000034946588    0.0900
42     H42     3.9777   -2.9850   -1.7956 H        1 ZINC000034946588    0.0800
43     H43     3.3465   -3.9643   -3.1412 H        1 ZINC000034946588    0.0800
44     H44     2.3793   -1.9263   -4.1707 H        1 ZINC000034946588    0.0700
45     H45     3.0106   -0.9470   -2.8251 H        1 ZINC000034946588    0.0700
46     H46     5.3208   -1.6318   -3.4104 H        1 ZINC000034946588    0.0600
47     H47     4.6896   -2.6111   -4.7560 H        1 ZINC000034946588    0.0600
48     H48     4.5207   -0.8395   -4.7889 H        1 ZINC000034946588    0.0600
49     H49     4.0515   -3.3801    0.3088 H        1 ZINC000034946588    0.1300
50     H50     6.5492   -2.2991   -0.1948 H        1 ZINC000034946588    0.1300
51     H51     8.2867   -0.9703    0.8856 H        1 ZINC000034946588    0.1300
52     H52     6.6586    1.7834    4.2545 H        1 ZINC000034946588    0.1300
53     H53     8.4277    3.0896    5.3495 H        1 ZINC000034946588    0.1400
54     H54    12.4862    0.8543    3.7208 H        1 ZINC000034946588    0.0800
55     H55    12.5142    2.1690    2.5126 H        1 ZINC000034946588    0.0800
56     H56    14.7985    0.8753    3.4348 H        1 ZINC000034946588    0.0900
57     H57    14.7988    2.5569    2.8092 H        1 ZINC000034946588    0.0800
58     H58    14.6209    1.6078    5.7246 H        1 ZINC000034946588    0.0800
59     H59    15.6462    2.9109    5.0353 H        1 ZINC000034946588    0.0900
60     H60    13.7692    4.3764    4.7032 H        1 ZINC000034946588    0.0700
61     H61    13.3150    3.5749    6.2383 H        1 ZINC000034946588    0.0800
62     H62    11.3491    1.2845    2.7776 H        1 ZINC000034946588    0.1600
63     H63     9.5790   -0.0254    1.6885 H        1 ZINC000034946588    0.1300
64     H64     5.3616    0.8363    3.4480 H        1 ZINC000034946588    0.1300
65     H65     2.9400   -0.6765    3.2480 H        1 ZINC000034946588    0.4100
66     H66     1.4907    1.2948    2.7033 H        1 ZINC000034946588    0.3400
67     H67     3.4753    0.2364   -0.4564 H        1 ZINC000034946588    0.1100
68     H68     1.7070    0.0412   -0.5725 H        1 ZINC000034946588    0.1100
@<TRIPOS>BOND
1     1     2     1
2     1     35    1
3     1     36    1
4     1     37    1
5     2     3     1
6     2     38    1
7     2     39    1
8     3     4     1
9     3     40    1
10    3     41    1
11    4     5     1
12    4     8     am
13    5     6     1
14    5     42    1
15    5     43    1
16    6     7     1
17    6     44    1
18    6     45    1
19    7     46    1
20    7     47    1
21    7     48    1
22    8     9     2
23    8     10    1
24    10    34    1
25    10    11    2
26    11    12    1
27    11    49    1
28    12    30    ar
29    12    13    ar
30    13    14    ar
31    13    50    1
32    14    15    ar
33    14    51    1
34    15    16    1
35    15    29    ar
36    16    28    ar
37    16    17    ar
38    17    18    ar
39    17    52    1
40    18    19    ar
41    18    53    1
42    19    20    1
43    19    27    ar
44    20    21    2
45    20    22    am
46    22    26    1
47    22    23    1
48    23    24    1
49    23    54    1
50    23    55    1
51    24    25    1
52    24    56    1
53    24    57    1
54    25    26    1
55    25    58    1
56    25    59    1
57    26    60    1
58    26    61    1
59    27    28    ar
60    27    62    1
61    28    63    1
62    29    30    ar
63    29    64    1
64    30    31    1
65    31    32    1
66    31    65    1
67    32    33    2
68    32    34    1
69    33    66    1
70    34    67    1
71    34    68    1
@<TRIPOS>SUBSTRUCTURE
1   ZINC000034946588 1     RESIDUE    1   A     ZIN   1
