@<TRIPOS>MOLECULE
ZINC000060328032
  42   45    0    0    0
SMALL
USER_CHARGES
NO_NAME
@<TRIPOS>ATOM
    1 C1       -0.0178     1.4608     0.0101 C.3    1 <0>       0.1000
    2 N2        0.0021    -0.0041     0.0020 N.pl3  1 <0>      -0.3700
    3 C3        0.0078    -0.7910    -1.0967 C.2    1 <0>       0.0700
    4 C4        0.0282    -2.0877    -0.6746 C.2    1 <0>      -0.1600
    5 C5        0.0414    -3.2927    -1.5426 C.2    1 <0>      -0.1300
    6 C6        0.9164    -4.3785    -1.4401 C.2    1 <0>       0.2900
    7 N7        1.9258    -4.6515    -0.6052 N.2    1 <0>      -0.4900
    8 C8        2.6146    -5.7671    -0.7156 C.2    1 <0>       0.2600
    9 C9        3.7461    -6.0470     0.2395 C.3    1 <0>      -0.0600
   10 H10       4.6578    -6.2449    -0.3243 H      1 <0>       0.1200
   11 C11       3.4008    -7.2672     1.0980 C.3    1 <0>      -0.1400
   12 C12       4.5209    -7.4956     2.1170 C.3    1 <0>      -0.1400
   13 C13       4.7054    -6.2294     2.9563 C.3    1 <0>      -0.0100
   14 N14       5.0596    -5.1054     2.0814 N.4    1 <0>      -0.5100
   15 H15       5.2328    -4.2851     2.6428 H      1 <0>       0.4400
   16 H16       5.8916    -5.3361     1.5592 H      1 <0>       0.4300
   17 C17       3.9601    -4.8341     1.1476 C.3    1 <0>       0.0100
   18 C18       2.3025    -6.6928    -1.7121 C.2    1 <0>      -0.3200
   19 Br19      3.2920    -8.2965    -1.8692 Br     1 <0>       0.0100
   20 C20       1.2725    -6.4288    -2.5746 C.2    1 <0>       0.5400
   21 N21       0.9429    -7.3267    -3.5679 N.pl3  1 <0>      -0.8100
   22 N22       0.5739    -5.2581    -2.4347 N.pl3  1 <0>      -0.3500
   23 N23      -0.5035    -4.7113    -3.1398 N.2    1 <0>      -0.3000
   24 C24      -0.8225    -3.5546    -2.6098 C.2    1 <0>       0.1200
   25 C25       0.0349    -2.0768     0.7335 C.2    1 <0>       0.0700
   26 N26       0.0245    -0.8316     1.1313 N.2    1 <0>      -0.3000
   27 H27       1.0048     1.8381     0.0023 H      1 <0>       0.0800
   28 H28      -0.5450     1.8219    -0.8730 H      1 <0>       0.0900
   29 H29      -0.5280     1.8123     0.9069 H      1 <0>       0.0900
   30 H30      -0.0019    -0.4541    -2.1228 H      1 <0>       0.1800
   31 H31       2.4617    -7.0900     1.6222 H      1 <0>       0.0900
   32 H32       3.3035    -8.1458     0.4603 H      1 <0>       0.1100
   33 H33       4.2562    -8.3286     2.7683 H      1 <0>       0.1200
   34 H34       5.4490    -7.7232     1.5928 H      1 <0>       0.0900
   35 H35       3.7768    -6.0029     3.4803 H      1 <0>       0.1300
   36 H36       5.5020    -6.3887     3.6830 H      1 <0>       0.1300
   37 H37       4.2066    -3.9635     0.5398 H      1 <0>       0.1400
   38 H38       3.0471    -4.6372     1.7095 H      1 <0>       0.1400
   39 H39       1.4423    -8.1532    -3.6598 H      1 <0>       0.4300
   40 H40       0.2117    -7.1319    -4.1748 H      1 <0>       0.4300
   41 H41      -1.6173    -2.9064    -2.9482 H      1 <0>       0.2100
   42 H42       0.0503    -2.9464     1.3737 H      1 <0>       0.1800
@<TRIPOS>BOND
   1    1    2 1
   2    1   27 1
   3    1   28 1
   4    1   29 1
   5    2   26 1
   6    2    3 1
   7    3    4 2
   8    3   30 1
   9    4    5 1
  10    4   25 1
  11    5   24 1
  12    5    6 2
  13    6   22 1
  14    6    7 1
  15    7    8 2
  16    8    9 1
  17    8   18 1
  18    9   10 1
  19    9   17 1
  20    9   11 1
  21   11   12 1
  22   11   31 1
  23   11   32 1
  24   12   13 1
  25   12   33 1
  26   12   34 1
  27   13   14 1
  28   13   35 1
  29   13   36 1
  30   14   15 1
  31   14   16 1
  32   14   17 1
  33   17   37 1
  34   17   38 1
  35   18   19 1
  36   18   20 2
  37   20   21 1
  38   20   22 1
  39   21   39 1
  40   21   40 1
  41   22   23 1
  42   23   24 2
  43   24   41 1
  44   25   26 2
  45   25   42 1
