@<TRIPOS>MOLECULE
ZINC000253530736
57    60    1     0     0
SMALL
USER_CHARGES
@<TRIPOS>ATOM
1      C1     -0.0664    1.5193    0.0054 C.3      1 ZINC000253530736   -0.1600
2      C2     -0.0330   -0.0103   -0.0002 C.3      1 ZINC000253530736   -0.1100
3      H3      0.3672   -0.3720   -0.9473 H        1 ZINC000253530736    0.0900
4      C4     -1.4619   -0.5756    0.2254 C.3      1 ZINC000253530736   -0.1100
5      C5     -1.2083   -1.8149    1.0910 C.3      1 ZINC000253530736   -0.0800
6      H6     -0.8080   -2.6273    0.4844 H        1 ZINC000253530736    0.0900
7      C7     -2.3870   -2.3002    1.9133 C.3      1 ZINC000253530736   -0.1000
8      H8     -2.7485   -1.5009    2.5603 H        1 ZINC000253530736    0.1000
9      C9     -3.5144   -2.7873    0.9938 C.3      1 ZINC000253530736   -0.1200
10     C10    -4.7548   -3.0106    1.8609 C.3      1 ZINC000253530736   -0.0900
11     C11    -4.4114   -3.8335    3.0676 C.2      1 ZINC000253530736   -0.0400
12     C12    -5.4248   -4.3371    3.8098 C.2      1 ZINC000253530736   -0.2300
13     C13    -4.9963   -5.0935    5.0182 C.2      1 ZINC000253530736    0.4100
14     O14    -5.5256   -6.1338    5.3622 O.2      1 ZINC000253530736   -0.4500
15     C15    -3.8694   -4.4790    5.7734 C.2      1 ZINC000253530736   -0.2200
16     C16    -2.8755   -3.9784    5.0075 C.2      1 ZINC000253530736   -0.0700
17     C17    -3.0223   -4.1307    3.5196 C.3      1 ZINC000253530736   -0.0300
18     C18    -2.8502   -5.6309    3.2734 C.3      1 ZINC000253530736   -0.1500
19     C19    -1.9006   -3.4846    2.7564 C.3      1 ZINC000253530736    0.1700
20     F20    -1.4173   -4.4358    1.8516 F        1 ZINC000253530736   -0.1900
21     C21    -0.7347   -3.1172    3.6672 C.3      1 ZINC000253530736    0.0900
22     H22    -1.0791   -2.4078    4.4196 H        1 ZINC000253530736    0.0700
23     O23    -0.2602   -4.2970    4.3191 O.3      1 ZINC000253530736   -0.5500
24     C24     0.4189   -2.4852    2.8694 C.3      1 ZINC000253530736   -0.1200
25     C25    -0.1306   -1.2909    2.0791 C.3      1 ZINC000253530736   -0.0400
26     C26    -0.8326   -0.3207    3.0314 C.3      1 ZINC000253530736   -0.1600
27     C27     0.8334   -0.5275    1.1753 C.3      1 ZINC000253530736    0.1100
28     O28     1.8776   -1.3918    0.7229 O.3      1 ZINC000253530736   -0.5400
29     C29     1.4133    0.6537    1.9098 C.2      1 ZINC000253530736    0.3300
30     O30     0.6804    1.4769    2.4034 O.2      1 ZINC000253530736   -0.4000
31     C31     2.9077    0.8078    2.0282 C.3      1 ZINC000253530736    0.0200
32     O32     3.2073    1.9964    2.7626 O.3      1 ZINC000253530736   -0.5500
33     H33     0.9527    1.9049    0.0326 H        1 ZINC000253530736    0.0500
34     H34    -0.5656    1.8751   -0.8959 H        1 ZINC000253530736    0.0600
35     H35    -0.6102    1.8676    0.8835 H        1 ZINC000253530736    0.0800
36     H36    -2.0825    0.1457    0.7572 H        1 ZINC000253530736    0.0800
37     H37    -1.9203   -0.8550   -0.7232 H        1 ZINC000253530736    0.0800
38     H38    -3.7244   -2.0334    0.2350 H        1 ZINC000253530736    0.0800
39     H39    -3.2238   -3.7229    0.5161 H        1 ZINC000253530736    0.0800
40     H40    -5.1468   -2.0459    2.1831 H        1 ZINC000253530736    0.0900
41     H41    -5.5140   -3.5295    1.2758 H        1 ZINC000253530736    0.0900
42     H42    -6.4633   -4.2005    3.5463 H        1 ZINC000253530736    0.1500
43     H43    -3.8481   -4.4370    6.8523 H        1 ZINC000253530736    0.1500
44     H44    -2.0157   -3.4919    5.4439 H        1 ZINC000253530736    0.1400
45     H45    -3.6196   -6.1789    3.8173 H        1 ZINC000253530736    0.0500
46     H46    -2.9425   -5.8370    2.2071 H        1 ZINC000253530736    0.0700
47     H47    -1.8660   -5.9455    3.6204 H        1 ZINC000253530736    0.0800
48     H48     0.4838   -4.1436    4.9175 H        1 ZINC000253530736    0.3800
49     H49     1.2145   -2.1781    3.5482 H        1 ZINC000253530736    0.0700
50     H50     0.8049   -3.2022    2.1447 H        1 ZINC000253530736    0.0900
51     H51    -0.1049    0.0942    3.7289 H        1 ZINC000253530736    0.0600
52     H52    -1.2871    0.4868    2.4575 H        1 ZINC000253530736    0.0800
53     H53    -1.6059   -0.8520    3.5863 H        1 ZINC000253530736    0.0600
54     H54     2.5214   -0.9613    0.1440 H        1 ZINC000253530736    0.3800
55     H55     3.3218   -0.0554    2.5493 H        1 ZINC000253530736    0.0900
56     H56     3.3460    0.8758    1.0325 H        1 ZINC000253530736    0.0800
57     H57     4.1535    2.1596    2.8779 H        1 ZINC000253530736    0.3900
@<TRIPOS>BOND
1     1     2     1
2     1     33    1
3     1     34    1
4     1     35    1
5     2     3     1
6     2     27    1
7     2     4     1
8     4     5     1
9     4     36    1
10    4     37    1
11    5     6     1
12    5     25    1
13    5     7     1
14    7     8     1
15    7     19    1
16    7     9     1
17    9     10    1
18    9     38    1
19    9     39    1
20    10    11    1
21    10    40    1
22    10    41    1
23    11    17    1
24    11    12    2
25    12    13    1
26    12    42    1
27    13    14    2
28    13    15    1
29    15    16    2
30    15    43    1
31    16    17    1
32    16    44    1
33    17    18    1
34    17    19    1
35    18    45    1
36    18    46    1
37    18    47    1
38    19    20    1
39    19    21    1
40    21    22    1
41    21    23    1
42    21    24    1
43    23    48    1
44    24    25    1
45    24    49    1
46    24    50    1
47    25    26    1
48    25    27    1
49    26    51    1
50    26    52    1
51    26    53    1
52    27    28    1
53    27    29    1
54    28    54    1
55    29    30    2
56    29    31    1
57    31    32    1
58    31    55    1
59    31    56    1
60    32    57    1
@<TRIPOS>SUBSTRUCTURE
1   ZINC000253530736 1     RESIDUE    1   A     ZIN   1
