@<TRIPOS>MOLECULE
ZINC000022454203
63    66    1     0     0
SMALL
USER_CHARGES
@<TRIPOS>ATOM
1      C1      2.6427   -0.5464    3.0946 C.3      1 ZINC000022454203   -0.1900
2      C2      2.9932   -1.9999    2.7697 C.3      1 ZINC000022454203   -0.0200
3      N3      1.7581   -2.7849    2.6431 N.4      1 ZINC000022454203   -0.3800
4      H4      1.9902   -3.7533    2.4804 H        1 ZINC000022454203    0.4200
5      C5      0.9759   -2.6703    3.8813 C.3      1 ZINC000022454203   -0.0200
6      C6      1.7573   -3.2964    5.0380 C.3      1 ZINC000022454203   -0.1900
7      C7      0.9671   -2.2749    1.5152 C.3      1 ZINC000022454203   -0.0200
8      C8      1.7225   -2.5246    0.2083 C.3      1 ZINC000022454203    0.0400
9      H9      2.7000   -2.0448    0.2564 H        1 ZINC000022454203    0.0900
10     C10     1.9031   -4.0304    0.0035 C.3      1 ZINC000022454203   -0.1200
11     C11     2.6416   -4.2763   -1.3151 C.3      1 ZINC000022454203   -0.1200
12     C12     1.8486   -3.6418   -2.4610 C.3      1 ZINC000022454203   -0.1200
13     C13     1.6696   -2.1473   -2.1848 C.3      1 ZINC000022454203    0.0400
14     N14     0.9575   -1.9653   -0.9135 N.3      1 ZINC000022454203   -0.4900
15     C15     0.6455   -0.5484   -0.6830 C.3      1 ZINC000022454203    0.0200
16     C16     1.9271    0.2302   -0.5329 C.2      1 ZINC000022454203    0.5000
17     O17     2.9943   -0.3189   -0.7076 O.2      1 ZINC000022454203   -0.5000
18     N18     1.8873    1.5367   -0.2044 N.am     1 ZINC000022454203   -0.5100
19     C19     3.0594    2.2899   -0.1633 C.ar     1 ZINC000022454203    0.1600
20     C20     4.0812    1.9339    0.7053 C.ar     1 ZINC000022454203   -0.1100
21     C21     5.2297    2.6983    0.7735 C.ar     1 ZINC000022454203   -0.0800
22     C22     5.3679    3.8237   -0.0214 C.ar     1 ZINC000022454203   -0.1100
23     C23     4.3679    4.1833   -0.8994 C.ar     1 ZINC000022454203   -0.0400
24     C24     3.2072    3.4097   -0.9919 C.ar     1 ZINC000022454203   -0.1400
25     C25     2.1805    3.7496   -1.9848 C.2      1 ZINC000022454203    0.5700
26     O26     2.5656    4.1601   -3.0624 O.2      1 ZINC000022454203   -0.5100
27     N27     0.8722    3.6480   -1.8099 N.am     1 ZINC000022454203   -0.6500
28     C28     0.2099    3.2237   -0.6631 C.ar     1 ZINC000022454203    0.1200
29     C29    -0.9510    3.8811   -0.2650 C.ar     1 ZINC000022454203   -0.0800
30     C30    -1.6216    3.4233    0.8595 C.ar     1 ZINC000022454203   -0.1300
31     C31    -1.1244    2.3333    1.5452 C.ar     1 ZINC000022454203    0.1100
32     N32    -0.0145    1.7370    1.1546 N.ar     1 ZINC000022454203   -0.4800
33     C33     0.6688    2.1548    0.0937 C.ar     1 ZINC000022454203    0.3000
34     H34     2.0471   -0.5115    4.0068 H        1 ZINC000022454203    0.0900
35     H35     3.5597    0.0253    3.2372 H        1 ZINC000022454203    0.1000
36     H36     2.0716   -0.1177    2.2711 H        1 ZINC000022454203    0.0800
37     H37     3.5465   -2.0392    1.8314 H        1 ZINC000022454203    0.1300
38     H38     3.6061   -2.4135    3.5706 H        1 ZINC000022454203    0.1300
39     H39     0.7886   -1.6183    4.0966 H        1 ZINC000022454203    0.1300
40     H40     0.0260   -3.1911    3.7605 H        1 ZINC000022454203    0.1300
41     H41     2.0314   -4.3193    4.7798 H        1 ZINC000022454203    0.0800
42     H42     2.6600   -2.7143    5.2239 H        1 ZINC000022454203    0.0800
43     H43     1.1374   -3.3017    5.9346 H        1 ZINC000022454203    0.1100
44     H44     0.0063   -2.7886    1.4834 H        1 ZINC000022454203    0.1400
45     H45     0.8029   -1.2047    1.6411 H        1 ZINC000022454203    0.1300
46     H46     2.4841   -4.4428    0.8284 H        1 ZINC000022454203    0.0600
47     H47     0.9262   -4.5127   -0.0310 H        1 ZINC000022454203    0.0900
48     H48     3.6336   -3.8273   -1.2662 H        1 ZINC000022454203    0.0700
49     H49     2.7342   -5.3488   -1.4862 H        1 ZINC000022454203    0.0800
50     H50     2.3908   -3.7765   -3.3970 H        1 ZINC000022454203    0.0800
51     H51     0.8709   -4.1180   -2.5344 H        1 ZINC000022454203    0.0800
52     H52     2.6474   -1.6693   -2.1253 H        1 ZINC000022454203    0.0700
53     H53     1.0931   -1.6953   -2.9919 H        1 ZINC000022454203    0.0800
54     H54     0.0805   -0.1584   -1.5296 H        1 ZINC000022454203    0.1200
55     H55     0.0521   -0.4502    0.2260 H        1 ZINC000022454203    0.1200
56     H56     3.9782    1.0583    1.3291 H        1 ZINC000022454203    0.1300
57     H57     6.0233    2.4171    1.4500 H        1 ZINC000022454203    0.1400
58     H58     6.2637    4.4231    0.0472 H        1 ZINC000022454203    0.1400
59     H59     4.4811    5.0629   -1.5157 H        1 ZINC000022454203    0.1400
60     H60     0.3148    3.8969   -2.5637 H        1 ZINC000022454203    0.4200
61     H61    -1.3215    4.7302   -0.8201 H        1 ZINC000022454203    0.1600
62     H62    -2.5230    3.9145    1.1952 H        1 ZINC000022454203    0.1600
63     H63    -1.6508    1.9641    2.4130 H        1 ZINC000022454203    0.1700
@<TRIPOS>BOND
1     1     2     1
2     1     34    1
3     1     35    1
4     1     36    1
5     2     3     1
6     2     37    1
7     2     38    1
8     3     4     1
9     3     5     1
10    3     7     1
11    5     6     1
12    5     39    1
13    5     40    1
14    6     41    1
15    6     42    1
16    6     43    1
17    7     8     1
18    7     44    1
19    7     45    1
20    8     9     1
21    8     14    1
22    8     10    1
23    10    11    1
24    10    46    1
25    10    47    1
26    11    12    1
27    11    48    1
28    11    49    1
29    12    13    1
30    12    50    1
31    12    51    1
32    13    14    1
33    13    52    1
34    13    53    1
35    14    15    1
36    15    16    1
37    15    54    1
38    15    55    1
39    16    17    2
40    16    18    am
41    18    33    1
42    18    19    1
43    19    24    ar
44    19    20    ar
45    20    21    ar
46    20    56    1
47    21    22    ar
48    21    57    1
49    22    23    ar
50    22    58    1
51    23    24    ar
52    23    59    1
53    24    25    1
54    25    26    2
55    25    27    am
56    27    28    1
57    27    60    1
58    28    33    ar
59    28    29    ar
60    29    30    ar
61    29    61    1
62    30    31    ar
63    30    62    1
64    31    32    ar
65    31    63    1
66    32    33    ar
@<TRIPOS>SUBSTRUCTURE
1   ZINC000022454203 1     RESIDUE    1   A     ZIN   1
