@<TRIPOS>MOLECULE
ZINC000005857864
  43   45    0    0    0
SMALL
USER_CHARGES
NO_NAME
@<TRIPOS>ATOM
    1 C1        1.0280     2.3810    -0.1762 C.3    1 <0>      -0.1500
    2 C2        0.8542     0.8714     0.0018 C.3    1 <0>       0.0600
    3 O3        1.3463     0.1849    -1.1793 O.3    1 <0>      -0.3400
    4 C4        1.2652    -1.1598    -1.1834 C.2    1 <0>       0.5300
    5 O5        0.7962    -1.7430    -0.2266 O.2    1 <0>      -0.5000
    6 C6        1.7467    -1.9254    -2.3519 C.ar   1 <0>       0.0300
    7 C7        1.7756    -3.3162    -2.2986 C.ar   1 <0>       0.0100
    8 C8        1.3207    -4.0479    -1.0622 C.3    1 <0>      -0.1400
    9 C9        2.2331    -4.0175    -3.4111 C.ar   1 <0>      -0.0700
   10 C10       2.6482    -3.2956    -4.5454 C.ar   1 <0>       0.1100
   11 C11       2.5852    -1.9023    -4.5112 C.ar   1 <0>       0.0900
   12 N12       2.1427    -1.2771    -3.4455 N.ar   1 <0>      -0.4000
   13 N13       3.0540    -4.1956    -5.5057 N.pl3  1 <0>      -0.5900
   14 C14       2.9195    -5.4907    -5.0398 C.ar   1 <0>       0.1800
   15 C15       2.4097    -5.4413    -3.7336 C.ar   1 <0>      -0.1300
   16 C16       2.1783    -6.6267    -3.0297 C.ar   1 <0>       0.2000
   17 O17       1.6845    -6.5837    -1.7651 O.3    1 <0>      -0.2900
   18 C18       1.5854    -7.8254    -1.0647 C.3    1 <0>       0.0700
   19 C19       1.6238    -7.5652     0.4425 C.3    1 <0>      -0.1500
   20 C20       0.2687    -8.5134    -1.4302 C.3    1 <0>      -0.1800
   21 C21       2.4539    -7.8438    -3.6269 C.ar   1 <0>      -0.2400
   22 C22       2.9572    -7.8888    -4.9170 C.ar   1 <0>      -0.0400
   23 C23       3.1899    -6.7268    -5.6206 C.ar   1 <0>      -0.1800
   24 H24       2.0841     2.6111    -0.3166 H      1 <0>       0.0700
   25 H25       0.4650     2.7111    -1.0493 H      1 <0>       0.0700
   26 H26       0.6586     2.8963     0.7104 H      1 <0>       0.0800
   27 H27       1.4172     0.5413     0.8749 H      1 <0>       0.0700
   28 H28      -0.2019     0.6412     0.1422 H      1 <0>       0.0700
   29 H29       0.2601    -4.2841    -1.1494 H      1 <0>       0.0800
   30 H30       1.8909    -4.9707    -0.9557 H      1 <0>       0.1000
   31 H31       1.4819    -3.4181    -0.1873 H      1 <0>       0.1000
   32 H32       2.9000    -1.3322    -5.3727 H      1 <0>       0.1700
   33 H33       3.3871    -3.9550    -6.3844 H      1 <0>       0.4300
   34 H34       2.4207    -8.4676    -1.3439 H      1 <0>       0.0800
   35 H35       0.7885    -6.9230     0.7217 H      1 <0>       0.0700
   36 H36       1.5482    -8.5123     0.9767 H      1 <0>       0.0800
   37 H37       2.5618    -7.0750     0.7029 H      1 <0>       0.0700
   38 H38      -0.5666    -7.8712    -1.1510 H      1 <0>       0.0700
   39 H39       0.2414    -8.6988    -2.5040 H      1 <0>       0.0600
   40 H40       0.1932    -9.4606    -0.8960 H      1 <0>       0.0700
   41 H41       2.2766    -8.7615    -3.0857 H      1 <0>       0.1400
   42 H42       3.1695    -8.8434    -5.3754 H      1 <0>       0.1400
   43 H43       3.5825    -6.7753    -6.6256 H      1 <0>       0.1300
@<TRIPOS>BOND
   1    1    2 1
   2    1   24 1
   3    1   25 1
   4    1   26 1
   5    2    3 1
   6    2   27 1
   7    2   28 1
   8    3    4 1
   9    4    5 2
  10    4    6 1
  11    6   12 ar
  12    6    7 ar
  13    7    8 1
  14    7    9 ar
  15    8   29 1
  16    8   30 1
  17    8   31 1
  18    9   15 1
  19    9   10 ar
  20   10   11 ar
  21   10   13 1
  22   11   12 ar
  23   11   32 1
  24   13   14 1
  25   13   33 1
  26   14   23 ar
  27   14   15 ar
  28   15   16 ar
  29   16   17 1
  30   16   21 ar
  31   17   18 1
  32   18   19 1
  33   18   20 1
  34   18   34 1
  35   19   35 1
  36   19   36 1
  37   19   37 1
  38   20   38 1
  39   20   39 1
  40   20   40 1
  41   21   22 ar
  42   21   41 1
  43   22   23 ar
  44   22   42 1
  45   23   43 1
