@<TRIPOS>MOLECULE
ZINC000100004276
  20   21    0    0    0
SMALL
USER_CHARGES
NO_NAME
@<TRIPOS>ATOM
    1 N1       -0.0157     1.3050     0.0092 N.2    1 <0>      -0.5800
    2 C2        0.0021    -0.0041     0.0020 C.2    1 <0>       0.4800
    3 N3        1.1782    -0.6935    -0.0072 N.2    1 <0>      -0.2100
    4 N4        1.2383    -1.8996     0.4470 N.2    1 <0>       0.1300
    5 O5        2.4751    -2.5890     0.4382 O.3    1 <0>      -0.2200
    6 C6        0.1315    -2.5155     0.9336 C.ar   1 <0>      -0.0200
    7 C7        0.2176    -3.7137     1.6489 C.ar   1 <0>      -0.0100
    8 C8       -0.9308    -4.3085     2.1214 C.ar   1 <0>      -0.1100
    9 C9       -2.1723    -3.7315     1.8954 C.ar   1 <0>       0.0400
   10 C10      -2.2771    -2.5469     1.1928 C.ar   1 <0>      -0.1400
   11 C11      -1.1336    -1.9344     0.7115 C.ar   1 <0>       0.2900
   12 N12      -1.1774    -0.7393     0.0093 N.pl3  1 <0>      -0.3700
   13 O13      -2.3444    -0.2968    -0.6595 O.3    1 <0>      -0.2600
   14 H14       0.8177     1.8014     0.0039 H      1 <0>       0.3900
   15 H15       3.2093    -2.0752     0.0749 H      1 <0>       0.4500
   16 H16       1.1795    -4.1704     1.8295 H      1 <0>       0.1800
   17 H17      -0.8645    -5.2342     2.6737 H      1 <0>       0.1700
   18 H18      -3.0633    -4.2121     2.2718 H      1 <0>       0.1800
   19 H19      -3.2457    -2.1015     1.0203 H      1 <0>       0.1800
   20 H20      -2.2412     0.5523    -1.1106 H      1 <0>       0.4300
@<TRIPOS>BOND
   1    1    2 2
   2    1   14 1
   3    2   12 1
   4    2    3 1
   5    3    4 2
   6    4    5 1
   7    4    6 1
   8    5   15 1
   9    6   11 ar
  10    6    7 ar
  11    7    8 ar
  12    7   16 1
  13    8    9 ar
  14    8   17 1
  15    9   10 ar
  16    9   18 1
  17   10   11 ar
  18   10   19 1
  19   11   12 1
  20   12   13 1
  21   13   20 1
