@<TRIPOS>MOLECULE
ZINC000036379005
62    64    1     0     0
SMALL
USER_CHARGES
@<TRIPOS>ATOM
1      C1     -0.0239    1.4269    0.0141 C.3      1 ZINC000036379005    0.0200
2      O2     -0.0099   -0.0020    0.0089 O.3      1 ZINC000036379005   -0.3000
3      C3      0.6136   -0.6171    1.0492 C.ar     1 ZINC000036379005    0.1500
4      C4      1.1916    0.1383    2.0516 C.ar     1 ZINC000036379005   -0.2000
5      C5      1.8331   -0.4955    3.1217 C.ar     1 ZINC000036379005   -0.0200
6      C6      2.4487    0.3047    4.1901 C.2      1 ZINC000036379005    0.0200
7      C7      3.0670   -0.3084    5.2216 C.2      1 ZINC000036379005   -0.2400
8      C8      3.6796    0.4877    6.2846 C.2      1 ZINC000036379005    0.5600
9      O9      3.7116    1.7011    6.1947 O.2      1 ZINC000036379005   -0.5100
10     N10     4.2085   -0.1223    7.3638 N.am     1 ZINC000036379005   -0.6300
11     C11     4.2899   -1.5892    7.4395 C.3      1 ZINC000036379005    0.0900
12     C12     5.7221   -1.9771    7.8215 C.3      1 ZINC000036379005   -0.0200
13     N13     6.1023   -1.2844    9.0591 N.4      1 ZINC000036379005   -0.3700
14     H14     5.4302   -1.4958    9.7815 H        1 ZINC000036379005    0.4300
15     C15     7.4334   -1.7384    9.4832 C.3      1 ZINC000036379005   -0.0300
16     C16     7.7734   -1.1222   10.8158 C.2      1 ZINC000036379005    0.5100
17     O17     6.9845   -0.3781   11.3587 O.2      1 ZINC000036379005   -0.5300
18     N18     8.9542   -1.3980   11.4041 N.am     1 ZINC000036379005   -0.5900
19     C19    10.0006   -2.2736   10.8565 C.3      1 ZINC000036379005    0.0800
20     C20    11.1522   -2.3088   11.8832 C.3      1 ZINC000036379005   -0.1300
21     C21    10.4508   -1.9029   13.2063 C.3      1 ZINC000036379005   -0.1400
22     C22     9.4131   -0.8666   12.7005 C.3      1 ZINC000036379005    0.1000
23     C23     6.1333    0.1658    8.8312 C.3      1 ZINC000036379005   -0.0300
24     C24     4.7265    0.6601    8.4968 C.3      1 ZINC000036379005    0.0900
25     C25     1.8866   -1.8930    3.1725 C.ar     1 ZINC000036379005   -0.2100
26     C26     1.3064   -2.6420    2.1666 C.ar     1 ZINC000036379005    0.1500
27     O27     1.3579   -4.0001    2.2151 O.3      1 ZINC000036379005   -0.3000
28     C28     2.0274   -4.5844    3.3342 C.3      1 ZINC000036379005    0.0200
29     C29     0.6639   -2.0078    1.1060 C.ar     1 ZINC000036379005    0.0500
30     O30     0.0939   -2.7476    0.1186 O.3      1 ZINC000036379005   -0.3100
31     C31    -1.2731   -3.1239    0.2967 C.3      1 ZINC000036379005    0.0400
32     H32     1.0001    1.8004    0.0040 H        1 ZINC000036379005    0.0600
33     H33    -0.5512    1.7883   -0.8688 H        1 ZINC000036379005    0.1100
34     H34    -0.5313    1.7820    0.9111 H        1 ZINC000036379005    0.0600
35     H35     1.1487    1.2166    2.0090 H        1 ZINC000036379005    0.1400
36     H36     2.4064    1.3831    4.1498 H        1 ZINC000036379005    0.1400
37     H37     3.1094   -1.3869    5.2619 H        1 ZINC000036379005    0.1300
38     H38     3.5967   -1.9559    8.1966 H        1 ZINC000036379005    0.1000
39     H39     4.0398   -2.0204    6.4702 H        1 ZINC000036379005    0.1300
40     H40     5.7778   -3.0547    7.9763 H        1 ZINC000036379005    0.1500
41     H41     6.4027   -1.6893    7.0202 H        1 ZINC000036379005    0.1400
42     H42     7.4349   -2.8246    9.5743 H        1 ZINC000036379005    0.1600
43     H43     8.1737   -1.4348    8.7430 H        1 ZINC000036379005    0.1600
44     H44     9.6040   -3.2782   10.7097 H        1 ZINC000036379005    0.0800
45     H45    10.3608   -1.8729    9.9090 H        1 ZINC000036379005    0.0800
46     H46    11.5696   -3.3127   11.9602 H        1 ZINC000036379005    0.0900
47     H47    11.9258   -1.5875   11.6198 H        1 ZINC000036379005    0.0900
48     H48     9.9594   -2.7600   13.6669 H        1 ZINC000036379005    0.0800
49     H49    11.1564   -1.4414   13.8970 H        1 ZINC000036379005    0.1000
50     H50     9.8826    0.1087   12.5719 H        1 ZINC000036379005    0.0800
51     H51     8.5765   -0.7971   13.3957 H        1 ZINC000036379005    0.0900
52     H52     6.4919    0.6674    9.7300 H        1 ZINC000036379005    0.1600
53     H53     6.8014    0.3888    7.9993 H        1 ZINC000036379005    0.1300
54     H54     4.7635    1.7159    8.2284 H        1 ZINC000036379005    0.1400
55     H55     4.0747    0.5210    9.3593 H        1 ZINC000036379005    0.1000
56     H56     2.3811   -2.3855    3.9967 H        1 ZINC000036379005    0.1400
57     H57     1.5318   -4.2770    4.2551 H        1 ZINC000036379005    0.0600
58     H58     1.9960   -5.6706    3.2498 H        1 ZINC000036379005    0.1100
59     H59     3.0650   -4.2511    3.3514 H        1 ZINC000036379005    0.0600
60     H60    -1.3704   -3.7210    1.2034 H        1 ZINC000036379005    0.0500
61     H61    -1.8881   -2.2282    0.3838 H        1 ZINC000036379005    0.0500
62     H62    -1.6035   -3.7095   -0.5612 H        1 ZINC000036379005    0.1000
@<TRIPOS>BOND
1     1     2     1
2     1     32    1
3     1     33    1
4     1     34    1
5     2     3     1
6     3     29    ar
7     3     4     ar
8     4     5     ar
9     4     35    1
10    5     6     1
11    5     25    ar
12    6     7     2
13    6     36    1
14    7     8     1
15    7     37    1
16    8     9     2
17    8     10    am
18    10    24    1
19    10    11    1
20    11    12    1
21    11    38    1
22    11    39    1
23    12    13    1
24    12    40    1
25    12    41    1
26    13    14    1
27    13    15    1
28    13    23    1
29    15    16    1
30    15    42    1
31    15    43    1
32    16    17    2
33    16    18    am
34    18    22    1
35    18    19    1
36    19    20    1
37    19    44    1
38    19    45    1
39    20    21    1
40    20    46    1
41    20    47    1
42    21    22    1
43    21    48    1
44    21    49    1
45    22    50    1
46    22    51    1
47    23    24    1
48    23    52    1
49    23    53    1
50    24    54    1
51    24    55    1
52    25    26    ar
53    25    56    1
54    26    27    1
55    26    29    ar
56    27    28    1
57    28    57    1
58    28    58    1
59    28    59    1
60    29    30    1
61    30    31    1
62    31    60    1
63    31    61    1
64    31    62    1
@<TRIPOS>SUBSTRUCTURE
1   ZINC000036379005 1     RESIDUE    1   A     ZIN   1
