@<TRIPOS>MOLECULE
ZINC000000057163
29    30    1     0     0
SMALL
USER_CHARGES
@<TRIPOS>ATOM
1      C1     -0.0173    1.4248    0.0099 C.3      1 ZINC000000057163    0.0200
2      O2      0.0021   -0.0041    0.0020 O.3      1 ZINC000000057163   -0.3200
3      C3     -1.2011   -0.6379    0.0101 C.ar     1 ZINC000000057163    0.1200
4      C4     -2.3771    0.1072    0.0195 C.ar     1 ZINC000000057163   -0.1800
5      C5     -3.6040   -0.5186    0.0273 C.ar     1 ZINC000000057163   -0.0800
6      C6     -3.6760   -1.9073    0.0258 C.ar     1 ZINC000000057163    0.0600
7      N7     -4.7263   -2.8010    0.0320 N.pl3    1 ZINC000000057163   -0.5900
8      C8     -4.2463   -4.0820    0.0268 C.2      1 ZINC000000057163    0.1000
9      C9     -2.9040   -4.0680    0.0173 C.2      1 ZINC000000057163   -0.2100
10     C10    -1.9953   -5.2702    0.0084 C.3      1 ZINC000000057163   -0.0600
11     C11    -1.5768   -5.6038    1.4417 C.3      1 ZINC000000057163   -0.0100
12     N12    -0.6911   -6.7757    1.4330 N.4      1 ZINC000000057163   -0.6400
13     H13     0.1293   -6.5732    0.8816 H        1 ZINC000000057163    0.4400
14     H14    -0.4151   -6.9957    2.3783 H        1 ZINC000000057163    0.4400
15     H15    -1.1791   -7.5632    1.0332 H        1 ZINC000000057163    0.4300
16     C16    -2.4897   -2.6629    0.0163 C.ar     1 ZINC000000057163   -0.0600
17     C17    -1.2514   -2.0177    0.0032 C.ar     1 ZINC000000057163   -0.1300
18     H18     1.0053    1.8021    0.0021 H        1 ZINC000000057163    0.1000
19     H19    -0.5445    1.7859   -0.8732 H        1 ZINC000000057163    0.0600
20     H20    -0.5275    1.7763    0.9067 H        1 ZINC000000057163    0.0600
21     H21    -2.3269    1.1860    0.0211 H        1 ZINC000000057163    0.1400
22     H22    -4.5100    0.0692    0.0350 H        1 ZINC000000057163    0.1300
23     H23    -5.6652   -2.5575    0.0393 H        1 ZINC000000057163    0.4200
24     H24    -4.8570   -4.9728    0.0298 H        1 ZINC000000057163    0.1700
25     H25    -2.5225   -6.1209   -0.4235 H        1 ZINC000000057163    0.0900
26     H26    -1.1091   -5.0514   -0.5873 H        1 ZINC000000057163    0.0900
27     H27    -1.0497   -4.7532    1.8736 H        1 ZINC000000057163    0.1300
28     H28    -2.4631   -5.8226    2.0374 H        1 ZINC000000057163    0.1300
29     H29    -0.3384   -2.5946   -0.0096 H        1 ZINC000000057163    0.1300
@<TRIPOS>BOND
1     1     2     1
2     1     18    1
3     1     19    1
4     1     20    1
5     2     3     1
6     3     17    ar
7     3     4     ar
8     4     5     ar
9     4     21    1
10    5     6     ar
11    5     22    1
12    6     16    ar
13    6     7     1
14    7     8     1
15    7     23    1
16    8     9     2
17    8     24    1
18    9     10    1
19    9     16    1
20    10    11    1
21    10    25    1
22    10    26    1
23    11    12    1
24    11    27    1
25    11    28    1
26    12    13    1
27    12    14    1
28    12    15    1
29    16    17    ar
30    17    29    1
@<TRIPOS>SUBSTRUCTURE
1   ZINC000000057163 1     RESIDUE    1   A     ZIN   1
