@<TRIPOS>MOLECULE
ZINC000004654791
34    34    1     0     0
SMALL
USER_CHARGES
@<TRIPOS>ATOM
1      C1     -0.0184    1.5028    0.0103 C.3      1 ZINC000004654791   -0.1800
2      C2      0.0021   -0.0041    0.0020 C.2      1 ZINC000004654791    0.3100
3      O3      0.0203   -0.6163    1.0494 O.2      1 ZINC000004654791   -0.4700
4      S4     -0.0005   -0.8520   -1.4852 S.3      1 ZINC000004654791   -0.1000
5      C5      0.0285   -2.5560   -0.8756 C.3      1 ZINC000004654791   -0.0700
6      C6      0.0304   -3.5222   -2.0619 C.3      1 ZINC000004654791   -0.1400
7      H7      0.8628   -3.2832   -2.7238 H        1 ZINC000004654791    0.0800
8      C8      0.1805   -4.9566   -1.5512 C.3      1 ZINC000004654791   -0.1400
9      C9      0.3058   -5.8963   -2.7226 C.2      1 ZINC000004654791    0.3800
10     O10     0.2777   -5.4617   -3.8543 O.2      1 ZINC000004654791   -0.4100
11     C11     0.4621   -7.3416   -2.4931 C.ar     1 ZINC000004654791   -0.1600
12     C12     0.4891   -7.8474   -1.1896 C.ar     1 ZINC000004654791   -0.0700
13     C13     0.6360   -9.2027   -0.9828 C.ar     1 ZINC000004654791   -0.1400
14     C14     0.7569  -10.0618   -2.0611 C.ar     1 ZINC000004654791   -0.0700
15     C15     0.9170  -11.5418   -1.8261 C.3      1 ZINC000004654791   -0.1200
16     C16     0.7310   -9.5690   -3.3542 C.ar     1 ZINC000004654791   -0.1300
17     C17     0.5786   -8.2169   -3.5776 C.ar     1 ZINC000004654791   -0.0600
18     C18    -1.2664   -3.3914   -2.8184 C.2      1 ZINC000004654791    0.5100
19     O19    -1.2570   -3.0605   -3.9918 O.co2    1 ZINC000004654791   -0.6700
20     O20    -2.3250   -3.6164   -2.2569 O.co2    1 ZINC000004654791   -0.7000
21     H21     1.0042    1.8801    0.0026 H        1 ZINC000004654791    0.1000
22     H22    -0.5455    1.8639   -0.8728 H        1 ZINC000004654791    0.0900
23     H23    -0.5286    1.8543    0.9071 H        1 ZINC000004654791    0.0900
24     H24     0.9264   -2.7128   -0.2778 H        1 ZINC000004654791    0.0800
25     H25    -0.8533   -2.7370   -0.2610 H        1 ZINC000004654791    0.1000
26     H26     1.0731   -5.0295   -0.9299 H        1 ZINC000004654791    0.0800
27     H27    -0.6957   -5.2258   -0.9615 H        1 ZINC000004654791    0.1000
28     H28     0.3956   -7.1781   -0.3471 H        1 ZINC000004654791    0.1300
29     H29     0.6571   -9.5949    0.0233 H        1 ZINC000004654791    0.1300
30     H30    -0.0654  -12.0128   -1.7929 H        1 ZINC000004654791    0.0700
31     H31     1.5015  -11.9772   -2.6365 H        1 ZINC000004654791    0.0700
32     H32     1.4307  -11.7057   -0.8788 H        1 ZINC000004654791    0.0700
33     H33     0.8260  -10.2458   -4.1905 H        1 ZINC000004654791    0.1200
34     H34     0.5586   -7.8338   -4.5872 H        1 ZINC000004654791    0.1300
@<TRIPOS>BOND
1     1     2     1
2     1     21    1
3     1     22    1
4     1     23    1
5     2     3     2
6     2     4     1
7     4     5     1
8     5     6     1
9     5     24    1
10    5     25    1
11    6     7     1
12    6     8     1
13    6     18    1
14    8     9     1
15    8     26    1
16    8     27    1
17    9     10    2
18    9     11    1
19    11    17    ar
20    11    12    ar
21    12    13    ar
22    12    28    1
23    13    14    ar
24    13    29    1
25    14    15    1
26    14    16    ar
27    15    30    1
28    15    31    1
29    15    32    1
30    16    17    ar
31    16    33    1
32    17    34    1
33    18    19    ar
34    18    20    ar
@<TRIPOS>SUBSTRUCTURE
1   ZINC000004654791 1     RESIDUE    1   A     ZIN   1
