@<TRIPOS>MOLECULE
ZINC000000002070
25    27    1     0     0
SMALL
USER_CHARGES
@<TRIPOS>ATOM
1      O1      0.0021   -0.0041    0.0020 O.2      1 ZINC000000002070   -0.6100
2      C2     -0.0144    1.2112    0.0087 C.2      1 ZINC000000002070    0.6600
3      N3     -1.1368    1.9405    0.0291 N.pl3    1 ZINC000000002070   -0.7100
4      C4     -0.8702    3.2630    0.0317 C.2      1 ZINC000000002070    0.5100
5      O5     -1.6708    4.1733    0.0475 O.2      1 ZINC000000002070   -0.5500
6      C6      0.6372    3.3702    0.0107 C.3      1 ZINC000000002070    0.1100
7      C7      1.1368    4.0846    1.2628 C.3      1 ZINC000000002070   -0.1400
8      C8      0.8481    5.5843    1.1086 C.3      1 ZINC000000002070    0.0600
9      O9      1.6031    6.0795    0.0023 O.3      1 ZINC000000002070   -0.3200
10     C10     1.5429    5.3976   -1.1712 C.ar     1 ZINC000000002070    0.1300
11     C11     1.9445    6.0403   -2.3367 C.ar     1 ZINC000000002070   -0.1300
12     C12     1.9034    5.3773   -3.5465 C.ar     1 ZINC000000002070   -0.1200
13     C13     1.4602    4.0669   -3.6009 C.ar     1 ZINC000000002070    0.0600
14     F14     1.4219    3.4147   -4.7835 F        1 ZINC000000002070   -0.1400
15     C15     1.0570    3.4258   -2.4434 C.ar     1 ZINC000000002070   -0.1000
16     C16     1.0940    4.0880   -1.2283 C.ar     1 ZINC000000002070   -0.1100
17     N17     1.0947    1.9755    0.0022 N.am     1 ZINC000000002070   -0.7600
18     H18     0.6160    3.6983    2.1389 H        1 ZINC000000002070    0.0900
19     H19     2.2097    3.9263    1.3729 H        1 ZINC000000002070    0.0700
20     H20    -0.2153    5.7354    0.9232 H        1 ZINC000000002070    0.0900
21     H21     1.1427    6.1093    2.0173 H        1 ZINC000000002070    0.1100
22     H22     2.2898    7.0628   -2.2953 H        1 ZINC000000002070    0.1400
23     H23     2.2162    5.8802   -4.4496 H        1 ZINC000000002070    0.1400
24     H24     0.7116    2.4035   -2.4879 H        1 ZINC000000002070    0.1400
25     H25     2.0137    1.6655   -0.0110 H        1 ZINC000000002070    0.4000
@<TRIPOS>BOND
1     1     2     2
2     2     17    am
3     2     3     1
4     3     4     1
5     4     5     2
6     4     6     1
7     6     16    1
8     6     7     1
9     6     17    1
10    7     8     1
11    7     18    1
12    7     19    1
13    8     9     1
14    8     20    1
15    8     21    1
16    9     10    1
17    10    16    ar
18    10    11    ar
19    11    12    ar
20    11    22    1
21    12    13    ar
22    12    23    1
23    13    14    1
24    13    15    ar
25    15    16    ar
26    15    24    1
27    17    25    1
@<TRIPOS>SUBSTRUCTURE
1   ZINC000000002070 1     RESIDUE    1   A     ZIN   1




