@<TRIPOS>MOLECULE
ZINC000038312374
20    22    1     0     0
SMALL
USER_CHARGES
@<TRIPOS>ATOM
1      C1     -0.0127    1.0858    0.0080 C.3      1 ZINC000038312374   -0.1200
2      C2     -0.8089    1.6202    1.2186 C.3      1 ZINC000038312374   -0.0400
3      C3     -1.5175    2.8562    0.7056 C.2      1 ZINC000038312374    0.0300
4      C4     -1.5298    2.8634   -0.6427 C.2      1 ZINC000038312374   -0.2200
5      C5     -0.8318    1.6331   -1.1814 C.3      1 ZINC000038312374   -0.0400
6      C6     -2.2001    4.0338   -1.0629 C.2      1 ZINC000038312374    0.2200
7      C7     -2.4424    4.4430   -2.4646 C.2      1 ZINC000038312374    0.1100
8      N8     -2.0682    3.7863   -3.5639 N.2      1 ZINC000038312374   -0.3500
9      N9     -2.4708    4.4705   -4.5797 N.2      1 ZINC000038312374   -0.1900
10     N10    -3.0728    5.5302   -4.1662 N.2      1 ZINC000038312374   -0.1900
11     N11    -3.0729    5.5439   -2.8771 N.pl3    1 ZINC000038312374   -0.3500
12     N12    -2.5714    4.6961    0.0126 N.2      1 ZINC000038312374   -0.2700
13     N13    -2.1519    3.9728    1.1350 N.pl3    1 ZINC000038312374   -0.4700
14     H14     0.0021   -0.0041    0.0020 H        1 ZINC000038312374    0.0800
15     H15     1.0007    1.4872    0.0005 H        1 ZINC000038312374    0.0700
16     H16    -1.5347    0.8785    1.5520 H        1 ZINC000038312374    0.0800
17     H17    -0.1318    1.8811    2.0320 H        1 ZINC000038312374    0.0700
18     H18    -0.1704    1.9028   -2.0047 H        1 ZINC000038312374    0.0800
19     H19    -1.5627    0.8942   -1.5099 H        1 ZINC000038312374    0.0700
20     H20    -2.2913    4.2275    2.0606 H        1 ZINC000038312374    0.4300
@<TRIPOS>BOND
1     1     5     1
2     1     2     1
3     1     14    1
4     1     15    1
5     2     3     1
6     2     16    1
7     2     17    1
8     3     13    1
9     3     4     2
10    4     5     1
11    4     6     1
12    5     18    1
13    5     19    1
14    6     7     1
15    6     12    2
16    7     11    1
17    7     8     2
18    8     9     1
19    9     10    2
20    10    11    1
21    12    13    1
22    13    20    1
@<TRIPOS>SUBSTRUCTURE
1   ZINC000038312374 1     RESIDUE    1   A     ZIN   1
