@<TRIPOS>MOLECULE
ZINC000043195317
83    88    1     0     0
SMALL
USER_CHARGES
@<TRIPOS>ATOM
1      C1     -0.3075   -9.7194  -12.4870 C.3      1 ZINC000043195317    0.0200
2      N2     -0.2668  -10.3886  -11.1799 N.3      1 ZINC000043195317   -0.5500
3      C3     -1.6210  -10.7214  -10.7162 C.3      1 ZINC000043195317    0.0600
4      C4     -1.5308  -11.4858   -9.3933 C.3      1 ZINC000043195317    0.0500
5      N5     -0.8253  -10.6620   -8.4016 N.3      1 ZINC000043195317   -0.5300
6      C6     -0.7846  -11.3312   -7.0946 C.3      1 ZINC000043195317    0.0900
7      C7      0.1506  -12.5403   -7.1697 C.3      1 ZINC000043195317   -0.1700
8      C8      0.1637  -13.2556   -5.8151 C.3      1 ZINC000043195317    0.1300
9      N9      0.5162  -12.2842   -4.7708 N.am     1 ZINC000043195317   -0.6200
10     C10     1.5351  -12.5271   -3.9226 C.2      1 ZINC000043195317    0.7100
11     O11     2.1144  -13.5954   -3.9585 O.2      1 ZINC000043195317   -0.5600
12     N12     1.9119  -11.5857   -3.0348 N.am     1 ZINC000043195317   -0.6600
13     C13     3.0310  -11.7947   -2.2300 C.ar     1 ZINC000043195317    0.4000
14     C14     3.9728  -12.7454   -2.5968 C.ar     1 ZINC000043195317   -0.2100
15     C15     5.0838  -12.9429   -1.7845 C.ar     1 ZINC000043195317    0.1800
16     O16     6.0275  -13.8629   -2.1090 O.3      1 ZINC000043195317   -0.2400
17     C17     7.1308  -13.9514   -1.3195 C.ar     1 ZINC000043195317    0.0900
18     C18     7.0588  -14.6060   -0.0986 C.ar     1 ZINC000043195317   -0.1100
19     C19     8.1790  -14.6971    0.7047 C.ar     1 ZINC000043195317   -0.0900
20     C20     9.3774  -14.1333    0.2909 C.ar     1 ZINC000043195317    0.1200
21     N21    10.5145  -14.2257    1.1060 N.am     1 ZINC000043195317   -0.6700
22     C22    10.6075  -15.2080    2.0241 C.2      1 ZINC000043195317    0.5600
23     O23     9.7587  -16.0731    2.0749 O.2      1 ZINC000043195317   -0.4900
24     C24    11.7660  -15.2316    2.9877 C.3      1 ZINC000043195317   -0.2100
25     C25    13.0542  -14.6457    2.4697 C.2      1 ZINC000043195317    0.5500
26     O26    14.0799  -15.2903    2.5272 O.2      1 ZINC000043195317   -0.4900
27     N27    13.0664  -13.4053    1.9427 N.am     1 ZINC000043195317   -0.6700
28     C28    14.2430  -12.8950    1.3805 C.ar     1 ZINC000043195317    0.1300
29     C29    15.1358  -13.7470    0.7440 C.ar     1 ZINC000043195317   -0.0900
30     C30    16.2957  -13.2417    0.1902 C.ar     1 ZINC000043195317   -0.1300
31     C31    16.5689  -11.8865    0.2698 C.ar     1 ZINC000043195317    0.0900
32     F32    17.7041  -11.3943   -0.2726 F        1 ZINC000043195317   -0.1400
33     C33    15.6799  -11.0352    0.9041 C.ar     1 ZINC000043195317   -0.1300
34     C34    14.5158  -11.5355    1.4537 C.ar     1 ZINC000043195317   -0.1100
35     C35    11.4526  -15.0471    4.4738 C.3      1 ZINC000043195317   -0.1200
36     C36    11.8654  -16.4218    3.9439 C.3      1 ZINC000043195317   -0.1000
37     C37     9.4501  -13.4769   -0.9331 C.ar     1 ZINC000043195317    0.0900
38     F38    10.6163  -12.9275   -1.3373 F        1 ZINC000043195317   -0.1300
39     C39     8.3296  -13.3917   -1.7380 C.ar     1 ZINC000043195317   -0.1300
40     C40     5.2050  -12.1725   -0.6286 C.ar     1 ZINC000043195317   -0.2700
41     C41     4.2274  -11.2471   -0.3306 C.ar     1 ZINC000043195317    0.1700
42     N42     3.1871  -11.0798   -1.1257 N.ar     1 ZINC000043195317   -0.5300
43     C43    -0.2628  -11.0426   -4.6688 C.3      1 ZINC000043195317    0.1100
44     C44    -0.2712  -10.3521   -6.0363 C.3      1 ZINC000043195317   -0.1300
45     C45     0.5289  -10.3292   -8.8653 C.3      1 ZINC000043195317    0.0500
46     C46     0.4387   -9.5648  -10.1883 C.3      1 ZINC000043195317    0.0600
47     H47     0.7097   -9.5449  -12.8377 H        1 ZINC000043195317    0.0700
48     H48    -0.8351  -10.3506  -13.2020 H        1 ZINC000043195317    0.0700
49     H49    -0.8273   -8.7661  -12.3911 H        1 ZINC000043195317    0.0300
50     H50    -2.1904   -9.8038  -10.5679 H        1 ZINC000043195317    0.0400
51     H51    -2.1183  -11.3420  -11.4616 H        1 ZINC000043195317    0.0800
52     H52    -2.5351  -11.7084   -9.0328 H        1 ZINC000043195317    0.0800
53     H53    -0.9849  -12.4165   -9.5475 H        1 ZINC000043195317    0.0500
54     H54    -1.7871  -11.6639   -6.8255 H        1 ZINC000043195317    0.0900
55     H55    -0.2026  -13.2261   -7.9398 H        1 ZINC000043195317    0.0800
56     H56     1.1587  -12.2059   -7.4143 H        1 ZINC000043195317    0.0700
57     H57    -0.8237  -13.6695   -5.6109 H        1 ZINC000043195317    0.0700
58     H58     0.9019  -14.0575   -5.8325 H        1 ZINC000043195317    0.1000
59     H59     1.4044  -10.7628   -2.9557 H        1 ZINC000043195317    0.4100
60     H60     3.8446  -13.3237   -3.4998 H        1 ZINC000043195317    0.1800
61     H61     6.1261  -15.0444    0.2243 H        1 ZINC000043195317    0.1500
62     H62     8.1218  -15.2070    1.6550 H        1 ZINC000043195317    0.1700
63     H63    11.2342  -13.5826    1.0092 H        1 ZINC000043195317    0.4100
64     H64    12.2602  -12.8660    1.9528 H        1 ZINC000043195317    0.4100
65     H65    14.9234  -14.8041    0.6824 H        1 ZINC000043195317    0.1500
66     H66    16.9904  -13.9041   -0.3049 H        1 ZINC000043195317    0.1400
67     H67    15.8949   -9.9786    0.9654 H        1 ZINC000043195317    0.1400
68     H68    13.8227  -10.8712    1.9483 H        1 ZINC000043195317    0.1400
69     H69    12.1782  -14.5017    5.0773 H        1 ZINC000043195317    0.1200
70     H70    10.4085  -14.9087    4.7547 H        1 ZINC000043195317    0.1200
71     H71    11.0928  -17.1878    3.8761 H        1 ZINC000043195317    0.1300
72     H72    12.8625  -16.7808    4.1987 H        1 ZINC000043195317    0.1200
73     H73     8.3850  -12.8822   -2.6886 H        1 ZINC000043195317    0.1500
74     H74     6.0547  -12.2995    0.0258 H        1 ZINC000043195317    0.1400
75     H75     4.3161  -10.6479    0.5636 H        1 ZINC000043195317    0.1700
76     H76    -1.2850  -11.2761   -4.3711 H        1 ZINC000043195317    0.0800
77     H77     0.1939  -10.3843   -3.9298 H        1 ZINC000043195317    0.0800
78     H78     0.7409  -10.0383   -6.2916 H        1 ZINC000043195317    0.0700
79     H79    -0.9246   -9.4804   -5.9997 H        1 ZINC000043195317    0.0900
80     H80     1.0262   -9.7086   -8.1200 H        1 ZINC000043195317    0.0800
81     H81     1.0982  -11.2468   -9.0136 H        1 ZINC000043195317    0.0500
82     H82     1.4430   -9.3422  -10.5488 H        1 ZINC000043195317    0.0800
83     H83    -0.1073   -8.6341  -10.0340 H        1 ZINC000043195317    0.0400
@<TRIPOS>BOND
1     1     2     1
2     1     47    1
3     1     48    1
4     1     49    1
5     2     46    1
6     2     3     1
7     3     4     1
8     3     50    1
9     3     51    1
10    4     5     1
11    4     52    1
12    4     53    1
13    5     6     1
14    5     45    1
15    6     44    1
16    6     7     1
17    6     54    1
18    7     8     1
19    7     55    1
20    7     56    1
21    8     9     1
22    8     57    1
23    8     58    1
24    9     10    am
25    9     43    1
26    10    11    2
27    10    12    am
28    12    13    1
29    12    59    1
30    13    42    ar
31    13    14    ar
32    14    15    ar
33    14    60    1
34    15    16    1
35    15    40    ar
36    16    17    1
37    17    39    ar
38    17    18    ar
39    18    19    ar
40    18    61    1
41    19    20    ar
42    19    62    1
43    20    21    1
44    20    37    ar
45    21    22    am
46    21    63    1
47    22    23    2
48    22    24    1
49    24    36    1
50    24    25    1
51    24    35    1
52    25    26    2
53    25    27    am
54    27    28    1
55    27    64    1
56    28    34    ar
57    28    29    ar
58    29    30    ar
59    29    65    1
60    30    31    ar
61    30    66    1
62    31    32    1
63    31    33    ar
64    33    34    ar
65    33    67    1
66    34    68    1
67    35    36    1
68    35    69    1
69    35    70    1
70    36    71    1
71    36    72    1
72    37    38    1
73    37    39    ar
74    39    73    1
75    40    41    ar
76    40    74    1
77    41    42    ar
78    41    75    1
79    43    44    1
80    43    76    1
81    43    77    1
82    44    78    1
83    44    79    1
84    45    46    1
85    45    80    1
86    45    81    1
87    46    82    1
88    46    83    1
@<TRIPOS>SUBSTRUCTURE
1   ZINC000043195317 1     RESIDUE    1   A     ZIN   1
