@<TRIPOS>MOLECULE
ZINC000001842757
49    53    1     0     0
SMALL
USER_CHARGES
@<TRIPOS>ATOM
1      C1     -0.0178    1.4648    0.0101 C.3      1 ZINC000001842757   -0.0500
2      N2      0.0021   -0.0041    0.0020 N.4      1 ZINC000001842757   -0.2600
3      C3      0.6882   -0.4516   -1.2123 C.3      1 ZINC000001842757   -0.0100
4      C4      0.7236   -1.9807   -1.2610 C.3      1 ZINC000001842757   -0.1400
5      C5      0.0236   -2.5320   -0.0118 C.3      1 ZINC000001842757   -0.0900
6      C6      0.7509   -1.9941    1.2275 C.3      1 ZINC000001842757   -0.1400
7      C7      0.7145   -0.4645    1.1962 C.3      1 ZINC000001842757   -0.0100
8      C8     -1.4177   -2.0059    0.0066 C.3      1 ZINC000001842757   -0.1200
9      H9     -1.9454   -2.3550   -0.8809 H        1 ZINC000001842757    0.1100
10     C10    -2.1326   -2.5128    1.2607 C.3      1 ZINC000001842757    0.1300
11     N11    -3.5403   -2.1094    1.2171 N.pl3    1 ZINC000001842757   -0.5800
12     C12    -3.9180   -0.8806    1.7704 C.ar     1 ZINC000001842757    0.1800
13     C13    -3.3231   -0.4278    2.9372 C.ar     1 ZINC000001842757   -0.1600
14     C14    -3.7031    0.7871    3.4811 C.ar     1 ZINC000001842757   -0.0800
15     C15    -4.6743    1.5544    2.8673 C.ar     1 ZINC000001842757   -0.1300
16     C16    -5.2747    1.1113    1.7001 C.ar     1 ZINC000001842757   -0.0600
17     C17    -4.8986   -0.1010    1.1523 C.ar     1 ZINC000001842757   -0.1500
18     S18    -5.6459   -0.6853   -0.3359 S.3      1 ZINC000001842757    0.0100
19     C19    -5.5287   -2.4347   -0.1330 C.ar     1 ZINC000001842757   -0.1500
20     C20    -6.4614   -3.2747   -0.7123 C.ar     1 ZINC000001842757   -0.0600
21     C21    -6.3514   -4.6452   -0.5430 C.ar     1 ZINC000001842757   -0.1300
22     C22    -5.3128   -5.1701    0.2017 C.ar     1 ZINC000001842757   -0.0800
23     C23    -4.3767   -4.3335    0.7847 C.ar     1 ZINC000001842757   -0.1400
24     C24    -4.4778   -2.9584    0.6180 C.ar     1 ZINC000001842757    0.1800
25     C25    -1.3810   -0.4864    0.0087 C.3      1 ZINC000001842757    0.0000
26     H26     1.0047    1.8421    0.0024 H        1 ZINC000001842757    0.1200
27     H27    -0.5450    1.8259   -0.8730 H        1 ZINC000001842757    0.1200
28     H28    -0.5280    1.8163    0.9069 H        1 ZINC000001842757    0.1200
29     H29     0.1585   -0.0741   -2.0870 H        1 ZINC000001842757    0.1300
30     H30     1.7077   -0.0660   -1.2147 H        1 ZINC000001842757    0.1300
31     H31     0.2054   -2.3299   -2.1541 H        1 ZINC000001842757    0.1000
32     H32     1.7587   -2.3217   -1.2800 H        1 ZINC000001842757    0.1000
33     H33     0.0431   -3.6218   -0.0178 H        1 ZINC000001842757    0.1200
34     H34     0.2524   -2.3529    2.1280 H        1 ZINC000001842757    0.1000
35     H35     1.7861   -2.3351    1.2202 H        1 ZINC000001842757    0.1000
36     H36     1.7339   -0.0788    1.1805 H        1 ZINC000001842757    0.1300
37     H37     0.2041   -0.0965    2.0863 H        1 ZINC000001842757    0.1200
38     H38    -2.0674   -3.6001    1.3017 H        1 ZINC000001842757    0.1000
39     H39    -1.6598   -2.0868    2.1457 H        1 ZINC000001842757    0.0900
40     H40    -2.5636   -1.0229    3.4224 H        1 ZINC000001842757    0.1300
41     H41    -3.2379    1.1370    4.3907 H        1 ZINC000001842757    0.1300
42     H42    -4.9661    2.5008    3.2982 H        1 ZINC000001842757    0.1400
43     H43    -6.0342    1.7106    1.2201 H        1 ZINC000001842757    0.1400
44     H44    -7.2730   -2.8640   -1.2945 H        1 ZINC000001842757    0.1400
45     H45    -7.0788   -5.3043   -0.9935 H        1 ZINC000001842757    0.1400
46     H46    -5.2311   -6.2393    0.3300 H        1 ZINC000001842757    0.1300
47     H47    -3.5671   -4.7503    1.3653 H        1 ZINC000001842757    0.1300
48     H48    -1.8777   -0.1139    0.9046 H        1 ZINC000001842757    0.1300
49     H49    -1.9001   -0.1109   -0.8731 H        1 ZINC000001842757    0.1300
@<TRIPOS>BOND
1     1     2     1
2     1     26    1
3     1     27    1
4     1     28    1
5     2     7     1
6     2     25    1
7     2     3     1
8     3     4     1
9     3     29    1
10    3     30    1
11    4     5     1
12    4     31    1
13    4     32    1
14    5     6     1
15    5     8     1
16    5     33    1
17    6     7     1
18    6     34    1
19    6     35    1
20    7     36    1
21    7     37    1
22    8     9     1
23    8     10    1
24    8     25    1
25    10    11    1
26    10    38    1
27    10    39    1
28    11    24    1
29    11    12    1
30    12    17    ar
31    12    13    ar
32    13    14    ar
33    13    40    1
34    14    15    ar
35    14    41    1
36    15    16    ar
37    15    42    1
38    16    17    ar
39    16    43    1
40    17    18    1
41    18    19    1
42    19    24    ar
43    19    20    ar
44    20    21    ar
45    20    44    1
46    21    22    ar
47    21    45    1
48    22    23    ar
49    22    46    1
50    23    24    ar
51    23    47    1
52    25    48    1
53    25    49    1
@<TRIPOS>SUBSTRUCTURE
1   ZINC000001842757 1     RESIDUE    1   A     ZIN   1
