@<TRIPOS>MOLECULE
ZINC000014965157
50    52    1     0     0
SMALL
USER_CHARGES
@<TRIPOS>ATOM
1      C1      0.1800    1.5118    0.1070 C.3      1 ZINC000014965157   -0.1700
2      C2      0.0020   -0.0042    0.0020 C.3      1 ZINC000014965157    0.1400
3      H3     -1.0600   -0.2480    0.0286 H        1 ZINC000014965157    0.1100
4      C4      0.5970   -0.4913   -1.2941 C.2      1 ZINC000014965157    0.5000
5      O5      1.7258   -0.9342   -1.3145 O.2      1 ZINC000014965157   -0.5000
6      N6     -0.1254   -0.4346   -2.4305 N.am     1 ZINC000014965157   -0.6200
7      C7     -1.4513    0.2031   -2.4542 C.3      1 ZINC000014965157    0.0700
8      C8     -1.4868    1.2017   -3.6167 C.3      1 ZINC000014965157    0.0500
9      O9     -1.0783    0.5414   -4.8171 O.3      1 ZINC000014965157   -0.3800
10     C10     0.2636    0.0494   -4.7869 C.3      1 ZINC000014965157    0.0500
11     C11     0.3912   -1.0032   -3.6855 C.3      1 ZINC000014965157    0.0800
12     N12     0.6807   -0.6545    1.1258 N.am     1 ZINC000014965157   -0.6100
13     C13     0.0115   -1.5044    2.1176 C.3      1 ZINC000014965157    0.1000
14     C14     1.1421   -2.2949    2.8129 C.3      1 ZINC000014965157   -0.1400
15     C15     2.3541   -1.3565    2.6093 C.3      1 ZINC000014965157    0.1200
16     H16     3.2603   -1.9363    2.4342 H        1 ZINC000014965157    0.1300
17     N17     2.5244   -0.4796    3.7705 N.am     1 ZINC000014965157   -1.1000
18     S18     4.0441   -0.0447    4.2639 S.o2     1 ZINC000014965157    2.6900
19     O19     3.8720    0.8237    5.3755 O.2      1 ZINC000014965157   -0.9600
20     O20     4.8047   -1.2434    4.3246 O.2      1 ZINC000014965157   -0.9500
21     C21     4.7516    0.9289    2.9769 C.2      1 ZINC000014965157   -0.7400
22     C22     5.0362    2.2099    3.1921 C.2      1 ZINC000014965157    0.0900
23     C23     5.6268    3.0226    2.1177 C.2      1 ZINC000014965157   -0.2000
24     C24     5.9616    4.3268    2.2208 C.2      1 ZINC000014965157   -0.0900
25     C25     6.5008    4.8749    1.0764 C.2      1 ZINC000014965157   -0.1300
26     C26     6.6095    4.0333    0.0417 C.2      1 ZINC000014965157   -0.1500
27     Cl27    7.2497    4.4460   -1.5182 Cl       1 ZINC000014965157   -0.0100
28     S28     6.0132    2.4443    0.5023 S.3      1 ZINC000014965157    0.2200
29     C29     1.9973   -0.5540    1.3776 C.2      1 ZINC000014965157    0.5100
30     O30     2.7834    0.0919    0.7175 O.2      1 ZINC000014965157   -0.4800
31     H31     1.2378    1.7603    0.0209 H        1 ZINC000014965157    0.0800
32     H32    -0.3741    1.9991   -0.6952 H        1 ZINC000014965157    0.0700
33     H33    -0.1968    1.8561    1.0701 H        1 ZINC000014965157    0.0700
34     H34    -2.2209   -0.5553   -2.5981 H        1 ZINC000014965157    0.0800
35     H35    -1.6233    0.7276   -1.5143 H        1 ZINC000014965157    0.0900
36     H36    -2.5006    1.5834   -3.7380 H        1 ZINC000014965157    0.1100
37     H37    -0.8083    2.0287   -3.4072 H        1 ZINC000014965157    0.0600
38     H38     0.5092   -0.3979   -5.7500 H        1 ZINC000014965157    0.1100
39     H39     0.9485    0.8722   -4.5815 H        1 ZINC000014965157    0.0600
40     H40     1.4382   -1.2797   -3.5615 H        1 ZINC000014965157    0.1000
41     H41    -0.1929   -1.8845   -3.9507 H        1 ZINC000014965157    0.0800
42     H42    -0.5205   -0.8897    2.8436 H        1 ZINC000014965157    0.0800
43     H43    -0.6786   -2.1886    1.6239 H        1 ZINC000014965157    0.0800
44     H44     0.9279   -2.4311    3.8729 H        1 ZINC000014965157    0.1100
45     H45     1.3053   -3.2547    2.3229 H        1 ZINC000014965157    0.1000
46     H46     1.7469   -0.1538    4.2504 H        1 ZINC000014965157    0.4200
47     H47     4.9542    0.4852    2.0133 H        1 ZINC000014965157    0.1700
48     H48     4.8336    2.6536    4.1557 H        1 ZINC000014965157    0.1600
49     H49     5.8181    4.8955    3.1277 H        1 ZINC000014965157    0.1600
50     H50     6.8121    5.9075    1.0190 H        1 ZINC000014965157    0.1500
@<TRIPOS>BOND
1     1     2     1
2     1     31    1
3     1     32    1
4     1     33    1
5     2     3     1
6     2     4     1
7     2     12    1
8     4     5     2
9     4     6     am
10    6     11    1
11    6     7     1
12    7     8     1
13    7     34    1
14    7     35    1
15    8     9     1
16    8     36    1
17    8     37    1
18    9     10    1
19    10    11    1
20    10    38    1
21    10    39    1
22    11    40    1
23    11    41    1
24    12    29    am
25    12    13    1
26    13    14    1
27    13    42    1
28    13    43    1
29    14    15    1
30    14    44    1
31    14    45    1
32    15    16    1
33    15    17    1
34    15    29    1
35    17    18    am
36    17    46    1
37    18    19    2
38    18    20    2
39    18    21    1
40    21    22    2
41    21    47    1
42    22    23    1
43    22    48    1
44    23    28    1
45    23    24    2
46    24    25    1
47    24    49    1
48    25    26    2
49    25    50    1
50    26    27    1
51    26    28    1
52    29    30    2
@<TRIPOS>SUBSTRUCTURE
1   ZINC000014965157 1     RESIDUE    1   A     ZIN   1
