@<TRIPOS>MOLECULE
ZINC000003943586
56    60    1     0     0
SMALL
USER_CHARGES
@<TRIPOS>ATOM
1      C1     -0.3883    1.6136    0.5044 C.3      1 ZINC000003943586   -0.1900
2      C2     -0.3220    0.0877    0.4134 C.3      1 ZINC000003943586    0.1200
3      H3      0.2737   -0.1990   -0.4532 H        1 ZINC000003943586    0.1100
4      O4      0.2803   -0.4345    1.5994 O.3      1 ZINC000003943586   -0.5500
5      C5     -1.7368   -0.4765    0.2689 C.3      1 ZINC000003943586   -0.2000
6      H6     -2.4274   -0.0871    1.0170 H        1 ZINC000003943586    0.1400
7      C7     -2.2747   -0.4165   -1.1460 C.2      1 ZINC000003943586    0.5200
8      O8     -2.5277    0.4865   -1.9155 O.2      1 ZINC000003943586   -0.4200
9      N9     -2.3631   -1.7743   -1.2151 N.am     1 ZINC000003943586   -0.4900
10     C10    -3.6342   -2.3527   -1.2614 C.2      1 ZINC000003943586    0.1300
11     C11    -4.4389   -2.3829   -2.4277 C.2      1 ZINC000003943586    0.5100
12     O12    -5.2829   -1.5139   -2.6124 O.co2    1 ZINC000003943586   -0.6500
13     O13    -4.2906   -3.2780   -3.2515 O.co2    1 ZINC000003943586   -0.6500
14     C14    -4.0157   -2.8818   -0.0759 C.2      1 ZINC000003943586   -0.1700
15     C15    -5.2943   -3.5358    0.1930 C.2      1 ZINC000003943586   -0.0400
16     C16    -5.7450   -3.9927    1.3779 C.2      1 ZINC000003943586   -0.0300
17     N17    -6.9780   -4.5786    1.4218 N.pl3    1 ZINC000003943586   -0.3900
18     C18    -7.8169   -5.1648    2.3549 C.2      1 ZINC000003943586    0.2100
19     N19    -8.9122   -5.5589    1.7850 N.2      1 ZINC000003943586   -0.4500
20     C20    -8.8636   -5.2609    0.4589 C.2      1 ZINC000003943586   -0.1000
21     C21    -9.8671   -5.5298   -0.5048 C.2      1 ZINC000003943586    0.4800
22     O22    -9.6588   -5.2967   -1.6824 O.2      1 ZINC000003943586   -0.4200
23     C23   -11.1674   -6.0934   -0.0811 C.ar     1 ZINC000003943586   -0.1400
24     C24   -12.2103   -6.2473   -1.0019 C.ar     1 ZINC000003943586    0.0500
25     C25   -13.4068   -6.7800   -0.5548 C.ar     1 ZINC000003943586   -0.1300
26     C26   -13.5328   -7.1399    0.7748 C.ar     1 ZINC000003943586    0.1300
27     N27   -12.5322   -6.9833    1.6207 N.ar     1 ZINC000003943586   -0.3300
28     C28   -12.7140   -7.3798    3.0192 C.3      1 ZINC000003943586    0.0300
29     C29   -12.3101   -8.8217    3.1890 C.2      1 ZINC000003943586    0.5000
30     N30   -12.3937   -9.4068    4.4003 N.am     1 ZINC000003943586   -0.8300
31     O31   -11.9098   -9.4557    2.2357 O.2      1 ZINC000003943586   -0.5200
32     C32   -11.3732   -6.4861    1.2423 C.ar     1 ZINC000003943586    0.1700
33     C33    -7.6420   -4.6420    0.2313 C.2      1 ZINC000003943586    0.0000
34     S34    -6.5860   -3.8901   -0.9690 S.3      1 ZINC000003943586    0.3000
35     C35    -2.8994   -2.6843    0.9240 C.3      1 ZINC000003943586   -0.0400
36     H36    -2.5601   -3.6455    1.3100 H        1 ZINC000003943586    0.1000
37     C37    -3.3627   -1.7833    2.0704 C.3      1 ZINC000003943586   -0.1500
38     C38    -1.7800   -2.0035    0.1254 C.3      1 ZINC000003943586    0.0800
39     H39    -0.8205   -2.5199    0.1526 H        1 ZINC000003943586    0.1400
40     H40     0.6196    2.0156    0.6074 H        1 ZINC000003943586    0.0700
41     H41    -0.8477    2.0119   -0.4002 H        1 ZINC000003943586    0.0700
42     H42    -0.9841    1.9003    1.3710 H        1 ZINC000003943586    0.0600
43     H43    -0.1977   -0.2176    2.4115 H        1 ZINC000003943586    0.3700
44     H44    -5.1456   -3.8981    2.2713 H        1 ZINC000003943586    0.1900
45     H45    -7.5912   -5.2773    3.4051 H        1 ZINC000003943586    0.2200
46     H46   -12.0846   -5.9575   -2.0347 H        1 ZINC000003943586    0.1900
47     H47   -14.2336   -6.9131   -1.2368 H        1 ZINC000003943586    0.1900
48     H48   -14.4655   -7.5555    1.1265 H        1 ZINC000003943586    0.2000
49     H49   -12.0942   -6.7512    3.6586 H        1 ZINC000003943586    0.1600
50     H50   -13.7611   -7.2606    3.2975 H        1 ZINC000003943586    0.1600
51     H51   -12.7138   -8.8998    5.1627 H        1 ZINC000003943586    0.4100
52     H52   -12.1337  -10.3349    4.5096 H        1 ZINC000003943586    0.4200
53     H53   -10.5778   -6.3731    1.9642 H        1 ZINC000003943586    0.2400
54     H54    -4.1183   -2.3037    2.6590 H        1 ZINC000003943586    0.0600
55     H55    -2.5121   -1.5381    2.7064 H        1 ZINC000003943586    0.0700
56     H56    -3.7878   -0.8661    1.6627 H        1 ZINC000003943586    0.0600
@<TRIPOS>BOND
1     1     2     1
2     1     40    1
3     1     41    1
4     1     42    1
5     2     3     1
6     2     4     1
7     2     5     1
8     4     43    1
9     5     6     1
10    5     38    1
11    5     7     1
12    7     8     2
13    7     9     am
14    9     38    1
15    9     10    1
16    10    11    1
17    10    14    2
18    11    12    ar
19    11    13    ar
20    14    15    1
21    14    35    1
22    15    34    1
23    15    16    2
24    16    17    1
25    16    44    1
26    17    33    1
27    17    18    1
28    18    19    2
29    18    45    1
30    19    20    1
31    20    21    1
32    20    33    2
33    21    22    2
34    21    23    1
35    23    32    ar
36    23    24    ar
37    24    25    ar
38    24    46    1
39    25    26    ar
40    25    47    1
41    26    27    ar
42    26    48    1
43    27    28    1
44    27    32    ar
45    28    29    1
46    28    49    1
47    28    50    1
48    29    30    am
49    29    31    2
50    30    51    1
51    30    52    1
52    32    53    1
53    33    34    1
54    35    36    1
55    35    37    1
56    35    38    1
57    37    54    1
58    37    55    1
59    37    56    1
60    38    39    1
@<TRIPOS>SUBSTRUCTURE
1   ZINC000003943586 1     RESIDUE    1   A     ZIN   1
