@<TRIPOS>MOLECULE
ZINC000003808299
  39   42    0    0    0
SMALL
USER_CHARGES
NO_NAME
@<TRIPOS>ATOM
    1 C1       -0.0178     1.4608     0.0101 C.3    1 <0>       0.1200
    2 N2        0.0021    -0.0041     0.0020 N.pl3  1 <0>      -0.3900
    3 N3        0.0056    -0.6906    -1.2204 N.2    1 <0>      -0.3400
    4 C4        0.0220    -1.9933    -1.3528 C.2    1 <0>       0.4500
    5 N5        0.0245    -2.5801    -2.6138 N.pl3  1 <0>      -0.8300
    6 C6        0.0383    -2.8237    -0.1347 C.2    1 <0>      -0.1600
    7 C7        0.0561    -4.1121     0.2556 C.2    1 <0>       0.1000
    8 N8        0.0636    -4.1853     1.6390 N.pl3  1 <0>      -0.4500
    9 C9        0.0827    -5.4337     2.4054 C.3    1 <0>       0.3100
   10 H10       0.6816    -5.3189     3.3089 H      1 <0>       0.1200
   11 O11       0.5853    -6.5191     1.5968 O.3    1 <0>      -0.3500
   12 C12       0.1142    -7.7394     2.1928 C.3    1 <0>       0.0500
   13 H13       0.8594    -8.1235     2.8894 H      1 <0>       0.1000
   14 C14      -0.1629    -8.7773     1.1033 C.3    1 <0>       0.0800
   15 O15       1.0664    -9.1516     0.4783 O.3    1 <0>      -0.5600
   16 C16      -1.1874    -7.4077     2.9482 C.3    1 <0>       0.0400
   17 H17      -2.0294    -7.9446     2.5114 H      1 <0>       0.0900
   18 O18      -1.0565    -7.7280     4.3347 O.3    1 <0>      -0.5400
   19 C19      -1.3591    -5.8790     2.7593 C.3    1 <0>       0.0800
   20 H20      -2.0427    -5.6628     1.9383 H      1 <0>       0.0900
   21 O21      -1.8071    -5.2629     3.9684 O.3    1 <0>      -0.5200
   22 C22       0.0508    -2.9377     2.1912 C.ar   1 <0>       0.3800
   23 N23       0.0497    -2.3363     3.3850 N.ar   1 <0>      -0.5500
   24 C24       0.0335    -1.0173     3.4564 C.ar   1 <0>       0.3600
   25 N25       0.0171    -0.1853     2.4196 N.ar   1 <0>      -0.5800
   26 C26       0.0227    -0.6887     1.1907 C.ar   1 <0>       0.4500
   27 C27       0.0346    -2.0695     1.1165 C.ar   1 <0>      -0.2900
   28 H28       1.0048     1.8381     0.0023 H      1 <0>       0.0600
   29 H29      -0.5450     1.8219    -0.8730 H      1 <0>       0.0800
   30 H30      -0.5280     1.8123     0.9069 H      1 <0>       0.0900
   31 H31       0.0140    -2.0232    -3.4079 H      1 <0>       0.4100
   32 H32       0.0367    -3.5463    -2.6991 H      1 <0>       0.4100
   33 H33       0.0631    -4.9621    -0.4106 H      1 <0>       0.1900
   34 H34      -0.6265    -9.6572     1.5493 H      1 <0>       0.0700
   35 H35      -0.8345    -8.3512     0.3580 H      1 <0>       0.0600
   36 H36       0.9663    -9.8085    -0.2243 H      1 <0>       0.3900
   37 H37      -0.8895    -8.6646     4.5079 H      1 <0>       0.3900
   38 H38      -2.6678    -5.5792     4.2754 H      1 <0>       0.3900
   39 H39       0.0332    -0.5767     4.4425 H      1 <0>       0.2000
@<TRIPOS>BOND
   1    1    2 1
   2    1   28 1
   3    1   29 1
   4    1   30 1
   5    2   26 1
   6    2    3 1
   7    3    4 2
   8    4    5 1
   9    4    6 1
  10    5   31 1
  11    5   32 1
  12    6   27 1
  13    6    7 2
  14    7    8 1
  15    7   33 1
  16    8    9 1
  17    8   22 1
  18    9   10 1
  19    9   19 1
  20    9   11 1
  21   11   12 1
  22   12   13 1
  23   12   14 1
  24   12   16 1
  25   14   15 1
  26   14   34 1
  27   14   35 1
  28   15   36 1
  29   16   17 1
  30   16   18 1
  31   16   19 1
  32   18   37 1
  33   19   20 1
  34   19   21 1
  35   21   38 1
  36   22   27 ar
  37   22   23 ar
  38   23   24 ar
  39   24   25 ar
  40   24   39 1
  41   25   26 ar
  42   26   27 ar
