@<TRIPOS>MOLECULE
ZINC000003936191
67    71    1     0     0
SMALL
USER_CHARGES
@<TRIPOS>ATOM
1      C1      2.4331    2.2724    0.8712 C.3      1 ZINC000003936191    0.0300
2      O2      2.0636    1.0026    0.3300 O.3      1 ZINC000003936191   -0.3800
3      C3      1.9234   -0.0283    1.3096 C.3      1 ZINC000003936191    0.0400
4      C4      1.5281   -1.3361    0.6209 C.3      1 ZINC000003936191    0.1300
5      O5      2.5126   -1.7007   -0.3486 O.3      1 ZINC000003936191   -0.3600
6      C6      3.8399   -1.7851    0.1742 C.3      1 ZINC000003936191    0.0200
7      C7      0.1409   -1.1900   -0.0504 C.3      1 ZINC000003936191   -0.1000
8      C8     -0.8057   -2.1795    0.6800 C.3      1 ZINC000003936191   -0.1200
9      C9     -0.1323   -2.3592    2.0472 C.3      1 ZINC000003936191   -0.0800
10     H10    -0.3121   -1.4898    2.6797 H        1 ZINC000003936191    0.0800
11     C11    -0.5084   -3.6394    2.7806 C.3      1 ZINC000003936191   -0.0500
12     H12    -0.3552   -4.4873    2.1130 H        1 ZINC000003936191    0.1000
13     C13    -1.9732   -3.5845    3.1808 C.3      1 ZINC000003936191   -0.1100
14     C14    -2.3093   -4.6498    4.2237 C.3      1 ZINC000003936191   -0.1000
15     C15    -1.4106   -4.4302    5.4146 C.2      1 ZINC000003936191    0.0400
16     C16    -1.8791   -4.5167    6.6794 C.2      1 ZINC000003936191   -0.2600
17     C17    -1.0489   -4.2171    7.7731 C.2      1 ZINC000003936191    0.3900
18     O18    -1.4401   -4.4458    8.9000 O.2      1 ZINC000003936191   -0.4800
19     C19     0.3171   -3.6179    7.5714 C.3      1 ZINC000003936191   -0.1600
20     C20     0.9700   -4.2186    6.3233 C.3      1 ZINC000003936191   -0.0800
21     C21    -0.0017   -4.1232    5.1706 C.2      1 ZINC000003936191   -0.1400
22     C22     0.4163   -3.7745    3.9635 C.2      1 ZINC000003936191   -0.0300
23     C23     1.9035   -3.5466    3.7780 C.3      1 ZINC000003936191   -0.0200
24     H24     2.3694   -3.4071    4.7535 H        1 ZINC000003936191    0.1000
25     C25     2.5099   -4.7520    3.1070 C.ar     1 ZINC000003936191   -0.0900
26     C26     3.7918   -4.6810    2.5914 C.ar     1 ZINC000003936191   -0.1200
27     C27     4.3528   -5.7806    1.9755 C.ar     1 ZINC000003936191   -0.1300
28     C28     3.6240   -6.9670    1.8734 C.ar     1 ZINC000003936191    0.0200
29     C29     4.2181   -8.1480    1.2159 C.2      1 ZINC000003936191   -0.0900
30     N30     3.5404   -9.2456    1.1229 N.2      1 ZINC000003936191   -0.3000
31     O31     4.1102  -10.3782    0.4924 O.3      1 ZINC000003936191   -0.6200
32     C32     2.3311   -7.0318    2.3962 C.ar     1 ZINC000003936191   -0.1100
33     C33     1.7842   -5.9264    3.0142 C.ar     1 ZINC000003936191   -0.1200
34     C34     2.1617   -2.3037    2.9120 C.3      1 ZINC000003936191   -0.1000
35     C35     1.3658   -2.4491    1.6537 C.3      1 ZINC000003936191   -0.0800
36     C36     1.6484   -3.8094    1.0129 C.3      1 ZINC000003936191   -0.1600
37     H37     3.3907    2.1840    1.3844 H        1 ZINC000003936191    0.0400
38     H38     2.5191    3.0002    0.0644 H        1 ZINC000003936191    0.0900
39     H39     1.6713    2.6018    1.5779 H        1 ZINC000003936191    0.0400
40     H40     2.8704   -0.1645    1.8319 H        1 ZINC000003936191    0.0500
41     H41     1.1510    0.2533    2.0253 H        1 ZINC000003936191    0.0600
42     H42     4.1023   -0.8418    0.6532 H        1 ZINC000003936191    0.0400
43     H43     3.8915   -2.5910    0.9062 H        1 ZINC000003936191    0.0500
44     H44     4.5382   -1.9867   -0.6381 H        1 ZINC000003936191    0.0800
45     H45    -0.2244   -0.1694    0.0641 H        1 ZINC000003936191    0.0700
46     H46     0.2079   -1.4475   -1.1074 H        1 ZINC000003936191    0.0800
47     H47    -1.8001   -1.7481    0.7941 H        1 ZINC000003936191    0.0700
48     H48    -0.8554   -3.1292    0.1474 H        1 ZINC000003936191    0.0700
49     H49    -2.1930   -2.6000    3.5937 H        1 ZINC000003936191    0.0700
50     H50    -2.5902   -3.7445    2.2966 H        1 ZINC000003936191    0.0800
51     H51    -3.3522   -4.5544    4.5258 H        1 ZINC000003936191    0.0800
52     H52    -2.1343   -5.6419    3.8074 H        1 ZINC000003936191    0.0900
53     H53    -2.9017   -4.8189    6.8514 H        1 ZINC000003936191    0.1300
54     H54     0.2246   -2.5388    7.4480 H        1 ZINC000003936191    0.1000
55     H55     0.9376   -3.8297    8.4422 H        1 ZINC000003936191    0.0900
56     H56     1.8771   -3.6641    6.0829 H        1 ZINC000003936191    0.0900
57     H57     1.2170   -5.2641    6.5077 H        1 ZINC000003936191    0.0800
58     H58     4.3545   -3.7626    2.6711 H        1 ZINC000003936191    0.1100
59     H59     5.3533   -5.7237    1.5728 H        1 ZINC000003936191    0.1100
60     H60     5.2186   -8.0953    0.8127 H        1 ZINC000003936191    0.0700
61     H61     1.7619   -7.9466    2.3205 H        1 ZINC000003936191    0.1200
62     H62     0.7843   -5.9752    3.4194 H        1 ZINC000003936191    0.1100
63     H63     1.8585   -1.4062    3.4512 H        1 ZINC000003936191    0.0700
64     H64     3.2191   -2.2438    2.6547 H        1 ZINC000003936191    0.0700
65     H65     1.1662   -4.5934    1.5969 H        1 ZINC000003936191    0.0900
66     H66     1.2561   -3.8206   -0.0040 H        1 ZINC000003936191    0.0500
67     H67     2.7242   -3.9835    0.9893 H        1 ZINC000003936191    0.0800
@<TRIPOS>BOND
1     1     2     1
2     1     37    1
3     1     38    1
4     1     39    1
5     2     3     1
6     3     4     1
7     3     40    1
8     3     41    1
9     4     35    1
10    4     5     1
11    4     7     1
12    5     6     1
13    6     42    1
14    6     43    1
15    6     44    1
16    7     8     1
17    7     45    1
18    7     46    1
19    8     9     1
20    8     47    1
21    8     48    1
22    9     10    1
23    9     35    1
24    9     11    1
25    11    12    1
26    11    22    1
27    11    13    1
28    13    14    1
29    13    49    1
30    13    50    1
31    14    15    1
32    14    51    1
33    14    52    1
34    15    21    1
35    15    16    2
36    16    17    1
37    16    53    1
38    17    18    2
39    17    19    1
40    19    20    1
41    19    54    1
42    19    55    1
43    20    21    1
44    20    56    1
45    20    57    1
46    21    22    2
47    22    23    1
48    23    24    1
49    23    25    1
50    23    34    1
51    25    33    ar
52    25    26    ar
53    26    27    ar
54    26    58    1
55    27    28    ar
56    27    59    1
57    28    29    1
58    28    32    ar
59    29    30    2
60    29    60    1
61    30    31    1
62    32    33    ar
63    32    61    1
64    33    62    1
65    34    35    1
66    34    63    1
67    34    64    1
68    35    36    1
69    36    65    1
70    36    66    1
71    36    67    1
@<TRIPOS>SUBSTRUCTURE
1   ZINC000003936191 1     RESIDUE    1   A     ZIN   1
