@<TRIPOS>MOLECULE
ZINC000003788800
14    14    1     0     0
SMALL
USER_CHARGES
@<TRIPOS>ATOM
1      C1     -0.0178    1.4608    0.0101 C.3      1 ZINC000003788800    0.1300
2      N2      0.0021   -0.0041    0.0020 N.am     1 ZINC000003788800   -0.6600
3      C3      0.0088   -0.8106   -1.0770 C.2      1 ZINC000003788800    0.6600
4      O4     -0.0012   -0.4093   -2.2258 O.2      1 ZINC000003788800   -0.5800
5      N5      0.0282   -2.1056   -0.7373 N.2      1 ZINC000003788800   -0.6700
6      C6      0.0361   -2.2835    0.5557 C.2      1 ZINC000003788800    0.4300
7      O7      0.0551   -3.4572    1.2080 O.3      1 ZINC000003788800   -0.6400
8      C8      0.0254   -0.8995    1.1730 C.3      1 ZINC000003788800    0.2600
9      H9     -0.8699   -0.7554    1.7778 H        1 ZINC000003788800    0.0800
10     O10     1.2008   -0.6889    1.9578 O.3      1 ZINC000003788800   -0.5700
11     H11     1.0048    1.8381    0.0023 H        1 ZINC000003788800    0.0400
12     H12    -0.5450    1.8219   -0.8730 H        1 ZINC000003788800    0.0700
13     H13    -0.5280    1.8123    0.9069 H        1 ZINC000003788800    0.0600
14     H14     1.2922   -1.3005    2.7013 H        1 ZINC000003788800    0.3900
@<TRIPOS>BOND
1     1     2     1
2     1     11    1
3     1     12    1
4     1     13    1
5     2     8     1
6     2     3     am
7     3     4     2
8     3     5     1
9     5     6     2
10    6     7     1
11    6     8     1
12    8     9     1
13    8     10    1
14    10    14    1
@<TRIPOS>SUBSTRUCTURE
1   ZINC000003788800 1     RESIDUE    1   A     ZIN   1
