@<TRIPOS>MOLECULE
ZINC000000006170
41    45    1     0     0
SMALL
USER_CHARGES
@<TRIPOS>ATOM
1      N1     -0.0166    1.3712    0.0096 N.pl3    1 ZINC000000006170   -0.8000
2      C2      0.0021   -0.0041    0.0020 C.2      1 ZINC000000006170    0.6900
3      N3     -1.1380   -0.6500    0.0040 N.2      1 ZINC000000006170   -0.5600
4      C4     -1.2022   -1.9888   -0.0034 C.2      1 ZINC000000006170    0.3700
5      C5     -0.0163   -2.7388   -0.0137 C.2      1 ZINC000000006170   -0.2700
6      C6     -0.3805   -4.0972   -0.0192 C.2      1 ZINC000000006170    0.1300
7      N7     -1.6830   -4.1755   -0.0129 N.2      1 ZINC000000006170   -0.2600
8      N8     -2.2282   -2.8856   -0.0029 N.pl3    1 ZINC000000006170   -0.3500
9      C9     -3.6558   -2.5569    0.0063 C.3      1 ZINC000000006170    0.1400
10     C10    -4.1454   -2.4511    1.4520 C.3      1 ZINC000000006170   -0.0900
11     C11    -5.6140   -2.1130    1.4615 C.ar     1 ZINC000000006170   -0.0900
12     C12    -6.0189   -0.7913    1.4657 C.ar     1 ZINC000000006170   -0.1100
13     C13    -7.3660   -0.4812    1.4744 C.ar     1 ZINC000000006170   -0.1200
14     C14    -8.3081   -1.4927    1.4785 C.ar     1 ZINC000000006170   -0.1200
15     C15    -7.9032   -2.8144    1.4734 C.ar     1 ZINC000000006170   -0.1200
16     C16    -6.5561   -3.1245    1.4604 C.ar     1 ZINC000000006170   -0.1100
17     C17     1.2550   -2.0141   -0.0159 C.2      1 ZINC000000006170    0.4100
18     N18     2.5215   -2.3745   -0.0237 N.2      1 ZINC000000006170   -0.5200
19     C19     3.2994   -1.2845   -0.0209 C.2      1 ZINC000000006170    0.3500
20     C20     4.7773   -1.2879   -0.0276 C.2      1 ZINC000000006170    0.0400
21     C21     5.5776   -0.1891   -0.0193 C.2      1 ZINC000000006170   -0.1400
22     C22     6.9072   -0.6553   -0.0298 C.2      1 ZINC000000006170   -0.2200
23     C23     6.8533   -2.0017   -0.0438 C.2      1 ZINC000000006170    0.0000
24     O24     5.5652   -2.3804   -0.0370 O.3      1 ZINC000000006170   -0.1500
25     N25     2.5378   -0.2067   -0.0112 N.2      1 ZINC000000006170   -0.3000
26     N26     1.2072   -0.6442   -0.0129 N.pl3    1 ZINC000000006170   -0.3800
27     H27     0.8168    1.8675    0.0043 H        1 ZINC000000006170    0.4300
28     H28    -0.8631    1.8447    0.0162 H        1 ZINC000000006170    0.4300
29     H29     0.3023   -4.9339   -0.0274 H        1 ZINC000000006170    0.2000
30     H30    -3.8128   -1.6051   -0.5011 H        1 ZINC000000006170    0.1000
31     H31    -4.2122   -3.3397   -0.5093 H        1 ZINC000000006170    0.1000
32     H32    -3.9884   -3.4029    1.9594 H        1 ZINC000000006170    0.0800
33     H33    -3.5890   -1.6683    1.9676 H        1 ZINC000000006170    0.0800
34     H34    -5.2829   -0.0010    1.4625 H        1 ZINC000000006170    0.1200
35     H35    -7.6824    0.5515    1.4784 H        1 ZINC000000006170    0.1200
36     H36    -9.3606   -1.2504    1.4861 H        1 ZINC000000006170    0.1200
37     H37    -8.6392   -3.6047    1.4770 H        1 ZINC000000006170    0.1200
38     H38    -6.2397   -4.1571    1.4564 H        1 ZINC000000006170    0.1200
39     H39     5.2564    0.8420   -0.0071 H        1 ZINC000000006170    0.1600
40     H40     7.8006   -0.0483   -0.0277 H        1 ZINC000000006170    0.1600
41     H41     7.7049   -2.6658   -0.0544 H        1 ZINC000000006170    0.2100
@<TRIPOS>BOND
1     1     2     1
2     1     27    1
3     1     28    1
4     2     26    1
5     2     3     2
6     3     4     1
7     4     8     1
8     4     5     2
9     5     6     1
10    5     17    1
11    6     7     2
12    6     29    1
13    7     8     1
14    8     9     1
15    9     10    1
16    9     30    1
17    9     31    1
18    10    11    1
19    10    32    1
20    10    33    1
21    11    16    ar
22    11    12    ar
23    12    13    ar
24    12    34    1
25    13    14    ar
26    13    35    1
27    14    15    ar
28    14    36    1
29    15    16    ar
30    15    37    1
31    16    38    1
32    17    26    1
33    17    18    2
34    18    19    1
35    19    20    1
36    19    25    2
37    20    24    1
38    20    21    2
39    21    22    1
40    21    39    1
41    22    23    2
42    22    40    1
43    23    24    1
44    23    41    1
45    25    26    1
@<TRIPOS>SUBSTRUCTURE
1   ZINC000000006170 1     RESIDUE    1   A     ZIN   1
