@<TRIPOS>MOLECULE
ZINC000001484689
  20   21    0    0    0
SMALL
USER_CHARGES
NO_NAME
@<TRIPOS>ATOM
    1 O1        0.0021    -0.0041     0.0020 O.2    1 <0>      -0.4400
    2 C2       -0.0144     1.2105     0.0087 C.2    1 <0>       0.5200
    3 N3       -1.1873     1.8755     0.0291 N.am   1 <0>      -0.6300
    4 C4       -1.2004     3.2677     0.0372 C.ar   1 <0>       0.1600
    5 C5       -2.4145     3.9446     0.0583 C.ar   1 <0>      -0.0500
    6 C6       -2.4360     5.3251     0.0659 C.ar   1 <0>      -0.0600
    7 Br7      -4.0898     6.2417     0.0940 Br     1 <0>       0.0300
    8 C8       -1.2493     6.0414     0.0535 C.ar   1 <0>      -0.0300
    9 Br9      -1.2895     7.9320     0.0647 Br     1 <0>       0.0400
   10 C10      -0.0380     5.3790     0.0335 C.ar   1 <0>      -0.0100
   11 N11       1.2260     6.1491     0.0208 N.pl3  1 <0>       0.0100
   12 O12       1.7603     6.4599     1.0703 O.2    1 <0>      -0.1000
   13 O13       1.7319     6.4719    -1.0391 O.2    1 <0>      -0.1000
   14 C14      -0.0050     3.9892     0.0247 C.ar   1 <0>       0.1900
   15 N15       1.2206     3.3289     0.0045 N.am   1 <0>      -0.6400
   16 C16       1.2624     1.9811     0.0006 C.2    1 <0>       0.5200
   17 O17       2.3292     1.4005    -0.0165 O.2    1 <0>      -0.4300
   18 H18      -2.0230     1.3833     0.0379 H      1 <0>       0.4400
   19 H19      -3.3413     3.3903     0.0683 H      1 <0>       0.1800
   20 H20       2.0455     3.8391    -0.0037 H      1 <0>       0.4300
@<TRIPOS>BOND
   1    1    2 2
   2    2   16 1
   3    2    3 am
   4    3    4 1
   5    3   18 1
   6    4   14 ar
   7    4    5 ar
   8    5    6 ar
   9    5   19 1
  10    6    7 1
  11    6    8 ar
  12    8    9 1
  13    8   10 ar
  14   10   11 1
  15   10   14 ar
  16   11   12 2
  17   11   13 2
  18   14   15 1
  19   15   16 am
  20   15   20 1
  21   16   17 2
