@<TRIPOS>MOLECULE
ZINC000001536106
60    63    1     0     0
SMALL
USER_CHARGES
@<TRIPOS>ATOM
1      C1     -5.4952   -4.5054   -6.7222 C.3      1 ZINC000001536106   -0.1500
2      C2     -5.0011   -4.5332   -5.2745 C.3      1 ZINC000001536106   -0.1300
3      C3     -5.7936   -3.5205   -4.4455 C.3      1 ZINC000001536106   -0.1100
4      C4     -5.2994   -3.5482   -2.9978 C.3      1 ZINC000001536106   -0.0500
5      C5     -6.0800   -2.5507   -2.1813 C.2      1 ZINC000001536106    0.2900
6      N6     -7.0230   -1.7855   -2.6280 N.2      1 ZINC000001536106   -0.2900
7      N7     -7.4946   -1.0065   -1.5623 N.am     1 ZINC000001536106   -0.4600
8      C8     -8.5615   -0.0045   -1.6247 C.3      1 ZINC000001536106    0.1600
9      C9     -7.9593    1.3615   -1.9597 C.3      1 ZINC000001536106   -0.1400
10     C10    -9.0735    2.4080   -2.0249 C.3      1 ZINC000001536106   -0.1200
11     C11    -8.4713    3.7740   -2.3599 C.3      1 ZINC000001536106   -0.1500
12     C12    -6.7872   -1.3546   -0.4671 C.2      1 ZINC000001536106    0.6500
13     O13    -6.9181   -0.8933    0.6526 O.2      1 ZINC000001536106   -0.5600
14     N14    -5.9068   -2.3046   -0.8411 N.am     1 ZINC000001536106   -0.5400
15     C15    -4.9355   -2.9659    0.0338 C.3      1 ZINC000001536106    0.1700
16     C16    -3.6430   -2.1911    0.0258 C.ar     1 ZINC000001536106   -0.1200
17     C17    -3.4398   -1.1806    0.9485 C.ar     1 ZINC000001536106   -0.1200
18     C18    -2.2584   -0.4674    0.9457 C.ar     1 ZINC000001536106   -0.1100
19     C19    -1.2687   -0.7668    0.0105 C.ar     1 ZINC000001536106   -0.0400
20     C20     0.0021   -0.0041    0.0020 C.ar     1 ZINC000001536106   -0.0400
21     C21    -0.0168    1.3876    0.0097 C.ar     1 ZINC000001536106   -0.1100
22     C22     1.1693    2.0943    0.0021 C.ar     1 ZINC000001536106   -0.1400
23     C23     2.3823    1.4272   -0.0130 C.ar     1 ZINC000001536106   -0.1200
24     C24     2.4204    0.0476   -0.0208 C.ar     1 ZINC000001536106   -0.1000
25     C25     1.2332   -0.6818   -0.0134 C.ar     1 ZINC000001536106    0.0500
26     C26     1.2683   -2.1600   -0.0221 C.2      1 ZINC000001536106    0.0700
27     N27     0.2185   -2.9840   -0.0112 N.2      1 ZINC000001536106   -0.3500
28     N28     0.6730   -4.1903   -0.0282 N.2      1 ZINC000001536106   -0.1900
29     N29     1.9595   -4.1596   -0.0400 N.2      1 ZINC000001536106   -0.1900
30     N30     2.3562   -2.9330   -0.0367 N.pl3    1 ZINC000001536106   -0.3700
31     C31    -1.4814   -1.7827   -0.9203 C.ar     1 ZINC000001536106    0.0000
32     C32    -2.6646   -2.4927   -0.9045 C.ar     1 ZINC000001536106   -0.1100
33     H33    -4.9306   -5.2269   -7.3128 H        1 ZINC000001536106    0.0500
34     H34    -6.5541   -4.7627   -6.7497 H        1 ZINC000001536106    0.0500
35     H35    -5.3531   -3.5069   -7.1356 H        1 ZINC000001536106    0.0500
36     H36    -3.9422   -4.2760   -5.2470 H        1 ZINC000001536106    0.0700
37     H37    -5.1432   -5.5317   -4.8611 H        1 ZINC000001536106    0.0600
38     H38    -6.8524   -3.7777   -4.4730 H        1 ZINC000001536106    0.0700
39     H39    -5.6514   -2.5220   -4.8589 H        1 ZINC000001536106    0.0700
40     H40    -4.2405   -3.2910   -2.9703 H        1 ZINC000001536106    0.1000
41     H41    -5.4416   -4.5467   -2.5844 H        1 ZINC000001536106    0.1000
42     H42    -9.2784   -0.2847   -2.3965 H        1 ZINC000001536106    0.0900
43     H43    -9.0674    0.0480   -0.6607 H        1 ZINC000001536106    0.0900
44     H44    -7.2424    1.6417   -1.1880 H        1 ZINC000001536106    0.0700
45     H45    -7.4534    1.3090   -2.9238 H        1 ZINC000001536106    0.0700
46     H46    -9.7904    2.1278   -2.7966 H        1 ZINC000001536106    0.0600
47     H47    -9.5794    2.4605   -1.0608 H        1 ZINC000001536106    0.0600
48     H48    -7.7544    4.0542   -1.5881 H        1 ZINC000001536106    0.0500
49     H49    -7.9654    3.7215   -3.3239 H        1 ZINC000001536106    0.0500
50     H50    -9.2651    4.5195   -2.4063 H        1 ZINC000001536106    0.0500
51     H51    -4.7540   -3.9790   -0.3251 H        1 ZINC000001536106    0.1000
52     H52    -5.3292   -3.0054    1.0494 H        1 ZINC000001536106    0.1000
53     H53    -4.2073   -0.9493    1.6722 H        1 ZINC000001536106    0.1200
54     H54    -2.1007    0.3210    1.6668 H        1 ZINC000001536106    0.1100
55     H55    -0.9594    1.9147    0.0170 H        1 ZINC000001536106    0.1200
56     H56     1.1507    3.1741    0.0081 H        1 ZINC000001536106    0.1200
57     H57     3.3042    1.9897   -0.0187 H        1 ZINC000001536106    0.1200
58     H58     3.3701   -0.4665   -0.0329 H        1 ZINC000001536106    0.1300
59     H59    -0.7199   -2.0163   -1.6497 H        1 ZINC000001536106    0.1200
60     H60    -2.8290   -3.2824   -1.6227 H        1 ZINC000001536106    0.1100
@<TRIPOS>BOND
1     1     2     1
2     1     33    1
3     1     34    1
4     1     35    1
5     2     3     1
6     2     36    1
7     2     37    1
8     3     4     1
9     3     38    1
10    3     39    1
11    4     5     1
12    4     40    1
13    4     41    1
14    5     14    1
15    5     6     2
16    6     7     1
17    7     8     1
18    7     12    am
19    8     9     1
20    8     42    1
21    8     43    1
22    9     10    1
23    9     44    1
24    9     45    1
25    10    11    1
26    10    46    1
27    10    47    1
28    11    48    1
29    11    49    1
30    11    50    1
31    12    13    2
32    12    14    am
33    14    15    1
34    15    16    1
35    15    51    1
36    15    52    1
37    16    32    ar
38    16    17    ar
39    17    18    ar
40    17    53    1
41    18    19    ar
42    18    54    1
43    19    20    1
44    19    31    ar
45    20    25    ar
46    20    21    ar
47    21    22    ar
48    21    55    1
49    22    23    ar
50    22    56    1
51    23    24    ar
52    23    57    1
53    24    25    ar
54    24    58    1
55    25    26    1
56    26    30    1
57    26    27    2
58    27    28    1
59    28    29    2
60    29    30    1
61    31    32    ar
62    31    59    1
63    32    60    1
@<TRIPOS>SUBSTRUCTURE
1   ZINC000001536106 1     RESIDUE    1   A     ZIN   1
