@<TRIPOS>MOLECULE
ZINC000003974804
86    90    1     0     0
SMALL
USER_CHARGES
@<TRIPOS>ATOM
1      C1     -0.1212    1.6724   -0.2731 C.3      1 ZINC000003974804    0.1000
2      N2     -0.1429    0.2085   -0.2208 N.am     1 ZINC000003974804   -0.6300
3      C3     -0.1011   -0.4789    1.0723 C.3      1 ZINC000003974804    0.0700
4      C4     -0.2013   -0.5058   -1.3622 C.2      1 ZINC000003974804    0.7000
5      O5     -0.2360    0.0647   -2.4353 O.2      1 ZINC000003974804   -0.5600
6      N6     -0.2213   -1.8526   -1.3140 N.am     1 ZINC000003974804   -0.7500
7      C7     -0.3966   -2.6271   -2.5451 C.3      1 ZINC000003974804    0.2400
8      C8     -1.6564   -2.1847   -3.2437 C.ar     1 ZINC000003974804   -0.0900
9      C9     -1.7883   -2.3608   -4.6084 C.ar     1 ZINC000003974804   -0.1100
10     C10    -2.9439   -1.9550   -5.2493 C.ar     1 ZINC000003974804   -0.1100
11     C11    -3.9679   -1.3734   -4.5253 C.ar     1 ZINC000003974804   -0.1100
12     C12    -3.8364   -1.1981   -3.1604 C.ar     1 ZINC000003974804   -0.1100
13     C13    -2.6825   -1.6078   -2.5189 C.ar     1 ZINC000003974804   -0.0900
14     C14     0.8067   -2.4044   -3.4659 C.3      1 ZINC000003974804   -0.1600
15     C15     2.0705   -2.9282   -2.7803 C.3      1 ZINC000003974804    0.0000
16     N16     1.9229   -4.3622   -2.5037 N.4      1 ZINC000003974804   -0.3800
17     H17     1.7318   -4.8519   -3.3649 H        1 ZINC000003974804    0.4200
18     C18     3.1668   -4.8764   -1.9152 C.3      1 ZINC000003974804   -0.0100
19     C19     3.0600   -6.3928   -1.7416 C.3      1 ZINC000003974804   -0.1700
20     C20     4.3555   -6.9284   -1.1287 C.3      1 ZINC000003974804   -0.1100
21     C21     4.2060   -8.4248   -0.8470 C.3      1 ZINC000003974804   -0.0200
22     C22     4.0866   -9.1724   -2.1500 C.ar     1 ZINC000003974804   -0.0600
23     C23     4.2707   -8.5070   -3.3475 C.ar     1 ZINC000003974804   -0.1100
24     C24     4.1615   -9.1917   -4.5435 C.ar     1 ZINC000003974804   -0.1000
25     C25     3.8679  -10.5432   -4.5423 C.ar     1 ZINC000003974804   -0.0300
26     Cl26    3.7313  -11.4036   -6.0439 Cl       1 ZINC000003974804   -0.0400
27     C27     3.6835  -11.2099   -3.3426 C.ar     1 ZINC000003974804   -0.0200
28     Cl28    3.3150  -12.9063   -3.3394 Cl       1 ZINC000003974804   -0.0300
29     C29     3.7987  -10.5246   -2.1468 C.ar     1 ZINC000003974804   -0.0900
30     C30     2.9511   -8.6629   -0.0039 C.3      1 ZINC000003974804   -0.1100
31     C31     3.0573   -7.8772    1.3051 C.3      1 ZINC000003974804   -0.1400
32     C32     4.2723   -8.3723    2.0960 C.3      1 ZINC000003974804    0.0900
33     N33     5.4628   -8.2819    1.2397 N.am     1 ZINC000003974804   -0.6100
34     C34     6.5606   -7.6210    1.6575 C.2      1 ZINC000003974804    0.5600
35     O35     7.4959   -7.4557    0.8990 O.2      1 ZINC000003974804   -0.5300
36     C36     6.6272   -7.0970    3.0384 C.ar     1 ZINC000003974804   -0.1400
37     C37     6.0682   -7.8230    4.0913 C.ar     1 ZINC000003974804   -0.0900
38     C38     6.1341   -7.3287    5.3775 C.ar     1 ZINC000003974804   -0.1200
39     C39     6.7524   -6.1159    5.6249 C.ar     1 ZINC000003974804   -0.0900
40     C40     7.3081   -5.3910    4.5857 C.ar     1 ZINC000003974804   -0.1200
41     C41     7.2545   -5.8770    3.2956 C.ar     1 ZINC000003974804   -0.0700
42     C42     5.4340   -8.9260   -0.0805 C.3      1 ZINC000003974804    0.1200
43     C43     0.8155   -4.5768   -1.5645 C.3      1 ZINC000003974804   -0.0100
44     C44    -0.4966   -4.1165   -2.2033 C.3      1 ZINC000003974804   -0.1500
45     H45     0.9109    2.0187   -0.3282 H        1 ZINC000003974804    0.0600
46     H46    -0.6661    2.0126   -1.1538 H        1 ZINC000003974804    0.0800
47     H47    -0.5922    2.0751    0.6236 H        1 ZINC000003974804    0.0700
48     H48    -0.0563    0.2579    1.8742 H        1 ZINC000003974804    0.0900
49     H49    -0.9971   -1.0886    1.1887 H        1 ZINC000003974804    0.0600
50     H50     0.7811   -1.1176    1.1159 H        1 ZINC000003974804    0.0500
51     H51    -0.1196   -2.3091   -0.4642 H        1 ZINC000003974804    0.4000
52     H52    -0.9883   -2.8152   -5.1741 H        1 ZINC000003974804    0.1200
53     H53    -3.0467   -2.0919   -6.3156 H        1 ZINC000003974804    0.1300
54     H54    -4.8705   -1.0557   -5.0261 H        1 ZINC000003974804    0.1300
55     H55    -4.6363   -0.7434   -2.5949 H        1 ZINC000003974804    0.1200
56     H56    -2.5798   -1.4709   -1.4526 H        1 ZINC000003974804    0.1100
57     H57     0.6522   -2.9399   -4.4026 H        1 ZINC000003974804    0.1000
58     H58     0.9176   -1.3392   -3.6688 H        1 ZINC000003974804    0.1400
59     H59     2.9291   -2.7711   -3.4331 H        1 ZINC000003974804    0.1300
60     H60     2.2241   -2.3919   -1.8439 H        1 ZINC000003974804    0.1300
61     H61     4.0035   -4.6442   -2.5740 H        1 ZINC000003974804    0.1300
62     H62     3.3290   -4.4100   -0.9435 H        1 ZINC000003974804    0.1300
63     H63     2.2233   -6.6250   -1.0828 H        1 ZINC000003974804    0.0900
64     H64     2.8978   -6.8592   -2.7133 H        1 ZINC000003974804    0.1000
65     H65     5.1793   -6.7703   -1.8248 H        1 ZINC000003974804    0.0800
66     H66     4.5613   -6.4020   -0.1966 H        1 ZINC000003974804    0.0800
67     H67     4.4996   -7.4516   -3.3488 H        1 ZINC000003974804    0.1400
68     H68     4.3051   -8.6711   -5.4788 H        1 ZINC000003974804    0.1400
69     H69     3.6554  -11.0439   -1.2108 H        1 ZINC000003974804    0.1400
70     H70     2.0732   -8.3296   -0.5573 H        1 ZINC000003974804    0.0700
71     H71     2.8586   -9.7262    0.2172 H        1 ZINC000003974804    0.0800
72     H72     3.1747   -6.8163    1.0842 H        1 ZINC000003974804    0.0700
73     H73     2.1531   -8.0286    1.8947 H        1 ZINC000003974804    0.0800
74     H74     4.4104   -7.7506    2.9807 H        1 ZINC000003974804    0.1000
75     H75     4.1157   -9.4084    2.3958 H        1 ZINC000003974804    0.0800
76     H76     5.5847   -8.7695    3.8994 H        1 ZINC000003974804    0.1300
77     H77     5.7020   -7.8895    6.1931 H        1 ZINC000003974804    0.1300
78     H78     6.8010   -5.7331    6.6337 H        1 ZINC000003974804    0.1300
79     H79     7.7890   -4.4448    4.7855 H        1 ZINC000003974804    0.1300
80     H80     7.6890   -5.3104    2.4854 H        1 ZINC000003974804    0.1300
81     H81     5.3721  -10.0074    0.0418 H        1 ZINC000003974804    0.0800
82     H82     6.3386   -8.6698   -0.6319 H        1 ZINC000003974804    0.1000
83     H83     0.7476   -5.6368   -1.3197 H        1 ZINC000003974804    0.1400
84     H84     0.9959   -4.0054   -0.6540 H        1 ZINC000003974804    0.1200
85     H85    -1.3173   -4.2751   -1.5037 H        1 ZINC000003974804    0.1200
86     H86    -0.6781   -4.6875   -3.1138 H        1 ZINC000003974804    0.1100
@<TRIPOS>BOND
1     1     2     1
2     1     45    1
3     1     46    1
4     1     47    1
5     2     3     1
6     2     4     am
7     3     48    1
8     3     49    1
9     3     50    1
10    4     5     2
11    4     6     am
12    6     7     1
13    6     51    1
14    7     44    1
15    7     8     1
16    7     14    1
17    8     13    ar
18    8     9     ar
19    9     10    ar
20    9     52    1
21    10    11    ar
22    10    53    1
23    11    12    ar
24    11    54    1
25    12    13    ar
26    12    55    1
27    13    56    1
28    14    15    1
29    14    57    1
30    14    58    1
31    15    16    1
32    15    59    1
33    15    60    1
34    16    17    1
35    16    18    1
36    16    43    1
37    18    19    1
38    18    61    1
39    18    62    1
40    19    20    1
41    19    63    1
42    19    64    1
43    20    21    1
44    20    65    1
45    20    66    1
46    21    42    1
47    21    22    1
48    21    30    1
49    22    29    ar
50    22    23    ar
51    23    24    ar
52    23    67    1
53    24    25    ar
54    24    68    1
55    25    26    1
56    25    27    ar
57    27    28    1
58    27    29    ar
59    29    69    1
60    30    31    1
61    30    70    1
62    30    71    1
63    31    32    1
64    31    72    1
65    31    73    1
66    32    33    1
67    32    74    1
68    32    75    1
69    33    34    am
70    33    42    1
71    34    35    2
72    34    36    1
73    36    41    ar
74    36    37    ar
75    37    38    ar
76    37    76    1
77    38    39    ar
78    38    77    1
79    39    40    ar
80    39    78    1
81    40    41    ar
82    40    79    1
83    41    80    1
84    42    81    1
85    42    82    1
86    43    44    1
87    43    83    1
88    43    84    1
89    44    85    1
90    44    86    1
@<TRIPOS>SUBSTRUCTURE
1   ZINC000003974804 1     RESIDUE    1   A     ZIN   1
