@<TRIPOS>MOLECULE
ZINC000001536588
44    45    1     0     0
SMALL
USER_CHARGES
@<TRIPOS>ATOM
1      C1     -0.7331   -5.5300   -1.7632 C.3      1 ZINC000001536588   -0.1500
2      C2     -1.4130   -4.4562   -0.9114 C.3      1 ZINC000001536588    0.0400
3      O3     -0.5628   -3.3112   -0.8206 O.3      1 ZINC000001536588   -0.3700
4      C4     -1.1522   -2.2022   -0.1390 C.3      1 ZINC000001536588    0.2700
5      N5     -1.0963   -2.4319    1.3068 N.am     1 ZINC000001536588   -0.5400
6      C6      0.0760   -2.3110    1.9559 C.2      1 ZINC000001536588    0.7000
7      O7      1.0773   -2.0124    1.3342 O.2      1 ZINC000001536588   -0.5300
8      N8      0.1558   -2.5155    3.2839 N.am     1 ZINC000001536588   -0.6600
9      C9     -0.9454   -2.8472    3.9878 C.2      1 ZINC000001536588    0.5600
10     O10    -0.8741   -3.0321    5.1894 O.2      1 ZINC000001536588   -0.5000
11     C11    -2.1853   -2.9782    3.3171 C.2      1 ZINC000001536588   -0.2400
12     C12    -3.4310   -3.3480    4.0803 C.3      1 ZINC000001536588   -0.0200
13     C13    -3.2719   -4.7523    4.6665 C.3      1 ZINC000001536588   -0.1500
14     C14    -3.6515   -2.3442    5.2138 C.3      1 ZINC000001536588   -0.1600
15     C15    -2.2378   -2.7619    1.9853 C.2      1 ZINC000001536588    0.2000
16     C16    -3.5453   -2.8948    1.2478 C.3      1 ZINC000001536588   -0.0600
17     C17    -4.2469   -1.5613    1.2248 C.ar     1 ZINC000001536588   -0.0900
18     C18    -5.0182   -1.1674    2.3022 C.ar     1 ZINC000001536588   -0.1100
19     C19    -5.6618    0.0558    2.2811 C.ar     1 ZINC000001536588   -0.1100
20     C20    -5.5337    0.8853    1.1828 C.ar     1 ZINC000001536588   -0.1100
21     C21    -4.7616    0.4919    0.1057 C.ar     1 ZINC000001536588   -0.1100
22     C22    -4.1146   -0.7295    0.1286 C.ar     1 ZINC000001536588   -0.1200
23     H23    -1.3816   -6.4034   -1.8325 H        1 ZINC000001536588    0.0800
24     H24    -0.5457   -5.1365   -2.7623 H        1 ZINC000001536588    0.0700
25     H25     0.2123   -5.8152   -1.3018 H        1 ZINC000001536588    0.0700
26     H26    -2.3584   -4.1710   -1.3729 H        1 ZINC000001536588    0.0600
27     H27    -1.6004   -4.8497    0.0876 H        1 ZINC000001536588    0.0500
28     H28    -0.6042   -1.2923   -0.3838 H        1 ZINC000001536588    0.1300
29     H29    -2.1914   -2.0952   -0.4499 H        1 ZINC000001536588    0.1000
30     H30     1.0090   -2.4242    3.7363 H        1 ZINC000001536588    0.4300
31     H31    -4.2882   -3.3302    3.4073 H        1 ZINC000001536588    0.0800
32     H32    -2.4147   -4.7701    5.3395 H        1 ZINC000001536588    0.0700
33     H33    -4.1729   -5.0198    5.2186 H        1 ZINC000001536588    0.0600
34     H34    -3.1148   -5.4674    3.8590 H        1 ZINC000001536588    0.0500
35     H35    -3.7648   -1.3438    4.7962 H        1 ZINC000001536588    0.0500
36     H36    -4.5525   -2.6117    5.7658 H        1 ZINC000001536588    0.0600
37     H37    -2.7943   -2.3620    5.8868 H        1 ZINC000001536588    0.0800
38     H38    -3.3543   -3.2225    0.2259 H        1 ZINC000001536588    0.0900
39     H39    -4.1744   -3.6277    1.7528 H        1 ZINC000001536588    0.1200
40     H40    -5.1183   -1.8155    3.1603 H        1 ZINC000001536588    0.1300
41     H41    -6.2649    0.3632    3.1226 H        1 ZINC000001536588    0.1300
42     H42    -6.0371    1.8407    1.1660 H        1 ZINC000001536588    0.1300
43     H43    -4.6618    1.1398   -0.7525 H        1 ZINC000001536588    0.1300
44     H44    -3.5114   -1.0369   -0.7128 H        1 ZINC000001536588    0.1200
@<TRIPOS>BOND
1     1     2     1
2     1     23    1
3     1     24    1
4     1     25    1
5     2     3     1
6     2     26    1
7     2     27    1
8     3     4     1
9     4     5     1
10    4     28    1
11    4     29    1
12    5     15    1
13    5     6     am
14    6     7     2
15    6     8     am
16    8     9     am
17    8     30    1
18    9     10    2
19    9     11    1
20    11    12    1
21    11    15    2
22    12    13    1
23    12    14    1
24    12    31    1
25    13    32    1
26    13    33    1
27    13    34    1
28    14    35    1
29    14    36    1
30    14    37    1
31    15    16    1
32    16    17    1
33    16    38    1
34    16    39    1
35    17    22    ar
36    17    18    ar
37    18    19    ar
38    18    40    1
39    19    20    ar
40    19    41    1
41    20    21    ar
42    20    42    1
43    21    22    ar
44    21    43    1
45    22    44    1
@<TRIPOS>SUBSTRUCTURE
1   ZINC000001536588 1     RESIDUE    1   A     ZIN   1
