@<TRIPOS>MOLECULE
ZINC000084654490
69    72    1     0     0
SMALL
USER_CHARGES
@<TRIPOS>ATOM
1      C1     -0.7923    2.0191   -1.8674 C.3      1 ZINC000084654490    0.0300
2      N2     -0.4365    0.6664   -1.4184 N.3      1 ZINC000084654490   -0.6700
3      C3      0.1407   -0.1185   -2.5178 C.3      1 ZINC000084654490    0.0700
4      H4     -0.3462    0.1548   -3.4540 H        1 ZINC000084654490    0.1100
5      C5      1.6396    0.1712   -2.6191 C.3      1 ZINC000084654490   -0.1800
6      C6     -0.0703   -1.5867   -2.2517 C.2      1 ZINC000084654490    0.5200
7      O7     -0.6450   -1.9441   -1.2452 O.2      1 ZINC000084654490   -0.5100
8      N8      0.3795   -2.5026   -3.1321 N.am     1 ZINC000084654490   -0.7200
9      C9      0.1743   -3.9299   -2.8734 C.3      1 ZINC000084654490    0.1400
10     H10     0.2458   -4.1190   -1.8023 H        1 ZINC000084654490    0.1100
11     C11     1.2289   -4.7281   -3.5959 C.2      1 ZINC000084654490    0.5400
12     O12     1.5694   -4.4097   -4.7155 O.2      1 ZINC000084654490   -0.5100
13     N13     1.7936   -5.7957   -2.9978 N.am     1 ZINC000084654490   -0.6000
14     C14     1.4081   -6.3500   -1.6872 C.3      1 ZINC000084654490    0.0900
15     C15     1.8598   -7.8311   -1.7348 C.3      1 ZINC000084654490   -0.1300
16     C16     3.1879   -7.7264   -2.5300 C.3      1 ZINC000084654490   -0.1300
17     C17     2.8918   -6.6043   -3.5471 C.3      1 ZINC000084654490    0.1300
18     H18     3.7756   -5.9799   -3.6780 H        1 ZINC000084654490    0.1100
19     C19     2.4881   -7.2044   -4.8692 C.2      1 ZINC000084654490    0.5000
20     O20     1.3883   -6.9774   -5.3277 O.2      1 ZINC000084654490   -0.4600
21     N21     3.3490   -7.9933   -5.5421 N.am     1 ZINC000084654490   -0.6200
22     C22     2.9762   -8.5475   -6.7630 C.2      1 ZINC000084654490    0.0400
23     C23     3.7205   -9.3755   -7.5795 C.2      1 ZINC000084654490   -0.0100
24     C24     5.0973   -9.8064   -7.2381 C.ar     1 ZINC000084654490   -0.0100
25     C25     5.9544   -8.9395   -6.5617 C.ar     1 ZINC000084654490   -0.1200
26     C26     7.2349   -9.3461   -6.2466 C.ar     1 ZINC000084654490   -0.1100
27     C27     7.6686  -10.6111   -6.6006 C.ar     1 ZINC000084654490   -0.1100
28     C28     6.8226  -11.4757   -7.2718 C.ar     1 ZINC000084654490   -0.1100
29     C29     5.5380  -11.0822   -7.5871 C.ar     1 ZINC000084654490   -0.0900
30     N30     3.1109   -9.7542   -8.6875 N.2      1 ZINC000084654490   -0.1900
31     N31     1.9207   -9.3392   -8.9104 N.2      1 ZINC000084654490   -0.2400
32     S32     1.4783   -8.3617   -7.5945 S.3      1 ZINC000084654490    0.3600
33     C33    -1.2109   -4.3449   -3.3732 C.3      1 ZINC000084654490   -0.0900
34     C34    -1.4447   -5.8238   -3.0586 C.3      1 ZINC000084654490   -0.1200
35     C35    -2.8300   -6.2387   -3.5584 C.3      1 ZINC000084654490   -0.1100
36     C36    -3.8980   -5.3939   -2.8609 C.3      1 ZINC000084654490   -0.1200
37     C37    -3.6642   -3.9150   -3.1755 C.3      1 ZINC000084654490   -0.1200
38     C38    -2.2789   -3.5000   -2.6757 C.3      1 ZINC000084654490   -0.1000
39     H39     0.1009    2.5285   -2.2292 H        1 ZINC000084654490    0.0200
40     H40    -1.5245    1.9539   -2.6722 H        1 ZINC000084654490    0.0700
41     H41    -1.2172    2.5785   -1.0340 H        1 ZINC000084654490    0.0700
42     H42     0.1921    0.7008   -0.6298 H        1 ZINC000084654490    0.3500
43     H43     2.0679   -0.4112   -3.4349 H        1 ZINC000084654490    0.0700
44     H44     1.7923    1.2331   -2.8116 H        1 ZINC000084654490    0.0700
45     H45     2.1266   -0.1021   -1.6830 H        1 ZINC000084654490    0.0600
46     H46     0.8391   -2.2168   -3.9371 H        1 ZINC000084654490    0.4100
47     H47     1.9238   -5.8217   -0.8853 H        1 ZINC000084654490    0.0800
48     H48     0.3285   -6.2869   -1.5513 H        1 ZINC000084654490    0.0900
49     H49     2.0349   -8.2186   -0.7311 H        1 ZINC000084654490    0.1000
50     H50     1.1328   -8.4443   -2.2673 H        1 ZINC000084654490    0.0800
51     H51     4.0107   -7.4477   -1.8716 H        1 ZINC000084654490    0.1000
52     H52     3.4043   -8.6627   -3.0444 H        1 ZINC000084654490    0.0900
53     H53     4.2285   -8.1748   -5.1755 H        1 ZINC000084654490    0.4200
54     H54     5.6170   -7.9515   -6.2852 H        1 ZINC000084654490    0.1200
55     H55     7.8999   -8.6753   -5.7230 H        1 ZINC000084654490    0.1300
56     H56     8.6717  -10.9249   -6.3522 H        1 ZINC000084654490    0.1300
57     H57     7.1666  -12.4621   -7.5456 H        1 ZINC000084654490    0.1300
58     H58     4.8784  -11.7579   -8.1112 H        1 ZINC000084654490    0.1300
59     H59    -1.2704   -4.1887   -4.4503 H        1 ZINC000084654490    0.0800
60     H60    -0.6839   -6.4257   -3.5555 H        1 ZINC000084654490    0.0700
61     H61    -1.3853   -5.9800   -1.9815 H        1 ZINC000084654490    0.0600
62     H62    -2.8894   -6.0826   -4.6355 H        1 ZINC000084654490    0.0600
63     H63    -2.9966   -7.2924   -3.3343 H        1 ZINC000084654490    0.0600
64     H64    -4.8849   -5.6895   -3.2169 H        1 ZINC000084654490    0.0600
65     H65    -3.8385   -5.5501   -1.7838 H        1 ZINC000084654490    0.0600
66     H66    -3.7236   -3.7588   -4.2526 H        1 ZINC000084654490    0.0600
67     H67    -4.4250   -3.3131   -2.6786 H        1 ZINC000084654490    0.0600
68     H68    -2.2195   -3.6562   -1.5986 H        1 ZINC000084654490    0.0700
69     H69    -2.1124   -2.4464   -2.8998 H        1 ZINC000084654490    0.0600
@<TRIPOS>BOND
1     1     2     1
2     1     39    1
3     1     40    1
4     1     41    1
5     2     3     1
6     2     42    1
7     3     4     1
8     3     5     1
9     3     6     1
10    5     43    1
11    5     44    1
12    5     45    1
13    6     7     2
14    6     8     am
15    8     9     1
16    8     46    1
17    9     10    1
18    9     11    1
19    9     33    1
20    11    12    2
21    11    13    am
22    13    17    1
23    13    14    1
24    14    15    1
25    14    47    1
26    14    48    1
27    15    16    1
28    15    49    1
29    15    50    1
30    16    17    1
31    16    51    1
32    16    52    1
33    17    18    1
34    17    19    1
35    19    20    2
36    19    21    am
37    21    22    1
38    21    53    1
39    22    32    1
40    22    23    2
41    23    24    1
42    23    30    1
43    24    29    ar
44    24    25    ar
45    25    26    ar
46    25    54    1
47    26    27    ar
48    26    55    1
49    27    28    ar
50    27    56    1
51    28    29    ar
52    28    57    1
53    29    58    1
54    30    31    2
55    31    32    1
56    33    38    1
57    33    34    1
58    33    59    1
59    34    35    1
60    34    60    1
61    34    61    1
62    35    36    1
63    35    62    1
64    35    63    1
65    36    37    1
66    36    64    1
67    36    65    1
68    37    38    1
69    37    66    1
70    37    67    1
71    38    68    1
72    38    69    1
@<TRIPOS>SUBSTRUCTURE
1   ZINC000084654490 1     RESIDUE    1   A     ZIN   1
