@<TRIPOS>MOLECULE
ZINC000000001030
35    37    1     0     0
SMALL
USER_CHARGES
@<TRIPOS>ATOM
1      C1     -0.2225    1.3488   -0.0393 C.3      1 ZINC000000001030   -0.1700
2      C2     -0.0099   -0.1635    0.0552 C.3      1 ZINC000000001030    0.1600
3      C3     -1.3674   -0.8563    0.1885 C.3      1 ZINC000000001030   -0.1400
4      C4      0.6734   -0.6481   -1.1964 C.2      1 ZINC000000001030   -0.1300
5      C5      2.0106   -0.6653   -1.2627 C.2      1 ZINC000000001030    0.1100
6      N6      2.6699   -1.0998   -2.4174 N.am     1 ZINC000000001030   -0.4500
7      C7      3.4509   -2.2116   -2.3676 C.2      1 ZINC000000001030    0.1300
8      C8      4.0980   -2.6509   -3.4721 C.2      1 ZINC000000001030   -0.2200
9      C9      3.9658   -1.9569   -4.6831 C.2      1 ZINC000000001030   -0.0100
10     C10     3.1817   -0.8414   -4.7308 C.2      1 ZINC000000001030   -0.2400
11     C11     2.5197   -0.4154   -3.5674 C.2      1 ZINC000000001030    0.5100
12     O12     1.8151    0.5810   -3.5966 O.2      1 ZINC000000001030   -0.5400
13     C13     2.7706   -0.2100   -0.0741 C.ar     1 ZINC000000001030   -0.1300
14     C14     4.1122    0.1243   -0.1597 C.ar     1 ZINC000000001030   -0.0200
15     C15     4.7887    0.5489    0.9867 C.ar     1 ZINC000000001030   -0.0500
16     C16     6.1757    0.8970    0.9123 C.1      1 ZINC000000001030    0.2500
17     N17     7.2761    1.1732    0.8534 N.1      1 ZINC000000001030   -0.4100
18     C18     4.1107    0.6333    2.2066 C.ar     1 ZINC000000001030   -0.0300
19     C19     2.7749    0.2994    2.2866 C.ar     1 ZINC000000001030   -0.1400
20     C20     2.0971   -0.1224    1.1548 C.ar     1 ZINC000000001030    0.1700
21     O21     0.7833   -0.4564    1.2058 O.3      1 ZINC000000001030   -0.3000
22     H22     0.7433    1.8468   -0.1249 H        1 ZINC000000001030    0.0600
23     H23    -0.8277    1.5764   -0.9168 H        1 ZINC000000001030    0.0800
24     H24    -0.7344    1.7004    0.8564 H        1 ZINC000000001030    0.0800
25     H25    -1.9795   -0.6273   -0.6839 H        1 ZINC000000001030    0.0900
26     H26    -1.2201   -1.9342    0.2561 H        1 ZINC000000001030    0.0700
27     H27    -1.8699   -0.5011    1.0882 H        1 ZINC000000001030    0.0800
28     H28     0.0858   -0.9808   -2.0392 H        1 ZINC000000001030    0.1400
29     H29     3.5562   -2.7495   -1.4370 H        1 ZINC000000001030    0.1600
30     H30     4.7160   -3.5351   -3.4206 H        1 ZINC000000001030    0.1500
31     H31     4.4795   -2.3013   -5.5685 H        1 ZINC000000001030    0.1400
32     H32     3.0681   -0.2936   -5.6546 H        1 ZINC000000001030    0.1500
33     H33     4.6309    0.0568   -1.1045 H        1 ZINC000000001030    0.1300
34     H34     4.6361    0.9615    3.0913 H        1 ZINC000000001030    0.1500
35     H35     2.2573    0.3669    3.2320 H        1 ZINC000000001030    0.1500
@<TRIPOS>BOND
1     1     2     1
2     1     22    1
3     1     23    1
4     1     24    1
5     2     21    1
6     2     3     1
7     2     4     1
8     3     25    1
9     3     26    1
10    3     27    1
11    4     5     2
12    4     28    1
13    5     6     1
14    5     13    1
15    6     11    am
16    6     7     1
17    7     8     2
18    7     29    1
19    8     9     1
20    8     30    1
21    9     10    2
22    9     31    1
23    10    11    1
24    10    32    1
25    11    12    2
26    13    20    ar
27    13    14    ar
28    14    15    ar
29    14    33    1
30    15    16    1
31    15    18    ar
32    16    17    3
33    18    19    ar
34    18    34    1
35    19    20    ar
36    19    35    1
37    20    21    1
@<TRIPOS>SUBSTRUCTURE
1   ZINC000000001030 1     RESIDUE    1   A     ZIN   1
