@<TRIPOS>MOLECULE
ZINC000004213203
  24   25    0    0    0
SMALL
USER_CHARGES
NO_NAME
@<TRIPOS>ATOM
    1 C1       -0.0178     1.4648     0.0101 C.3    1 <0>      -0.0500
    2 N2        0.0021    -0.0041     0.0020 N.4    1 <0>      -0.5100
    3 H3        0.4744    -0.3295    -0.8281 H      1 <0>       0.4300
    4 H4        0.4901    -0.3383     0.8195 H      1 <0>       0.4300
    5 C5       -1.3761    -0.5125     0.0124 C.3    1 <0>       0.0300
    6 H6       -1.9141    -0.0906     0.8613 H      1 <0>       0.1500
    7 C7       -1.3580    -2.0397     0.1250 C.3    1 <0>      -0.1400
    8 C8       -2.7766    -2.5478     0.3917 C.3    1 <0>      -0.0400
    9 C9       -3.7140    -1.9452    -0.6439 C.2    1 <0>       0.0800
   10 C10      -3.3860    -0.8671    -1.3801 C.2    1 <0>      -0.2700
   11 C11      -2.0795    -0.1145    -1.2899 C.3    1 <0>      -0.0500
   12 S12      -4.7296    -0.4908    -2.4508 S.3    1 <0>       0.1700
   13 C13      -5.6135    -1.8099    -1.8186 C.2    1 <0>       0.0500
   14 N14      -4.9227    -2.4148    -0.9173 N.2    1 <0>      -0.4700
   15 H15       1.0047     1.8421     0.0024 H      1 <0>       0.1300
   16 H16      -0.5450     1.8259    -0.8730 H      1 <0>       0.1200
   17 H17      -0.5280     1.8163     0.9069 H      1 <0>       0.1300
   18 H18      -0.9875    -2.4684    -0.8062 H      1 <0>       0.1000
   19 H19      -0.7055    -2.3359     0.9464 H      1 <0>       0.1000
   20 H20      -2.7962    -3.6349     0.3139 H      1 <0>       0.1100
   21 H21      -3.0917    -2.2449     1.3903 H      1 <0>       0.1000
   22 H22      -2.2741     0.9580    -1.2912 H      1 <0>       0.1000
   23 H23      -1.4475    -0.3754    -2.1387 H      1 <0>       0.1000
   24 H24      -6.6078    -2.0941    -2.1300 H      1 <0>       0.2100
@<TRIPOS>BOND
   1    1    2 1
   2    1   15 1
   3    1   16 1
   4    1   17 1
   5    2    3 1
   6    2    4 1
   7    2    5 1
   8    5    6 1
   9    5   11 1
  10    5    7 1
  11    7    8 1
  12    7   18 1
  13    7   19 1
  14    8    9 1
  15    8   20 1
  16    8   21 1
  17    9   14 1
  18    9   10 2
  19   10   11 1
  20   10   12 1
  21   11   22 1
  22   11   23 1
  23   12   13 1
  24   13   14 2
  25   13   24 1
