@<TRIPOS>MOLECULE
ZINC000000395594
  18   18    0    0    0
SMALL
USER_CHARGES
NO_NAME
@<TRIPOS>ATOM
    1 C1       -0.0187     1.5258     0.0104 C.3    1 <0>      -0.1500
    2 C2        0.0021    -0.0041     0.0020 C.3    1 <0>      -0.0600
    3 C3       -1.4117    -0.5257     0.0127 C.2    1 <0>       0.0700
    4 C4       -2.0110    -0.8515    -1.1535 C.2    1 <0>      -0.0500
    5 O5       -1.3489    -0.7124    -2.3343 O.3    1 <0>      -0.4600
    6 C6       -3.3455    -1.3429    -1.1264 C.2    1 <0>       0.3700
    7 O7       -3.9230    -1.6491    -2.1585 O.2    1 <0>      -0.4900
    8 C8       -3.9866    -1.4678     0.1315 C.2    1 <0>      -0.3200
    9 C9       -3.3130    -1.1191     1.2464 C.2    1 <0>       0.1200
   10 O10      -2.0563    -0.6655     1.1794 O.3    1 <0>      -0.2000
   11 H11       1.0039     1.9031     0.0027 H      1 <0>       0.0700
   12 H12      -0.5459     1.8868    -0.8726 H      1 <0>       0.0600
   13 H13      -0.5289     1.8773     0.9072 H      1 <0>       0.0600
   14 H14       0.5123    -0.3556    -0.8948 H      1 <0>       0.1100
   15 H15       0.5293    -0.3651     0.8851 H      1 <0>       0.0900
   16 H16      -1.8663    -0.9729    -3.1085 H      1 <0>       0.4100
   17 H17      -4.9996    -1.8365     0.1960 H      1 <0>       0.1600
   18 H18      -3.7943    -1.2112     2.2088 H      1 <0>       0.2100
@<TRIPOS>BOND
   1    1    2 1
   2    1   11 1
   3    1   12 1
   4    1   13 1
   5    2    3 1
   6    2   14 1
   7    2   15 1
   8    3   10 1
   9    3    4 2
  10    4    5 1
  11    4    6 1
  12    5   16 1
  13    6    7 2
  14    6    8 1
  15    8    9 2
  16    8   17 1
  17    9   10 1
  18    9   18 1
