@<TRIPOS>MOLECULE
ZINC000008214664
  29   28    0    0    0
SMALL
USER_CHARGES
NO_NAME
@<TRIPOS>ATOM
    1 C1       -0.0187     1.5258     0.0104 C.3    1 <0>      -0.1600
    2 C2        0.0021    -0.0041     0.0020 C.3    1 <0>      -0.1200
    3 C3        0.7182    -0.4975    -1.2568 C.3    1 <0>      -0.0200
    4 C4       -0.0218     0.0093    -2.4963 C.3    1 <0>       0.0300
    5 O5       -1.3624    -0.4853    -2.4862 O.3    1 <0>      -0.2200
    6 N6       -2.1373    -0.0718    -3.5969 N.pl3  1 <0>       0.1200
    7 O7       -1.6443     0.6428    -4.4512 O.2    1 <0>      -0.1200
    8 O8       -3.2968    -0.4308    -3.6980 O.2    1 <0>      -0.0600
    9 C9        2.1536     0.0321    -1.2676 C.3    1 <0>       0.0300
   10 O10       2.8447    -0.4413    -0.1099 O.3    1 <0>      -0.2200
   11 N11       4.1893    -0.0057    -0.0236 N.pl3  1 <0>       0.1200
   12 O12       4.6551     0.7087    -0.8933 O.2    1 <0>      -0.1200
   13 O13       4.8801    -0.3453     0.9203 O.2    1 <0>      -0.0600
   14 C14       0.7390    -2.0273    -1.2652 C.3    1 <0>       0.0300
   15 O15       1.4078    -2.4882    -2.4409 O.3    1 <0>      -0.2300
   16 N16       1.4819    -3.8983    -2.5460 N.pl3  1 <0>       0.1200
   17 O17       0.9979    -4.6001    -1.6761 O.2    1 <0>      -0.1200
   18 O18       2.0297    -4.4095    -3.5063 O.2    1 <0>      -0.0600
   19 H19       1.0039     1.9031     0.0027 H      1 <0>       0.0600
   20 H20      -0.5459     1.8868    -0.8726 H      1 <0>       0.0600
   21 H21      -0.5289     1.8773     0.9072 H      1 <0>       0.0800
   22 H22       0.5293    -0.3651     0.8851 H      1 <0>       0.0900
   23 H23      -1.0205    -0.3814     0.0098 H      1 <0>       0.0900
   24 H24      -0.0366     1.0992    -2.4903 H      1 <0>       0.1100
   25 H25       0.4884    -0.3422    -3.3931 H      1 <0>       0.1000
   26 H26       2.6638    -0.3194    -2.1644 H      1 <0>       0.1000
   27 H27       2.1388     1.1220    -1.2617 H      1 <0>       0.1100
   28 H28       1.2661    -2.3884    -0.3821 H      1 <0>       0.1100
   29 H29      -0.2836    -2.4046    -1.2575 H      1 <0>       0.1100
@<TRIPOS>BOND
   1    1    2 1
   2    1   19 1
   3    1   20 1
   4    1   21 1
   5    2    3 1
   6    2   22 1
   7    2   23 1
   8    3    4 1
   9    3    9 1
  10    3   14 1
  11    4    5 1
  12    4   24 1
  13    4   25 1
  14    5    6 1
  15    6    7 2
  16    6    8 2
  17    9   10 1
  18    9   26 1
  19    9   27 1
  20   10   11 1
  21   11   12 2
  22   11   13 2
  23   14   15 1
  24   14   28 1
  25   14   29 1
  26   15   16 1
  27   16   17 2
  28   16   18 2
