@<TRIPOS>MOLECULE
ZINC000001538784
  41   41    0    0    0
SMALL
USER_CHARGES
NO_NAME
@<TRIPOS>ATOM
    1 C1       -0.0187     1.5258     0.0104 C.3    1 <0>      -0.1500
    2 C2        0.0021    -0.0041     0.0020 C.3    1 <0>      -0.1300
    3 C3        0.7182    -0.4975    -1.2568 C.3    1 <0>      -0.1200
    4 C4        0.7390    -2.0273    -1.2652 C.3    1 <0>      -0.1200
    5 C5        1.4551    -2.5207    -2.5240 C.3    1 <0>      -0.1200
    6 C6        1.4758    -4.0506    -2.5324 C.3    1 <0>       0.0600
    7 O7        2.1447    -4.5114    -3.7081 O.3    1 <0>      -0.3100
    8 C8        2.2506    -5.8573    -3.8707 C.ar   1 <0>       0.1300
    9 C9        1.7164    -6.7147    -2.9206 C.ar   1 <0>      -0.2000
   10 C10       1.8239    -8.0821    -3.0857 C.ar   1 <0>      -0.0700
   11 C11       1.2429    -9.0137    -2.0535 C.3    1 <0>      -0.1100
   12 C12       2.4661    -8.5973    -4.2016 C.ar   1 <0>       0.0700
   13 O13       2.5720    -9.9432    -4.3641 O.3    1 <0>      -0.4900
   14 C14       3.0001    -7.7397    -5.1522 C.ar   1 <0>      -0.0700
   15 C15       3.6972    -8.2997    -6.3653 C.3    1 <0>      -0.1200
   16 C16       2.8880    -6.3728    -4.9897 C.ar   1 <0>      -0.1100
   17 C17       3.4677    -5.4412    -6.0227 C.3    1 <0>      -0.1100
   18 H18       1.0039     1.9031     0.0027 H      1 <0>       0.0500
   19 H19      -0.5459     1.8868    -0.8726 H      1 <0>       0.0500
   20 H20      -0.5289     1.8773     0.9072 H      1 <0>       0.0500
   21 H21       0.5293    -0.3651     0.8851 H      1 <0>       0.0600
   22 H22      -1.0205    -0.3814     0.0098 H      1 <0>       0.0600
   23 H23       0.1910    -0.1364    -2.1398 H      1 <0>       0.0600
   24 H24       1.7408    -0.1202    -1.2645 H      1 <0>       0.0600
   25 H25       1.2661    -2.3884    -0.3821 H      1 <0>       0.0700
   26 H26      -0.2836    -2.4046    -1.2575 H      1 <0>       0.0700
   27 H27       0.9279    -2.1597    -3.4071 H      1 <0>       0.0700
   28 H28       2.4777    -2.1435    -2.5317 H      1 <0>       0.0700
   29 H29       2.0030    -4.4117    -1.6494 H      1 <0>       0.0600
   30 H30       0.4533    -4.4279    -2.5247 H      1 <0>       0.0600
   31 H31       1.2165    -6.3134    -2.0513 H      1 <0>       0.1300
   32 H32       0.2107    -9.2469    -2.3145 H      1 <0>       0.0700
   33 H33       1.8271    -9.9335    -2.0244 H      1 <0>       0.0800
   34 H34       1.2708    -8.5345    -1.0748 H      1 <0>       0.0700
   35 H35       1.8355   -10.3400    -4.8492 H      1 <0>       0.3800
   36 H36       2.9725    -8.4431    -7.1668 H      1 <0>       0.0700
   37 H37       4.4695    -7.6042    -6.6939 H      1 <0>       0.0700
   38 H38       4.1536    -9.2567    -6.1127 H      1 <0>       0.0800
   39 H39       2.7161    -5.2289    -6.7831 H      1 <0>       0.0700
   40 H40       3.7721    -4.5109    -5.5430 H      1 <0>       0.0700
   41 H41       4.3342    -5.9098    -6.4892 H      1 <0>       0.0700
@<TRIPOS>BOND
   1    1    2 1
   2    1   18 1
   3    1   19 1
   4    1   20 1
   5    2    3 1
   6    2   21 1
   7    2   22 1
   8    3    4 1
   9    3   23 1
  10    3   24 1
  11    4    5 1
  12    4   25 1
  13    4   26 1
  14    5    6 1
  15    5   27 1
  16    5   28 1
  17    6    7 1
  18    6   29 1
  19    6   30 1
  20    7    8 1
  21    8   16 ar
  22    8    9 ar
  23    9   10 ar
  24    9   31 1
  25   10   11 1
  26   10   12 ar
  27   11   32 1
  28   11   33 1
  29   11   34 1
  30   12   13 1
  31   12   14 ar
  32   13   35 1
  33   14   15 1
  34   14   16 ar
  35   15   36 1
  36   15   37 1
  37   15   38 1
  38   16   17 1
  39   17   39 1
  40   17   40 1
  41   17   41 1
