@<TRIPOS>MOLECULE
ZINC000043175204
96    101   1     0     0
SMALL
USER_CHARGES
@<TRIPOS>ATOM
1      O1      0.3114   -0.7991   -0.9057 O.2      1 ZINC000043175204   -0.4900
2      C2      0.2290    0.3671   -0.5637 C.2      1 ZINC000043175204    0.5300
3      C3     -1.0819    1.0102   -0.4087 C.ar     1 ZINC000043175204   -0.1200
4      C4     -2.2724    0.3243   -0.6427 C.ar     1 ZINC000043175204   -0.0500
5      C5     -3.4751    0.9767   -0.4816 C.ar     1 ZINC000043175204   -0.1100
6      C6     -3.5125    2.3085   -0.0896 C.ar     1 ZINC000043175204   -0.0900
7      C7     -2.3489    3.0062    0.1467 C.ar     1 ZINC000043175204   -0.1000
8      C8     -1.1183    2.3659   -0.0091 C.ar     1 ZINC000043175204   -0.0600
9      C9      0.1478    3.0593    0.2292 C.2      1 ZINC000043175204    0.1200
10     C10     0.1465    4.5050    0.6548 C.3      1 ZINC000043175204   -0.0200
11     C11     1.5664    4.9776    0.8322 C.ar     1 ZINC000043175204   -0.0700
12     C12     2.1884    4.8511    2.0603 C.ar     1 ZINC000043175204   -0.0900
13     C13     3.4906    5.2844    2.2237 C.ar     1 ZINC000043175204   -0.1100
14     C14     4.1717    5.8449    1.1578 C.ar     1 ZINC000043175204   -0.0300
15     Cl15    5.8076    6.3889    1.3621 Cl       1 ZINC000043175204   -0.0700
16     C16     3.5488    5.9713   -0.0710 C.ar     1 ZINC000043175204   -0.1100
17     C17     2.2484    5.5324   -0.2346 C.ar     1 ZINC000043175204   -0.0900
18     N18     1.2736    2.4287    0.0743 N.2      1 ZINC000043175204   -0.2200
19     N19     1.3404    1.0906   -0.3148 N.am     1 ZINC000043175204   -0.4300
20     C20     2.6524    0.4566   -0.4659 C.3      1 ZINC000043175204    0.1500
21     C21     3.1452    0.6402   -1.9027 C.3      1 ZINC000043175204    0.0500
22     H22     3.3293    1.6948   -2.1081 H        1 ZINC000043175204    0.0700
23     C23     4.4320   -0.1884   -2.1415 C.3      1 ZINC000043175204   -0.1200
24     C24     4.3963   -0.3863   -3.6798 C.3      1 ZINC000043175204   -0.1400
25     C25     2.8892   -0.5358   -3.9761 C.3      1 ZINC000043175204    0.0400
26     N26     2.1587    0.0942   -2.8589 N.3      1 ZINC000043175204   -0.5100
27     C27     1.2550    1.1446   -3.3466 C.3      1 ZINC000043175204    0.0600
28     C28     2.0753    2.2664   -3.9866 C.3      1 ZINC000043175204   -0.1600
29     C29     1.1316    3.2914   -4.6189 C.3      1 ZINC000043175204   -0.1000
30     C30     1.9519    4.4132   -5.2588 C.3      1 ZINC000043175204   -0.0800
31     C31     1.0224    5.4227   -5.8817 C.ar     1 ZINC000043175204   -0.1000
32     C32     0.6212    5.2725   -7.1963 C.ar     1 ZINC000043175204   -0.0800
33     C33    -0.2308    6.1966   -7.7695 C.ar     1 ZINC000043175204   -0.1400
34     C34    -0.6842    7.2757   -7.0248 C.ar     1 ZINC000043175204    0.1100
35     O35    -1.5228    8.1858   -7.5864 O.3      1 ZINC000043175204   -0.3100
36     C36    -1.9493    9.2711   -6.7604 C.3      1 ZINC000043175204    0.0600
37     C37    -2.8811   10.1845   -7.5594 C.3      1 ZINC000043175204   -0.1500
38     C38    -3.3378   11.3465   -6.6750 C.3      1 ZINC000043175204   -0.0100
39     N39    -4.3171   12.1623   -7.4054 N.4      1 ZINC000043175204   -0.3900
40     H40    -5.0547   11.5586   -7.7366 H        1 ZINC000043175204    0.4200
41     C41    -4.8991   13.1498   -6.4714 C.3      1 ZINC000043175204   -0.0100
42     C42    -3.9989   14.3304   -6.2264 C.3      1 ZINC000043175204   -0.1400
43     C43    -4.4004   15.4564   -7.2042 C.3      1 ZINC000043175204   -0.1300
44     C44    -3.8817   15.2291   -8.5471 C.3      1 ZINC000043175204   -0.1300
45     C45    -4.4181   13.9191   -9.1646 C.3      1 ZINC000043175204   -0.1400
46     C46    -3.6461   12.7719   -8.5734 C.3      1 ZINC000043175204   -0.0100
47     C47    -0.2806    7.4239   -5.7058 C.ar     1 ZINC000043175204   -0.2000
48     C48     0.5678    6.4945   -5.1358 C.ar     1 ZINC000043175204   -0.0800
49     H49    -2.2522   -0.7113   -0.9484 H        1 ZINC000043175204    0.1400
50     H50    -4.3987    0.4469   -0.6624 H        1 ZINC000043175204    0.1400
51     H51    -4.4651    2.8028    0.0310 H        1 ZINC000043175204    0.1300
52     H52    -2.3883    4.0418    0.4505 H        1 ZINC000043175204    0.1400
53     H53    -0.3444    5.1081   -0.1089 H        1 ZINC000043175204    0.1000
54     H54    -0.3904    4.6055    1.5980 H        1 ZINC000043175204    0.1000
55     H55     1.6565    4.4139    2.8924 H        1 ZINC000043175204    0.1300
56     H56     3.9763    5.1858    3.1833 H        1 ZINC000043175204    0.1300
57     H57     4.0798    6.4090   -0.9033 H        1 ZINC000043175204    0.1300
58     H58     1.7621    5.6307   -1.1939 H        1 ZINC000043175204    0.1200
59     H59     3.3603    0.9179    0.2227 H        1 ZINC000043175204    0.0900
60     H60     2.5697   -0.6072   -0.2433 H        1 ZINC000043175204    0.1000
61     H61     5.3179    0.3707   -1.8403 H        1 ZINC000043175204    0.0800
62     H62     4.3816   -1.1460   -1.6233 H        1 ZINC000043175204    0.0800
63     H63     4.8047    0.4859   -4.1902 H        1 ZINC000043175204    0.0700
64     H64     4.9365   -1.2891   -3.9649 H        1 ZINC000043175204    0.0800
65     H65     2.6430   -0.0304   -4.9100 H        1 ZINC000043175204    0.0600
66     H66     2.6275   -1.5918   -4.0433 H        1 ZINC000043175204    0.0800
67     H67     0.5750    0.7238   -4.0873 H        1 ZINC000043175204    0.0700
68     H68     0.6800    1.5457   -2.5120 H        1 ZINC000043175204    0.0700
69     H69     2.6821    2.7536   -3.2234 H        1 ZINC000043175204    0.0700
70     H70     2.7252    1.8482   -4.7552 H        1 ZINC000043175204    0.0700
71     H71     0.5248    2.8042   -5.3821 H        1 ZINC000043175204    0.0600
72     H72     0.4817    3.7096   -3.8502 H        1 ZINC000043175204    0.0600
73     H73     2.5588    4.9004   -4.4956 H        1 ZINC000043175204    0.0700
74     H74     2.6019    3.9950   -6.0275 H        1 ZINC000043175204    0.0700
75     H75     0.9745    4.4323   -7.7756 H        1 ZINC000043175204    0.1300
76     H76    -0.5433    6.0792   -8.7966 H        1 ZINC000043175204    0.1300
77     H77    -2.4802    8.8803   -5.8923 H        1 ZINC000043175204    0.0700
78     H78    -1.0799    9.8391   -6.4292 H        1 ZINC000043175204    0.0700
79     H79    -2.3503   10.5754   -8.4274 H        1 ZINC000043175204    0.1000
80     H80    -3.7505    9.6165   -7.8905 H        1 ZINC000043175204    0.1000
81     H81    -3.7966   10.9540   -5.7675 H        1 ZINC000043175204    0.1300
82     H82    -2.4777   11.9616   -6.4105 H        1 ZINC000043175204    0.1300
83     H83    -5.8429   13.5078   -6.8827 H        1 ZINC000043175204    0.1300
84     H84    -5.0983   12.6573   -5.5196 H        1 ZINC000043175204    0.1300
85     H85    -4.1172   14.6759   -5.1994 H        1 ZINC000043175204    0.1100
86     H86    -2.9617   14.0443   -6.4013 H        1 ZINC000043175204    0.0800
87     H87    -5.4879   15.5142   -7.2499 H        1 ZINC000043175204    0.0700
88     H88    -4.0127   16.4042   -6.8308 H        1 ZINC000043175204    0.0800
89     H89    -4.1707   16.0650   -9.1842 H        1 ZINC000043175204    0.0900
90     H90    -2.7938   15.1799   -8.5026 H        1 ZINC000043175204    0.0700
91     H91    -5.4771   13.8094   -8.9312 H        1 ZINC000043175204    0.0900
92     H92    -4.2796   13.9388  -10.2456 H        1 ZINC000043175204    0.1100
93     H93    -2.6633   13.1310   -8.2679 H        1 ZINC000043175204    0.1300
94     H94    -3.5150   12.0063   -9.3381 H        1 ZINC000043175204    0.1300
95     H95    -0.6319    8.2633   -5.1242 H        1 ZINC000043175204    0.1200
96     H96     0.8820    6.6092   -4.1089 H        1 ZINC000043175204    0.1300
@<TRIPOS>BOND
1     1     2     2
2     2     19    am
3     2     3     1
4     3     8     ar
5     3     4     ar
6     4     5     ar
7     4     49    1
8     5     6     ar
9     5     50    1
10    6     7     ar
11    6     51    1
12    7     8     ar
13    7     52    1
14    8     9     1
15    9     10    1
16    9     18    2
17    10    11    1
18    10    53    1
19    10    54    1
20    11    17    ar
21    11    12    ar
22    12    13    ar
23    12    55    1
24    13    14    ar
25    13    56    1
26    14    15    1
27    14    16    ar
28    16    17    ar
29    16    57    1
30    17    58    1
31    18    19    1
32    19    20    1
33    20    21    1
34    20    59    1
35    20    60    1
36    21    22    1
37    21    26    1
38    21    23    1
39    23    24    1
40    23    61    1
41    23    62    1
42    24    25    1
43    24    63    1
44    24    64    1
45    25    26    1
46    25    65    1
47    25    66    1
48    26    27    1
49    27    28    1
50    27    67    1
51    27    68    1
52    28    29    1
53    28    69    1
54    28    70    1
55    29    30    1
56    29    71    1
57    29    72    1
58    30    31    1
59    30    73    1
60    30    74    1
61    31    48    ar
62    31    32    ar
63    32    33    ar
64    32    75    1
65    33    34    ar
66    33    76    1
67    34    35    1
68    34    47    ar
69    35    36    1
70    36    37    1
71    36    77    1
72    36    78    1
73    37    38    1
74    37    79    1
75    37    80    1
76    38    39    1
77    38    81    1
78    38    82    1
79    39    40    1
80    39    46    1
81    39    41    1
82    41    42    1
83    41    83    1
84    41    84    1
85    42    43    1
86    42    85    1
87    42    86    1
88    43    44    1
89    43    87    1
90    43    88    1
91    44    45    1
92    44    89    1
93    44    90    1
94    45    46    1
95    45    91    1
96    45    92    1
97    46    93    1
98    46    94    1
99    47    48    ar
100   47    95    1
101   48    96    1
@<TRIPOS>SUBSTRUCTURE
1   ZINC000043175204 1     RESIDUE    1   A     ZIN   1
