@<TRIPOS>MOLECULE
ZINC000003612862
49    52    1     0     0
SMALL
USER_CHARGES
@<TRIPOS>ATOM
1      C1     -0.9053    1.0715    0.6037 C.3      1 ZINC000003612862    0.0200
2      O2     -0.6471   -0.3330    0.5533 O.3      1 ZINC000003612862   -0.2900
3      C3      0.0429   -0.7955   -0.5230 C.ar     1 ZINC000003612862    0.1600
4      C4      0.4652    0.0902   -1.5046 C.ar     1 ZINC000003612862   -0.2300
5      C5      1.1671   -0.3688   -2.6020 C.ar     1 ZINC000003612862   -0.0200
6      C6      1.6246    0.5958   -3.6656 C.3      1 ZINC000003612862   -0.0300
7      C7      0.5699    0.6995   -4.7370 C.ar     1 ZINC000003612862   -0.2200
8      C8      0.6283   -0.0954   -5.8646 C.ar     1 ZINC000003612862    0.2100
9      N9     -0.3146    0.0199   -6.7886 N.ar     1 ZINC000003612862   -0.5700
10     H10    -0.2772   -0.5370   -7.5820 H        1 ZINC000003612862    0.4500
11     C11    -1.3078    0.8845   -6.6439 C.ar     1 ZINC000003612862    0.6600
12     N12    -2.2733    0.9744   -7.6313 N.pl3    1 ZINC000003612862   -0.7900
13     N13    -1.4000    1.6649   -5.5775 N.ar     1 ZINC000003612862   -0.5700
14     C14    -0.4921    1.5978   -4.6092 C.ar     1 ZINC000003612862    0.5400
15     N15    -0.5914    2.4148   -3.4949 N.pl3    1 ZINC000003612862   -0.7800
16     C16     1.4500   -1.7255   -2.7206 C.ar     1 ZINC000003612862   -0.1400
17     C17     2.1979   -2.2591   -3.8793 C.2      1 ZINC000003612862   -0.1100
18     C18     2.7199   -3.4799   -3.7800 C.2      1 ZINC000003612862   -0.1600
19     C19     2.5521   -4.2707   -2.5095 C.3      1 ZINC000003612862    0.1500
20     H20     2.5640   -5.3350   -2.7444 H        1 ZINC000003612862    0.1300
21     C21     3.7079   -3.9507   -1.5596 C.3      1 ZINC000003612862   -0.1900
22     C22     4.3997   -5.1268   -0.8673 C.3      1 ZINC000003612862   -0.1700
23     C23     5.1141   -4.3725   -1.9906 C.3      1 ZINC000003612862   -0.1600
24     O24     1.3160   -3.9425   -1.8737 O.3      1 ZINC000003612862   -0.2800
25     C25     1.0252   -2.6233   -1.7307 C.ar     1 ZINC000003612862    0.1600
26     C26     0.3268   -2.1541   -0.6315 C.ar     1 ZINC000003612862    0.0500
27     O27    -0.0853   -3.0179    0.3362 O.3      1 ZINC000003612862   -0.3100
28     C28     0.8388   -3.3020    1.3885 C.3      1 ZINC000003612862    0.0300
29     H29     0.0397    1.6148    0.6060 H        1 ZINC000003612862    0.0600
30     H30    -1.4908    1.3648   -0.2676 H        1 ZINC000003612862    0.0600
31     H31    -1.4616    1.3064    1.5111 H        1 ZINC000003612862    0.1100
32     H32     0.2438    1.1431   -1.4100 H        1 ZINC000003612862    0.1300
33     H33     1.7878    1.5771   -3.2202 H        1 ZINC000003612862    0.1000
34     H34     2.5552    0.2370   -4.1054 H        1 ZINC000003612862    0.1100
35     H35     1.4340   -0.8031   -5.9923 H        1 ZINC000003612862    0.2100
36     H36    -2.2176    0.4084   -8.4171 H        1 ZINC000003612862    0.4300
37     H37    -3.0057    1.6034   -7.5376 H        1 ZINC000003612862    0.4500
38     H38    -1.3275    3.0417   -3.4171 H        1 ZINC000003612862    0.4300
39     H39     0.0752    2.3599   -2.7924 H        1 ZINC000003612862    0.4300
40     H40     2.3169   -1.6755   -4.7803 H        1 ZINC000003612862    0.1200
41     H41     3.2639   -3.9034   -4.6114 H        1 ZINC000003612862    0.1400
42     H42     3.6112   -3.0217   -0.9977 H        1 ZINC000003612862    0.1100
43     H43     4.7581   -4.9717    0.1503 H        1 ZINC000003612862    0.1000
44     H44     4.0313   -6.1285   -1.0887 H        1 ZINC000003612862    0.1000
45     H45     5.2157   -4.8780   -2.9509 H        1 ZINC000003612862    0.1000
46     H46     5.9425   -3.7212   -1.7119 H        1 ZINC000003612862    0.1000
47     H47     0.4187   -4.0639    2.0451 H        1 ZINC000003612862    0.1000
48     H48     1.7741   -3.6651    0.9625 H        1 ZINC000003612862    0.0500
49     H49     1.0286   -2.3938    1.9606 H        1 ZINC000003612862    0.0500
@<TRIPOS>BOND
1     1     2     1
2     1     29    1
3     1     30    1
4     1     31    1
5     2     3     1
6     3     26    ar
7     3     4     ar
8     4     5     ar
9     4     32    1
10    5     6     1
11    5     16    ar
12    6     7     1
13    6     33    1
14    6     34    1
15    7     14    ar
16    7     8     ar
17    8     9     ar
18    8     35    1
19    9     10    1
20    9     11    ar
21    11    12    1
22    11    13    ar
23    12    36    1
24    12    37    1
25    13    14    ar
26    14    15    1
27    15    38    1
28    15    39    1
29    16    25    ar
30    16    17    1
31    17    18    2
32    17    40    1
33    18    19    1
34    18    41    1
35    19    20    1
36    19    21    1
37    19    24    1
38    21    23    1
39    21    22    1
40    21    42    1
41    22    23    1
42    22    43    1
43    22    44    1
44    23    45    1
45    23    46    1
46    24    25    1
47    25    26    ar
48    26    27    1
49    27    28    1
50    28    47    1
51    28    48    1
52    28    49    1
@<TRIPOS>SUBSTRUCTURE
1   ZINC000003612862 1     RESIDUE    1   A     ZIN   1
