@<TRIPOS>MOLECULE
ZINC000017142058
29    30    1     0     0
SMALL
USER_CHARGES
@<TRIPOS>ATOM
1      N1     -0.0166    1.3717    0.0096 N.pl3    1 ZINC000017142058   -0.8100
2      C2      0.0021   -0.0041    0.0020 C.2      1 ZINC000017142058    0.5200
3      N3     -1.1353   -0.6866    0.0037 N.2      1 ZINC000017142058   -0.6000
4      C4     -1.1297   -2.0184   -0.0035 C.2      1 ZINC000017142058    0.6600
5      O5     -2.1894   -2.6227   -0.0017 O.2      1 ZINC000017142058   -0.5100
6      N6      0.0255   -2.7084   -0.0131 N.am     1 ZINC000017142058   -0.5200
7      C7     -0.0007   -4.1732   -0.0214 C.3      1 ZINC000017142058    0.2900
8      H8      1.0089   -4.5694   -0.1302 H        1 ZINC000017142058    0.1100
9      C9     -0.6511   -4.7067    1.2742 C.3      1 ZINC000017142058   -0.1900
10     C10    -1.4575   -5.9399    0.8092 C.3      1 ZINC000017142058    0.0900
11     H11    -2.5196   -5.7998    1.0104 H        1 ZINC000017142058    0.0800
12     O12    -0.9791   -7.1228    1.4526 O.3      1 ZINC000017142058   -0.5600
13     C13    -1.1990   -6.0055   -0.7124 C.3      1 ZINC000017142058    0.0900
14     H14    -0.3739   -6.6843   -0.9281 H        1 ZINC000017142058    0.0900
15     C15    -2.4629   -6.4542   -1.4486 C.3      1 ZINC000017142058    0.0800
16     O16    -2.1714   -6.6206   -2.8376 O.3      1 ZINC000017142058   -0.5700
17     O17    -0.8474   -4.6549   -1.0876 O.3      1 ZINC000017142058   -0.3400
18     C18     1.2203   -2.0514   -0.0157 C.2      1 ZINC000017142058    0.2200
19     C19     1.2310   -0.6968   -0.0134 C.2      1 ZINC000017142058   -0.2300
20     Cl20    2.7334    0.1730   -0.0172 Cl       1 ZINC000017142058   -0.0300
21     H21     0.8168    1.8681    0.0043 H        1 ZINC000017142058    0.4200
22     H22    -0.8631    1.8452    0.0162 H        1 ZINC000017142058    0.4200
23     H23     0.1141   -4.9997    1.9931 H        1 ZINC000017142058    0.1000
24     H24    -1.3145   -3.9569    1.7054 H        1 ZINC000017142058    0.1000
25     H25    -1.0635   -7.1081    2.4158 H        1 ZINC000017142058    0.3900
26     H26    -2.8081   -7.4013   -1.0338 H        1 ZINC000017142058    0.0700
27     H27    -3.2405   -5.7000   -1.3283 H        1 ZINC000017142058    0.0600
28     H28    -2.9289   -6.9048   -3.3672 H        1 ZINC000017142058    0.3800
29     H29     2.1477   -2.6048   -0.0235 H        1 ZINC000017142058    0.1900
@<TRIPOS>BOND
1     1     2     1
2     1     21    1
3     1     22    1
4     2     19    1
5     2     3     2
6     3     4     1
7     4     5     2
8     4     6     am
9     6     7     1
10    6     18    1
11    7     8     1
12    7     17    1
13    7     9     1
14    9     10    1
15    9     23    1
16    9     24    1
17    10    11    1
18    10    12    1
19    10    13    1
20    12    25    1
21    13    14    1
22    13    15    1
23    13    17    1
24    15    16    1
25    15    26    1
26    15    27    1
27    16    28    1
28    18    19    2
29    18    29    1
30    19    20    1
@<TRIPOS>SUBSTRUCTURE
1   ZINC000017142058 1     RESIDUE    1   A     ZIN   1
