@<TRIPOS>MOLECULE
ZINC000014968224
  43   45    0    0    0
SMALL
USER_CHARGES
NO_NAME
@<TRIPOS>ATOM
    1 C1        0.3963     1.4576     0.0178 C.3    1 <0>      -0.1700
    2 C2        0.3030    -0.0695     0.0266 C.3    1 <0>       0.1400
    3 H3        0.8484    -0.4871    -0.8197 H      1 <0>       0.0800
    4 C4       -1.1789    -0.5193    -0.0122 C.3    1 <0>      -0.1300
    5 C5       -1.5823    -0.3918     1.4805 C.3    1 <0>      -0.1300
    6 C6       -0.2946    -0.8062     2.2232 C.3    1 <0>       0.1100
    7 H7       -0.3552    -1.8552     2.5133 H      1 <0>       0.1000
    8 C8       -0.1064     0.0669     3.4654 C.3    1 <0>       0.0500
    9 H9        0.8549    -0.1595     3.9265 H      1 <0>       0.1500
   10 O10      -0.1413     1.4450     3.0888 O.3    1 <0>      -0.5100
   11 C11      -1.2304    -0.2175     4.4637 C.3    1 <0>       0.4200
   12 F12      -1.1963    -1.5666     4.8325 F      1 <0>      -0.1800
   13 F13      -1.0584     0.5809     5.5996 F      1 <0>      -0.1700
   14 F14      -2.4643     0.0731     3.8720 F      1 <0>      -0.1800
   15 N15       0.8304    -0.6085     1.2933 N.pl3  1 <0>      -0.6100
   16 C16       2.1734    -0.8869     1.5677 C.ar   1 <0>       0.2300
   17 C17       2.5352    -1.4027     2.8115 C.ar   1 <0>      -0.1400
   18 C18       3.8529    -1.6826     3.0983 C.ar   1 <0>      -0.1000
   19 C19       4.8369    -1.4508     2.1431 C.ar   1 <0>       0.1400
   20 N20       6.1627    -1.7256     2.4123 N.am   1 <0>      -0.6200
   21 C21       7.1161    -1.5026     1.4911 C.2    1 <0>       0.5300
   22 O22       8.2767    -1.7567     1.7637 O.2    1 <0>      -0.5200
   23 C23       6.8071    -0.9824     0.2161 C.2    1 <0>      -0.1300
   24 C24       5.5235    -0.6921    -0.1103 C.2    1 <0>      -0.0900
   25 C25       5.1814    -0.1362    -1.4686 C.3    1 <0>       0.5100
   26 F26       6.3502    -0.0035    -2.2260 F      1 <0>      -0.1700
   27 F27       4.2999    -1.0056    -2.1199 F      1 <0>      -0.1700
   28 F28       4.5767     1.1167    -1.3209 F      1 <0>      -0.1700
   29 C29       4.4769    -0.9301     0.8857 C.ar   1 <0>      -0.0600
   30 C30       3.1354    -0.6548     0.6026 C.ar   1 <0>      -0.1400
   31 H31       1.4410     1.7582     0.0980 H      1 <0>       0.0600
   32 H32      -0.0220     1.8418    -0.9125 H      1 <0>       0.0700
   33 H33      -0.1635     1.8607     0.8617 H      1 <0>       0.0700
   34 H34      -1.7735     0.1480    -0.6361 H      1 <0>       0.0900
   35 H35      -1.2652    -1.5509    -0.3536 H      1 <0>       0.0800
   36 H36      -1.8520     0.6367     1.7206 H      1 <0>       0.0800
   37 H37      -2.4004    -1.0717     1.7183 H      1 <0>       0.0900
   38 H38      -1.0032     1.7432     2.7676 H      1 <0>       0.3800
   39 H39       1.7752    -1.5842     3.5570 H      1 <0>       0.1300
   40 H40       4.1221    -2.0816     4.0651 H      1 <0>       0.1400
   41 H41       6.4101    -2.0844     3.2789 H      1 <0>       0.4200
   42 H42       7.5960    -0.8145    -0.5021 H      1 <0>       0.1700
   43 H43       2.8534    -0.2596    -0.3621 H      1 <0>       0.1400
@<TRIPOS>BOND
   1    1    2 1
   2    1   31 1
   3    1   32 1
   4    1   33 1
   5    2    3 1
   6    2   15 1
   7    2    4 1
   8    4    5 1
   9    4   34 1
  10    4   35 1
  11    5    6 1
  12    5   36 1
  13    5   37 1
  14    6    7 1
  15    6    8 1
  16    6   15 1
  17    8    9 1
  18    8   10 1
  19    8   11 1
  20   10   38 1
  21   11   12 1
  22   11   13 1
  23   11   14 1
  24   15   16 1
  25   16   30 ar
  26   16   17 ar
  27   17   18 ar
  28   17   39 1
  29   18   19 ar
  30   18   40 1
  31   19   29 ar
  32   19   20 1
  33   20   21 am
  34   20   41 1
  35   21   22 2
  36   21   23 1
  37   23   24 2
  38   23   42 1
  39   24   25 1
  40   24   29 1
  41   25   26 1
  42   25   27 1
  43   25   28 1
  44   29   30 ar
  45   30   43 1
