@<TRIPOS>MOLECULE
ZINC000003989256
85    88    1     0     0
SMALL
USER_CHARGES
@<TRIPOS>ATOM
1      C1     -1.8752    1.1804   -0.5244 C.3      1 ZINC000003989256    0.0200
2      O2     -1.5432   -0.2082   -0.4653 O.3      1 ZINC000003989256   -0.3100
3      C3     -2.5573   -1.0747   -0.2005 C.ar     1 ZINC000003989256    0.1100
4      C4     -3.8440   -0.5993   -0.0076 C.ar     1 ZINC000003989256   -0.1900
5      C5     -4.8741   -1.4818    0.2612 C.ar     1 ZINC000003989256   -0.0800
6      C6     -4.6232   -2.8388    0.3385 C.ar     1 ZINC000003989256   -0.1100
7      C7     -3.3410   -3.3199    0.1474 C.ar     1 ZINC000003989256   -0.0700
8      C8     -3.0711   -4.8001    0.2324 C.3      1 ZINC000003989256    0.1700
9      H9     -2.0858   -4.9636    0.6688 H        1 ZINC000003989256    0.1000
10     O10    -4.0640   -5.4171    1.0574 O.3      1 ZINC000003989256   -0.3200
11     C11    -4.1429   -6.8352    0.9070 C.3      1 ZINC000003989256    0.1000
12     H12    -4.6724   -7.0697   -0.0164 H        1 ZINC000003989256    0.0900
13     C13    -4.9099   -7.4260    2.0918 C.3      1 ZINC000003989256   -0.1300
14     C14    -6.3357   -6.9391    2.0604 C.2      1 ZINC000003989256    0.5200
15     O15    -6.7023   -6.1930    1.1773 O.2      1 ZINC000003989256   -0.5400
16     N16    -7.2034   -7.3327    3.0136 N.am     1 ZINC000003989256   -0.6100
17     C17    -6.7725   -8.2313    4.0932 C.3      1 ZINC000003989256    0.1100
18     C18    -7.1254   -7.5900    5.4389 C.3      1 ZINC000003989256   -0.1300
19     C19    -8.6174   -7.2502    5.4619 C.3      1 ZINC000003989256   -0.0600
20     C20    -8.9807   -6.6411    6.8175 C.3      1 ZINC000003989256   -0.1800
21     C21   -10.4698   -6.4199    6.8861 C.2      1 ZINC000003989256    0.4900
22     O22   -11.1751   -6.7215    5.9385 O.co2    1 ZINC000003989256   -0.6900
23     O23   -10.9692   -5.9393    7.8892 O.co2    1 ZINC000003989256   -0.7100
24     C24    -8.9306   -6.2453    4.3510 C.3      1 ZINC000003989256   -0.1300
25     C25    -8.5966   -6.8664    2.9963 C.3      1 ZINC000003989256    0.1200
26     C26    -2.7672   -7.4403    0.8569 C.2      1 ZINC000003989256    0.4900
27     O27    -2.3103   -7.9928    1.8352 O.2      1 ZINC000003989256   -0.4900
28     N28    -2.0423   -7.3677   -0.2786 N.am     1 ZINC000003989256   -0.5600
29     C29    -0.7292   -8.0102   -0.3745 C.3      1 ZINC000003989256    0.1200
30     C30     0.3469   -7.0501    0.1365 C.3      1 ZINC000003989256   -0.0800
31     C31     0.3627   -5.7918   -0.7338 C.3      1 ZINC000003989256   -0.1500
32     C32     0.0401   -6.6645    1.5850 C.3      1 ZINC000003989256   -0.1400
33     C33     1.7140   -7.7338    0.0694 C.3      1 ZINC000003989256    0.0800
34     O34     2.7352   -6.8226    0.5544 O.3      1 ZINC000003989256   -0.3500
35     C35     3.9999   -7.2724    0.5610 C.2      1 ZINC000003989256    0.4600
36     C36     5.1134   -6.3829    1.0507 C.3      1 ZINC000003989256   -0.1500
37     O37     4.2454   -8.3905    0.1744 O.2      1 ZINC000003989256   -0.5200
38     C38    -2.5792   -6.6612   -1.3655 C.ar     1 ZINC000003989256    0.1600
39     C39    -2.5861   -7.2132   -2.6363 C.ar     1 ZINC000003989256   -0.1200
40     C40    -3.1277   -6.5002   -3.6898 C.ar     1 ZINC000003989256   -0.0800
41     C41    -3.6605   -5.2418   -3.4735 C.ar     1 ZINC000003989256   -0.0400
42     Cl42   -4.3442   -4.3529   -4.7987 Cl       1 ZINC000003989256   -0.0600
43     C43    -3.6509   -4.6888   -2.2041 C.ar     1 ZINC000003989256   -0.0600
44     C44    -3.1103   -5.3953   -1.1499 C.ar     1 ZINC000003989256   -0.1200
45     C45    -2.3057   -2.4418   -0.1283 C.ar     1 ZINC000003989256    0.0800
46     O46    -1.0440   -2.9134   -0.3165 O.3      1 ZINC000003989256   -0.3200
47     C47    -0.6728   -3.2578   -1.6528 C.3      1 ZINC000003989256    0.0300
48     H48    -0.9779    1.7596   -0.7424 H        1 ZINC000003989256    0.1000
49     H49    -2.6132    1.3445   -1.3096 H        1 ZINC000003989256    0.0600
50     H50    -2.2877    1.4964    0.4338 H        1 ZINC000003989256    0.0600
51     H51    -4.0426    0.4606   -0.0667 H        1 ZINC000003989256    0.1300
52     H52    -5.8769   -1.1099    0.4114 H        1 ZINC000003989256    0.1300
53     H53    -5.4304   -3.5248    0.5490 H        1 ZINC000003989256    0.1500
54     H54    -4.8960   -8.5140    2.0275 H        1 ZINC000003989256    0.1100
55     H55    -4.4388   -7.1110    3.0230 H        1 ZINC000003989256    0.1100
56     H56    -7.2857   -9.1883    3.9987 H        1 ZINC000003989256    0.0700
57     H57    -5.6950   -8.3846    4.0328 H        1 ZINC000003989256    0.0800
58     H58    -6.8988   -8.2878    6.2450 H        1 ZINC000003989256    0.0700
59     H59    -6.5426   -6.6785    5.5715 H        1 ZINC000003989256    0.0600
60     H60    -9.1992   -8.1584    5.3042 H        1 ZINC000003989256    0.0700
61     H61    -8.6772   -7.3204    7.6141 H        1 ZINC000003989256    0.0600
62     H62    -8.4659   -5.6878    6.9372 H        1 ZINC000003989256    0.0500
63     H63    -9.9888   -5.9859    4.3827 H        1 ZINC000003989256    0.1100
64     H64    -8.3308   -5.3464    4.4938 H        1 ZINC000003989256    0.0500
65     H65    -8.7242   -6.1212    2.2112 H        1 ZINC000003989256    0.0900
66     H66    -9.2569   -7.7134    2.8099 H        1 ZINC000003989256    0.0700
67     H67    -0.7235   -8.9173    0.2299 H        1 ZINC000003989256    0.1000
68     H68    -0.5245   -8.2652   -1.4143 H        1 ZINC000003989256    0.0900
69     H69    -0.6112   -5.3047   -0.6860 H        1 ZINC000003989256    0.0700
70     H70     1.1293   -5.1078   -0.3697 H        1 ZINC000003989256    0.0700
71     H71     0.5813   -6.0665   -1.7657 H        1 ZINC000003989256    0.0500
72     H72    -0.0705   -7.5673    2.1857 H        1 ZINC000003989256    0.0700
73     H73     0.8574   -6.0621    1.9815 H        1 ZINC000003989256    0.0600
74     H74    -0.8852   -6.0893    1.6197 H        1 ZINC000003989256    0.0500
75     H75     1.7027   -8.6302    0.6894 H        1 ZINC000003989256    0.0700
76     H76     1.9326   -8.0085   -0.9625 H        1 ZINC000003989256    0.0700
77     H77     5.2492   -6.5274    2.1225 H        1 ZINC000003989256    0.1100
78     H78     6.0368   -6.6367    0.5300 H        1 ZINC000003989256    0.1000
79     H79     4.8597   -5.3413    0.8537 H        1 ZINC000003989256    0.0900
80     H80    -2.1699   -8.1957   -2.8032 H        1 ZINC000003989256    0.1400
81     H81    -3.1346   -6.9258   -4.6824 H        1 ZINC000003989256    0.1400
82     H82    -4.0680   -3.7064   -2.0390 H        1 ZINC000003989256    0.1400
83     H83    -1.3359   -4.0391   -2.0242 H        1 ZINC000003989256    0.0500
84     H84    -0.7549   -2.3780   -2.2909 H        1 ZINC000003989256    0.0400
85     H85     0.3555   -3.6191   -1.6625 H        1 ZINC000003989256    0.0900
@<TRIPOS>BOND
1     1     2     1
2     1     48    1
3     1     49    1
4     1     50    1
5     2     3     1
6     3     45    ar
7     3     4     ar
8     4     5     ar
9     4     51    1
10    5     6     ar
11    5     52    1
12    6     7     ar
13    6     53    1
14    7     8     1
15    7     45    ar
16    8     9     1
17    8     44    1
18    8     10    1
19    10    11    1
20    11    12    1
21    11    13    1
22    11    26    1
23    13    14    1
24    13    54    1
25    13    55    1
26    14    15    2
27    14    16    am
28    16    25    1
29    16    17    1
30    17    18    1
31    17    56    1
32    17    57    1
33    18    19    1
34    18    58    1
35    18    59    1
36    19    20    1
37    19    24    1
38    19    60    1
39    20    21    1
40    20    61    1
41    20    62    1
42    21    22    ar
43    21    23    ar
44    24    25    1
45    24    63    1
46    24    64    1
47    25    65    1
48    25    66    1
49    26    27    2
50    26    28    am
51    28    29    1
52    28    38    1
53    29    30    1
54    29    67    1
55    29    68    1
56    30    31    1
57    30    32    1
58    30    33    1
59    31    69    1
60    31    70    1
61    31    71    1
62    32    72    1
63    32    73    1
64    32    74    1
65    33    34    1
66    33    75    1
67    33    76    1
68    34    35    1
69    35    36    1
70    35    37    2
71    36    77    1
72    36    78    1
73    36    79    1
74    38    44    ar
75    38    39    ar
76    39    40    ar
77    39    80    1
78    40    41    ar
79    40    81    1
80    41    42    1
81    41    43    ar
82    43    44    ar
83    43    82    1
84    45    46    1
85    46    47    1
86    47    83    1
87    47    84    1
88    47    85    1
@<TRIPOS>SUBSTRUCTURE
1   ZINC000003989256 1     RESIDUE    1   A     ZIN   1
