@<TRIPOS>MOLECULE
ZINC000022940637
74    78    1     0     0
SMALL
USER_CHARGES
@<TRIPOS>ATOM
1      C1     -0.0153    1.9616    0.4144 C.3      1 ZINC000022940637   -0.1200
2      C2      0.0471    0.5354   -0.0684 C.ar     1 ZINC000022940637   -0.1300
3      C3     -0.5414    0.1869   -1.2685 C.ar     1 ZINC000022940637   -0.0800
4      C4     -0.4869   -1.1198   -1.7145 C.ar     1 ZINC000022940637   -0.1400
5      C5      0.1604   -2.0876   -0.9567 C.ar     1 ZINC000022940637    0.1600
6      N6      0.2152   -3.4098   -1.4089 N.am     1 ZINC000022940637   -0.6600
7      C7      0.1760   -3.6723   -2.7303 C.2      1 ZINC000022940637    0.5600
8      O8      0.1891   -2.7587   -3.5321 O.2      1 ZINC000022940637   -0.5000
9      C9      0.1172   -5.0711   -3.2045 C.ar     1 ZINC000022940637   -0.1300
10     C10     0.0963   -6.1222   -2.2864 C.ar     1 ZINC000022940637   -0.0500
11     C11     0.0414   -7.4255   -2.7358 C.ar     1 ZINC000022940637   -0.1200
12     C12     0.0071   -7.6916   -4.0929 C.ar     1 ZINC000022940637   -0.0100
13     C13    -0.0528   -9.1177   -4.5764 C.3      1 ZINC000022940637    0.0600
14     N14     1.2891   -9.5527   -4.9861 N.3      1 ZINC000022940637   -0.5000
15     C15     2.1639   -9.7645   -3.8046 C.3      1 ZINC000022940637    0.0300
16     C16     3.2831  -10.6851   -4.3525 C.3      1 ZINC000022940637   -0.1400
17     C17     2.5200  -11.6187   -5.3200 C.3      1 ZINC000022940637    0.0100
18     H18     2.2742  -12.5579   -4.8244 H        1 ZINC000022940637    0.1500
19     N19     3.3236  -11.8731   -6.5231 N.4      1 ZINC000022940637   -0.3800
20     H20     3.5352  -10.9974   -6.9776 H        1 ZINC000022940637    0.4300
21     C21     4.5748  -12.5427   -6.1437 C.3      1 ZINC000022940637   -0.0500
22     C22     2.5679  -12.7327   -7.4440 C.3      1 ZINC000022940637   -0.0500
23     C23     1.2338  -10.8547   -5.6855 C.3      1 ZINC000022940637    0.0200
24     C24     0.0271   -6.6542   -5.0085 C.ar     1 ZINC000022940637   -0.1700
25     C25    -0.0116   -6.9535   -6.4850 C.3      1 ZINC000022940637    0.5100
26     F26     0.0179   -5.7543   -7.2049 F        1 ZINC000022940637   -0.1700
27     F27     1.0970   -7.7331   -6.8319 F        1 ZINC000022940637   -0.1600
28     F28    -1.1856   -7.6510   -6.7888 F        1 ZINC000022940637   -0.1800
29     C29     0.0765   -5.3465   -4.5726 C.ar     1 ZINC000022940637   -0.0100
30     C30     0.7531   -1.7408    0.2493 C.ar     1 ZINC000022940637   -0.1500
31     C31     0.7015   -0.4267    0.6916 C.ar     1 ZINC000022940637    0.1800
32     N32     1.2977   -0.0730    1.9057 N.pl3    1 ZINC000022940637   -0.6300
33     C33     1.4743   -1.0271    2.8946 C.ar     1 ZINC000022940637    0.5700
34     N34     0.9602   -2.2365    2.7239 N.ar     1 ZINC000022940637   -0.5500
35     C35     1.1071   -3.1755    3.6453 C.ar     1 ZINC000022940637    0.1900
36     C36     1.8086   -2.8850    4.8017 C.ar     1 ZINC000022940637   -0.2700
37     C37     2.3393   -1.6011    4.9538 C.ar     1 ZINC000022940637    0.2700
38     C38     3.0995   -1.2403    6.1750 C.ar     1 ZINC000022940637   -0.1700
39     C39     3.3064   -2.1740    7.1941 C.ar     1 ZINC000022940637    0.1800
40     N40     3.9897   -1.8106    8.2657 N.ar     1 ZINC000022940637   -0.5200
41     C41     4.4722   -0.5890    8.3801 C.ar     1 ZINC000022940637    0.3100
42     N42     4.3000    0.3219    7.4426 N.ar     1 ZINC000022940637   -0.5200
43     C43     3.6339    0.0409    6.3360 C.ar     1 ZINC000022940637    0.2000
44     N44     2.1568   -0.7088    3.9833 N.ar     1 ZINC000022940637   -0.5600
45     H45     0.8466    2.5112    0.0362 H        1 ZINC000022940637    0.0700
46     H46    -0.9313    2.4281    0.0521 H        1 ZINC000022940637    0.0700
47     H47    -0.0063    1.9770    1.5043 H        1 ZINC000022940637    0.0600
48     H48    -1.0456    0.9373   -1.8593 H        1 ZINC000022940637    0.1300
49     H49    -0.9483   -1.3891   -2.6531 H        1 ZINC000022940637    0.1400
50     H50     0.2813   -4.1380   -0.7715 H        1 ZINC000022940637    0.4100
51     H51     0.1234   -5.9157   -1.2267 H        1 ZINC000022940637    0.1400
52     H52     0.0255   -8.2398   -2.0265 H        1 ZINC000022940637    0.1400
53     H53    -0.4129   -9.7592   -3.7721 H        1 ZINC000022940637    0.0700
54     H54    -0.7319   -9.1850   -5.4264 H        1 ZINC000022940637    0.1000
55     H55     2.5793   -8.8179   -3.4588 H        1 ZINC000022940637    0.1000
56     H56     1.6154  -10.2604   -3.0038 H        1 ZINC000022940637    0.0700
57     H57     4.0329  -10.1036   -4.8888 H        1 ZINC000022940637    0.1000
58     H58     3.7415  -11.2572   -3.5458 H        1 ZINC000022940637    0.1100
59     H59     4.3463  -13.4887   -5.6527 H        1 ZINC000022940637    0.1200
60     H60     5.1711  -12.7315   -7.0364 H        1 ZINC000022940637    0.1300
61     H61     5.1355  -11.9049   -5.4604 H        1 ZINC000022940637    0.1200
62     H62     1.6395  -12.2359   -7.7256 H        1 ZINC000022940637    0.1200
63     H63     3.1642  -12.9215   -8.3367 H        1 ZINC000022940637    0.1300
64     H64     2.3394  -13.6787   -6.9531 H        1 ZINC000022940637    0.1200
65     H65     0.3610  -11.4173   -5.3543 H        1 ZINC000022940637    0.0900
66     H66     1.1897  -10.6959   -6.7629 H        1 ZINC000022940637    0.1000
67     H67     0.0918   -4.5376   -5.2881 H        1 ZINC000022940637    0.1600
68     H68     1.2567   -2.4914    0.8404 H        1 ZINC000022940637    0.1500
69     H69     1.5878    0.8403    2.0557 H        1 ZINC000022940637    0.4300
70     H70     0.6836   -4.1577    3.4959 H        1 ZINC000022940637    0.1800
71     H71     1.9427   -3.6329    5.5693 H        1 ZINC000022940637    0.1500
72     H72     2.9139   -3.1764    7.1076 H        1 ZINC000022940637    0.1700
73     H73     5.0256   -0.3263    9.2696 H        1 ZINC000022940637    0.2000
74     H74     3.4972    0.7922    5.5723 H        1 ZINC000022940637    0.1800
@<TRIPOS>BOND
1     1     2     1
2     1     45    1
3     1     46    1
4     1     47    1
5     2     31    ar
6     2     3     ar
7     3     4     ar
8     3     48    1
9     4     5     ar
10    4     49    1
11    5     6     1
12    5     30    ar
13    6     7     am
14    6     50    1
15    7     8     2
16    7     9     1
17    9     29    ar
18    9     10    ar
19    10    11    ar
20    10    51    1
21    11    12    ar
22    11    52    1
23    12    13    1
24    12    24    ar
25    13    14    1
26    13    53    1
27    13    54    1
28    14    23    1
29    14    15    1
30    15    16    1
31    15    55    1
32    15    56    1
33    16    17    1
34    16    57    1
35    16    58    1
36    17    18    1
37    17    19    1
38    17    23    1
39    19    20    1
40    19    21    1
41    19    22    1
42    21    59    1
43    21    60    1
44    21    61    1
45    22    62    1
46    22    63    1
47    22    64    1
48    23    65    1
49    23    66    1
50    24    25    1
51    24    29    ar
52    25    26    1
53    25    27    1
54    25    28    1
55    29    67    1
56    30    31    ar
57    30    68    1
58    31    32    1
59    32    33    1
60    32    69    1
61    33    44    ar
62    33    34    ar
63    34    35    ar
64    35    36    ar
65    35    70    1
66    36    37    ar
67    36    71    1
68    37    38    1
69    37    44    ar
70    38    43    ar
71    38    39    ar
72    39    40    ar
73    39    72    1
74    40    41    ar
75    41    42    ar
76    41    73    1
77    42    43    ar
78    43    74    1
@<TRIPOS>SUBSTRUCTURE
1   ZINC000022940637 1     RESIDUE    1   A     ZIN   1
