@<TRIPOS>MOLECULE
ZINC000003873121
  55   58    0    0    0
SMALL
USER_CHARGES
NO_NAME
@<TRIPOS>ATOM
    1 C1       -0.5186     1.3934     0.0500 C.3    1 <0>      -0.1100
    2 C2       -0.2343    -0.0865     0.0384 C.ar   1 <0>      -0.0700
    3 C3       -0.3305    -0.8005    -1.1378 C.ar   1 <0>      -0.1200
    4 C4       -0.0689    -2.1646    -1.1590 C.ar   1 <0>      -0.0600
    5 C5        0.2928    -2.8076     0.0032 C.ar   1 <0>      -0.0700
    6 C6        0.3858    -2.0874     1.1874 C.ar   1 <0>      -0.1000
    7 C7        0.1296    -0.7322     1.2056 C.ar   1 <0>      -0.0400
    8 C8        0.2349     0.0399     2.4955 C.3    1 <0>      -0.0400
    9 C9       -1.0718     0.3299     3.1880 C.ar   1 <0>       0.1500
   10 C10      -2.1686    -0.4741     2.9349 C.ar   1 <0>      -0.1700
   11 C11      -3.3669    -0.2059     3.5725 C.ar   1 <0>      -0.0400
   12 C12      -3.4198     0.8799     4.4567 C.ar   1 <0>      -0.1800
   13 C13      -4.6713     1.2114     5.1641 C.2    1 <0>       0.5300
   14 O14      -5.6744     0.5362     4.9811 O.co2  1 <0>      -0.6800
   15 O15      -4.7057     2.1613     5.9335 O.co2  1 <0>      -0.6800
   16 C16      -2.2668     1.6429     4.6572 C.ar   1 <0>       0.1300
   17 N17      -1.1489     1.3433     4.0299 N.ar   1 <0>      -0.5000
   18 C18       1.4593    -0.2188     3.3757 C.3    1 <0>      -0.1600
   19 C19       1.3388     1.0942     2.5996 C.3    1 <0>      -0.1500
   20 C20       0.6064    -4.2801     0.0512 C.3    1 <0>      -0.0200
   21 C21       2.1234    -4.4714     0.1054 C.3    1 <0>      -0.1400
   22 C22      -0.0239    -4.8895     1.3052 C.3    1 <0>      -0.1400
   23 C23       0.0533    -4.9878    -1.1841 C.3    1 <0>      -0.1100
   24 C24       0.5244    -4.2271    -2.4292 C.3    1 <0>      -0.1100
   25 C25      -0.2007    -2.8837    -2.4760 C.3    1 <0>      -0.0200
   26 C26      -1.6824    -3.1202    -2.7756 C.3    1 <0>      -0.1400
   27 C27       0.4059    -2.0213    -3.5847 C.3    1 <0>      -0.1400
   28 H28       0.4177     1.9440    -0.0405 H      1 <0>       0.0700
   29 H29      -1.1702     1.6447    -0.7869 H      1 <0>       0.0600
   30 H30      -1.0090     1.6618     0.9857 H      1 <0>       0.0700
   31 H31      -0.6120    -0.2949    -2.0497 H      1 <0>       0.1200
   32 H32       0.6645    -2.5921     2.1007 H      1 <0>       0.1200
   33 H33      -2.0905    -1.3026     2.2464 H      1 <0>       0.1200
   34 H34      -4.2390    -0.8172     3.3930 H      1 <0>       0.1300
   35 H35      -2.2917     2.4828     5.3356 H      1 <0>       0.1600
   36 H36       1.3198    -0.1794     4.4561 H      1 <0>       0.1000
   37 H37       2.1886    -0.9475     3.0219 H      1 <0>       0.0900
   38 H38       1.9888     1.2293     1.7351 H      1 <0>       0.0900
   39 H39       1.1200     1.9974     3.1693 H      1 <0>       0.1100
   40 H40       2.5194    -3.9843     0.9965 H      1 <0>       0.0600
   41 H41       2.3544    -5.5360     0.1402 H      1 <0>       0.0600
   42 H42       2.5771    -4.0300    -0.7820 H      1 <0>       0.0600
   43 H43      -1.1041    -4.7468     1.2749 H      1 <0>       0.0600
   44 H44       0.2008    -5.9553     1.3435 H      1 <0>       0.0600
   45 H45       0.3825    -4.4004     2.1904 H      1 <0>       0.0600
   46 H46       0.4247    -6.0120    -1.2174 H      1 <0>       0.0700
   47 H47      -1.0360    -4.9928    -1.1473 H      1 <0>       0.0700
   48 H48       1.6003    -4.0617    -2.3732 H      1 <0>       0.0700
   49 H49       0.2872    -4.8037    -3.3232 H      1 <0>       0.0600
   50 H50      -2.1164    -3.7425    -1.9930 H      1 <0>       0.0600
   51 H51      -2.2034    -2.1634    -2.8098 H      1 <0>       0.0600
   52 H52      -1.7828    -3.6232    -3.7373 H      1 <0>       0.0600
   53 H53       0.2949    -2.5299    -4.5424 H      1 <0>       0.0600
   54 H54      -0.1092    -1.0614    -3.6213 H      1 <0>       0.0600
   55 H55       1.4641    -1.8583    -3.3804 H      1 <0>       0.0600
@<TRIPOS>BOND
   1    1    2 1
   2    1   28 1
   3    1   29 1
   4    1   30 1
   5    2    7 ar
   6    2    3 ar
   7    3    4 ar
   8    3   31 1
   9    4   25 1
  10    4    5 ar
  11    5    6 ar
  12    5   20 1
  13    6    7 ar
  14    6   32 1
  15    7    8 1
  16    8   19 1
  17    8    9 1
  18    8   18 1
  19    9   17 ar
  20    9   10 ar
  21   10   11 ar
  22   10   33 1
  23   11   12 ar
  24   11   34 1
  25   12   13 1
  26   12   16 ar
  27   13   14 ar
  28   13   15 ar
  29   16   17 ar
  30   16   35 1
  31   18   19 1
  32   18   36 1
  33   18   37 1
  34   19   38 1
  35   19   39 1
  36   20   21 1
  37   20   22 1
  38   20   23 1
  39   21   40 1
  40   21   41 1
  41   21   42 1
  42   22   43 1
  43   22   44 1
  44   22   45 1
  45   23   24 1
  46   23   46 1
  47   23   47 1
  48   24   25 1
  49   24   48 1
  50   24   49 1
  51   25   26 1
  52   25   27 1
  53   26   50 1
  54   26   51 1
  55   26   52 1
  56   27   53 1
  57   27   54 1
  58   27   55 1
