@<TRIPOS>MOLECULE
ZINC000091291806
48    52    1     0     0
SMALL
USER_CHARGES
@<TRIPOS>ATOM
1      O1      0.0405   -0.0277    0.0311 O.co2    1 ZINC000091291806   -0.6700
2      C2      0.0265    1.1915    0.0331 C.2      1 ZINC000091291806    0.4800
3      O3      1.0754    1.8131    0.0333 O.co2    1 ZINC000091291806   -0.6900
4      C4     -1.2871    1.9300    0.0291 C.3      1 ZINC000091291806    0.0300
5      N5     -2.3896    0.9653    0.0231 N.pl3    1 ZINC000091291806   -0.4300
6      C6     -2.9766    0.4417   -1.1098 C.ar     1 ZINC000091291806    0.1100
7      C7     -2.7524    0.6213   -2.4700 C.ar     1 ZINC000091291806   -0.0800
8      C8     -3.5206   -0.0569   -3.3904 C.ar     1 ZINC000091291806   -0.1400
9      C9     -4.5236   -0.9241   -2.9735 C.ar     1 ZINC000091291806    0.0600
10     F10    -5.2676   -1.5812   -3.8899 F        1 ZINC000091291806   -0.1500
11     C11    -4.7626   -1.1176   -1.6303 C.ar     1 ZINC000091291806   -0.1100
12     C12    -3.9916   -0.4374   -0.6849 C.ar     1 ZINC000091291806   -0.0700
13     C13    -3.9652   -0.4001    0.7729 C.2      1 ZINC000091291806   -0.2200
14     C14    -2.9843    0.4469    1.1395 C.2      1 ZINC000091291806    0.1200
15     C15    -2.6266    0.7558    2.5750 C.3      1 ZINC000091291806   -0.0800
16     C16    -3.7965    0.3490    3.4780 C.3      1 ZINC000091291806    0.1100
17     N17    -4.2700   -0.9860    3.0829 N.am     1 ZINC000091291806   -0.6000
18     C18    -4.1749   -2.0326    3.9267 C.2      1 ZINC000091291806    0.5700
19     O19    -4.6623   -3.1045    3.6233 O.2      1 ZINC000091291806   -0.5300
20     C20    -3.4796   -1.8778    5.2179 C.ar     1 ZINC000091291806   -0.1100
21     C21    -4.1318   -2.2205    6.4288 C.ar     1 ZINC000091291806   -0.0200
22     C22    -5.4440   -2.7124    6.4340 C.ar     1 ZINC000091291806   -0.1000
23     C23    -6.0401   -3.0321    7.6168 C.ar     1 ZINC000091291806   -0.1200
24     C24    -5.3637   -2.8769    8.8246 C.ar     1 ZINC000091291806   -0.1200
25     C25    -4.0883   -2.4019    8.8567 C.ar     1 ZINC000091291806   -0.1100
26     C26    -3.4421   -2.0624    7.6553 C.ar     1 ZINC000091291806   -0.0600
27     C27    -2.1257   -1.5697    7.6515 C.ar     1 ZINC000091291806   -0.0900
28     C28    -1.5194   -1.2475    6.4743 C.ar     1 ZINC000091291806   -0.1200
29     C29    -2.1778   -1.4006    5.2608 C.ar     1 ZINC000091291806   -0.0800
30     C30    -4.8481   -1.1518    1.7380 C.3      1 ZINC000091291806    0.2000
31     H31    -1.3556    2.5544    0.9199 H        1 ZINC000091291806    0.0900
32     H32    -1.3485    2.5574   -0.8601 H        1 ZINC000091291806    0.0900
33     H33    -1.9759    1.2931   -2.8051 H        1 ZINC000091291806    0.1300
34     H34    -3.3422    0.0869   -4.4458 H        1 ZINC000091291806    0.1300
35     H35    -5.5429   -1.7920   -1.3099 H        1 ZINC000091291806    0.1300
36     H36    -1.7355    0.1953    2.8576 H        1 ZINC000091291806    0.0900
37     H37    -2.4371    1.8238    2.6821 H        1 ZINC000091291806    0.0900
38     H38    -3.4643    0.3253    4.5159 H        1 ZINC000091291806    0.1000
39     H39    -4.6072    1.0696    3.3705 H        1 ZINC000091291806    0.0800
40     H40    -5.9804   -2.8371    5.5050 H        1 ZINC000091291806    0.1300
41     H41    -7.0515   -3.4110    7.6180 H        1 ZINC000091291806    0.1200
42     H42    -5.8583   -3.1367    9.7489 H        1 ZINC000091291806    0.1200
43     H43    -3.5758   -2.2861    9.8003 H        1 ZINC000091291806    0.1300
44     H44    -1.5939   -1.4459    8.5833 H        1 ZINC000091291806    0.1300
45     H45    -0.5077   -0.8695    6.4848 H        1 ZINC000091291806    0.1300
46     H46    -1.6742   -1.1376    4.3423 H        1 ZINC000091291806    0.1300
47     H47    -5.8546   -0.7340    1.7129 H        1 ZINC000091291806    0.0700
48     H48    -4.8779   -2.2091    1.4749 H        1 ZINC000091291806    0.1000
@<TRIPOS>BOND
1     1     2     ar
2     2     3     ar
3     2     4     1
4     4     5     1
5     4     31    1
6     4     32    1
7     5     14    1
8     5     6     1
9     6     12    ar
10    6     7     ar
11    7     8     ar
12    7     33    1
13    8     9     ar
14    8     34    1
15    9     10    1
16    9     11    ar
17    11    12    ar
18    11    35    1
19    12    13    1
20    13    30    1
21    13    14    2
22    14    15    1
23    15    16    1
24    15    36    1
25    15    37    1
26    16    17    1
27    16    38    1
28    16    39    1
29    17    18    am
30    17    30    1
31    18    19    2
32    18    20    1
33    20    29    ar
34    20    21    ar
35    21    26    ar
36    21    22    ar
37    22    23    ar
38    22    40    1
39    23    24    ar
40    23    41    1
41    24    25    ar
42    24    42    1
43    25    26    ar
44    25    43    1
45    26    27    ar
46    27    28    ar
47    27    44    1
48    28    29    ar
49    28    45    1
50    29    46    1
51    30    47    1
52    30    48    1
@<TRIPOS>SUBSTRUCTURE
1   ZINC000091291806 1     RESIDUE    1   A     ZIN   1
