@<TRIPOS>MOLECULE
ZINC000000600748
  36   38    0    0    0
SMALL
USER_CHARGES
NO_NAME
@<TRIPOS>ATOM
    1 N1        0.2919     1.2483    -0.0470 N.am   1 <0>      -1.2400
    2 S2        0.2771    -0.4046    -0.1469 S.o2   1 <0>       2.7000
    3 O3        1.6177    -0.8035    -0.3980 O.2    1 <0>      -0.9500
    4 O4       -0.4759    -0.8672     0.9659 O.2    1 <0>      -0.9500
    5 C5       -0.6468    -0.8320    -1.5851 C.ar   1 <0>      -0.6300
    6 C6       -2.0128    -1.0246    -1.4971 C.ar   1 <0>      -0.0400
    7 C7       -2.7377    -1.3599    -2.6254 C.ar   1 <0>      -0.0400
    8 C8       -2.0965    -1.5021    -3.8418 C.ar   1 <0>      -0.6300
    9 S9       -3.0203    -1.9301    -5.2799 S.o2   1 <0>       2.6900
   10 O10      -2.1016    -2.5287    -6.1836 O.2    1 <0>      -0.9300
   11 O11      -4.1967    -2.5823    -4.8218 O.2    1 <0>      -0.9400
   12 N12      -3.5143    -0.5151    -5.9843 N.am   1 <0>      -1.0500
   13 C13      -2.5672     0.4152    -6.4235 C.ar   1 <0>       0.1400
   14 C14      -2.8236     1.7838    -6.3129 C.ar   1 <0>       0.0900
   15 N15      -3.8884     2.5134    -5.8294 N.pl3  1 <0>      -0.5800
   16 C16      -3.6296     3.8519    -5.9553 C.2    1 <0>       0.0800
   17 C17      -2.4199     4.0329    -6.5101 C.2    1 <0>      -0.1300
   18 Cl18     -1.6636     5.5549    -6.8639 Cl     1 <0>      -0.0300
   19 C19      -1.8591     2.7024    -6.7596 C.ar   1 <0>      -0.0800
   20 C20      -0.6579     2.2429    -7.3074 C.ar   1 <0>      -0.0700
   21 C21      -0.4245     0.9004    -7.4074 C.ar   1 <0>      -0.1100
   22 C22      -1.3684    -0.0154    -6.9650 C.ar   1 <0>      -0.1500
   23 C23      -0.7307    -1.3082    -3.9301 C.ar   1 <0>      -0.0300
   24 C24      -0.0064    -0.9691    -2.8025 C.ar   1 <0>      -0.0400
   25 H25       1.1350     1.7277    -0.0637 H      1 <0>       0.4300
   26 H26      -0.5428     1.7373     0.0241 H      1 <0>       0.4200
   27 H27      -2.5137    -0.9135    -0.5468 H      1 <0>       0.1500
   28 H28      -3.8048    -1.5111    -2.5566 H      1 <0>       0.1500
   29 H29      -4.4607    -0.3315    -6.0921 H      1 <0>       0.4300
   30 H30      -4.6998     2.1351    -5.4561 H      1 <0>       0.4200
   31 H31      -4.2986     4.6442    -5.6537 H      1 <0>       0.1800
   32 H32       0.0843     2.9480    -7.6515 H      1 <0>       0.1300
   33 H33       0.5046     0.5489    -7.8312 H      1 <0>       0.1400
   34 H34      -1.1691    -1.0733    -7.0508 H      1 <0>       0.1700
   35 H35      -0.2298    -1.4189    -4.8805 H      1 <0>       0.1500
   36 H36       1.0606    -0.8176    -2.8715 H      1 <0>       0.1600
@<TRIPOS>BOND
   1    1    2 am
   2    1   25 1
   3    1   26 1
   4    2    3 2
   5    2    4 2
   6    2    5 1
   7    5   24 ar
   8    5    6 ar
   9    6    7 ar
  10    6   27 1
  11    7    8 ar
  12    7   28 1
  13    8    9 1
  14    8   23 ar
  15    9   10 2
  16    9   11 2
  17    9   12 am
  18   12   13 1
  19   12   29 1
  20   13   22 ar
  21   13   14 ar
  22   14   19 ar
  23   14   15 1
  24   15   16 1
  25   15   30 1
  26   16   17 2
  27   16   31 1
  28   17   18 1
  29   17   19 1
  30   19   20 ar
  31   20   21 ar
  32   20   32 1
  33   21   22 ar
  34   21   33 1
  35   22   34 1
  36   23   24 ar
  37   23   35 1
  38   24   36 1
