@<TRIPOS>MOLECULE
ZINC000001537619
45    47    1     0     0
SMALL
USER_CHARGES
@<TRIPOS>ATOM
1      C1     -0.0184    1.5028    0.0103 C.3      1 ZINC000001537619   -0.0800
2      C2      0.0021   -0.0041    0.0020 C.2      1 ZINC000001537619    0.0200
3      N3      0.0084   -0.7781   -1.0446 N.2      1 ZINC000001537619   -0.3600
4      O4      0.0260   -1.9466   -0.7340 O.3      1 ZINC000001537619    0.1000
5      C5      0.0337   -2.1026    0.5973 C.2      1 ZINC000001537619   -0.0300
6      C6      0.0555   -3.4063    1.3528 C.3      1 ZINC000001537619   -0.0400
7      C7     -1.3795   -3.8678    1.6151 C.3      1 ZINC000001537619   -0.1200
8      C8     -1.3575   -5.1914    2.3822 C.3      1 ZINC000001537619    0.0700
9      O9     -2.6977   -5.6224    2.6271 O.3      1 ZINC000001537619   -0.3300
10     C10    -2.8563   -6.7898    3.3031 C.ar     1 ZINC000001537619    0.1200
11     C11    -2.9277   -7.9893    2.6071 C.ar     1 ZINC000001537619   -0.1000
12     C12    -2.8297   -7.9941    1.1033 C.3      1 ZINC000001537619   -0.1200
13     C13    -3.0877   -9.1760    3.2906 C.ar     1 ZINC000001537619   -0.0700
14     C14    -3.1782   -9.1708    4.6817 C.ar     1 ZINC000001537619   -0.0300
15     C15    -3.3499  -10.4459    5.4200 C.2      1 ZINC000001537619    0.2300
16     N16    -3.4256  -11.6422    4.8965 N.2      1 ZINC000001537619   -0.3500
17     O17    -3.5642  -12.4715    5.7707 O.3      1 ZINC000001537619    0.1300
18     C18    -3.5916  -11.8757    6.9669 C.2      1 ZINC000001537619    0.0900
19     C19    -3.7480  -12.5562    8.3023 C.3      1 ZINC000001537619    0.5900
20     F20    -5.1064  -12.6440    8.6248 F        1 ZINC000001537619   -0.1500
21     F21    -3.2001  -13.8418    8.2375 F        1 ZINC000001537619   -0.1500
22     F22    -3.0825  -11.8147    9.2844 F        1 ZINC000001537619   -0.1400
23     N23    -3.4516  -10.5898    6.7608 N.2      1 ZINC000001537619   -0.4100
24     C24    -3.1067   -7.9650    5.3776 C.ar     1 ZINC000001537619   -0.0600
25     C25    -2.9409   -6.7821    4.6891 C.ar     1 ZINC000001537619   -0.1000
26     C26    -2.8635   -5.4782    5.4407 C.3      1 ZINC000001537619   -0.1100
27     C27     0.0244   -0.8570    1.1293 C.2      1 ZINC000001537619   -0.2300
28     H28     1.0042    1.8801    0.0026 H        1 ZINC000001537619    0.0800
29     H29    -0.5455    1.8639   -0.8728 H        1 ZINC000001537619    0.0800
30     H30    -0.5286    1.8543    0.9071 H        1 ZINC000001537619    0.0800
31     H31     0.5772   -4.1597    0.7626 H        1 ZINC000001537619    0.0900
32     H32     0.5717   -3.2672    2.3027 H        1 ZINC000001537619    0.1000
33     H33    -1.9013   -3.1144    2.2053 H        1 ZINC000001537619    0.0800
34     H34    -1.8958   -4.0069    0.6652 H        1 ZINC000001537619    0.0800
35     H35    -0.8357   -5.9447    1.7920 H        1 ZINC000001537619    0.0600
36     H36    -0.8412   -5.0523    3.3321 H        1 ZINC000001537619    0.0600
37     H37    -1.7854   -8.0948    0.8076 H        1 ZINC000001537619    0.0700
38     H38    -3.4026   -8.8313    0.7046 H        1 ZINC000001537619    0.0700
39     H39    -3.2302   -7.0597    0.7102 H        1 ZINC000001537619    0.0800
40     H40    -3.1431  -10.1086    2.7488 H        1 ZINC000001537619    0.1400
41     H41    -3.1770   -7.9580    6.4553 H        1 ZINC000001537619    0.1400
42     H42    -1.8247   -5.2654    5.6931 H        1 ZINC000001537619    0.0700
43     H43    -3.2577   -4.6755    4.8174 H        1 ZINC000001537619    0.0800
44     H44    -3.4521   -5.5505    6.3553 H        1 ZINC000001537619    0.0700
45     H45     0.0267   -0.5797    2.1731 H        1 ZINC000001537619    0.1700
@<TRIPOS>BOND
1     1     2     1
2     1     28    1
3     1     29    1
4     1     30    1
5     2     27    1
6     2     3     2
7     3     4     1
8     4     5     1
9     5     6     1
10    5     27    2
11    6     7     1
12    6     31    1
13    6     32    1
14    7     8     1
15    7     33    1
16    7     34    1
17    8     9     1
18    8     35    1
19    8     36    1
20    9     10    1
21    10    25    ar
22    10    11    ar
23    11    12    1
24    11    13    ar
25    12    37    1
26    12    38    1
27    12    39    1
28    13    14    ar
29    13    40    1
30    14    15    1
31    14    24    ar
32    15    23    1
33    15    16    2
34    16    17    1
35    17    18    1
36    18    19    1
37    18    23    2
38    19    20    1
39    19    21    1
40    19    22    1
41    24    25    ar
42    24    41    1
43    25    26    1
44    26    42    1
45    26    43    1
46    26    44    1
47    27    45    1
@<TRIPOS>SUBSTRUCTURE
1   ZINC000001537619 1     RESIDUE    1   A     ZIN   1
