@<TRIPOS>MOLECULE
ZINC000003986697
33    35    1     0     0
SMALL
USER_CHARGES
@<TRIPOS>ATOM
1      C1      0.9931    1.4389   -1.1391 C.ar     1 ZINC000003986697   -0.1800
2      C2      1.1095    2.0682    0.0856 C.ar     1 ZINC000003986697    0.1000
3      N3      1.2762    1.3681    1.1907 N.ar     1 ZINC000003986697   -0.4900
4      C4      1.3382    0.0511    1.1744 C.ar     1 ZINC000003986697    0.1100
5      C5      1.2300   -0.6472   -0.0136 C.ar     1 ZINC000003986697   -0.1400
6      C6      1.3030   -2.1524   -0.0234 C.3      1 ZINC000003986697    0.1600
7      H7      0.3939   -2.5615    0.4174 H        1 ZINC000003986697    0.0900
8      C8      1.4344   -2.6466   -1.4705 C.3      1 ZINC000003986697   -0.1500
9      C9      2.6819   -2.0021   -2.0446 C.3      1 ZINC000003986697   -0.1300
10     C10     3.9437   -2.3997   -1.3418 C.3      1 ZINC000003986697   -0.0800
11     C11     3.9007   -3.8278   -0.7959 C.3      1 ZINC000003986697   -0.1400
12     C12     2.8637   -3.9221    0.3211 C.3      1 ZINC000003986697    0.0700
13     N13     2.4430   -2.5810    0.7472 N.3      1 ZINC000003986697   -0.5700
14     C14     3.5148   -1.6619    0.9892 C.3      1 ZINC000003986697    0.0700
15     C15     4.3920   -1.4672   -0.2482 C.3      1 ZINC000003986697   -0.1500
16     C16     1.0536    0.0547   -1.1960 C.ar     1 ZINC000003986697   -0.0700
17     H17     0.8524    2.0176   -2.0400 H        1 ZINC000003986697    0.1300
18     H18     1.0639    3.1460    0.1384 H        1 ZINC000003986697    0.1600
19     H19     1.4755   -0.4883    2.1000 H        1 ZINC000003986697    0.1600
20     H20     1.5354   -3.7318   -1.4856 H        1 ZINC000003986697    0.0800
21     H21     0.5603   -2.3450   -2.0477 H        1 ZINC000003986697    0.0700
22     H22     2.7658   -2.2805   -3.0951 H        1 ZINC000003986697    0.0600
23     H23     2.5747   -0.9191   -1.9819 H        1 ZINC000003986697    0.0800
24     H24     4.7328   -2.3946   -2.0937 H        1 ZINC000003986697    0.0600
25     H25     3.6325   -4.5148   -1.5985 H        1 ZINC000003986697    0.0600
26     H26     4.8817   -4.0956   -0.4033 H        1 ZINC000003986697    0.0600
27     H27     1.9958   -4.4738   -0.0400 H        1 ZINC000003986697    0.0800
28     H28     3.2970   -4.4506    1.1701 H        1 ZINC000003986697    0.0700
29     H29     3.0970   -0.6982    1.2802 H        1 ZINC000003986697    0.0800
30     H30     4.1301   -2.0413    1.8051 H        1 ZINC000003986697    0.0700
31     H31     5.4302   -1.6805    0.0063 H        1 ZINC000003986697    0.0700
32     H32     4.3088   -0.4364   -0.5929 H        1 ZINC000003986697    0.0600
33     H33     0.9656   -0.4642   -2.1391 H        1 ZINC000003986697    0.1400
@<TRIPOS>BOND
1     1     16    ar
2     1     2     ar
3     1     17    1
4     2     3     ar
5     2     18    1
6     3     4     ar
7     4     5     ar
8     4     19    1
9     5     6     1
10    5     16    ar
11    6     7     1
12    6     13    1
13    6     8     1
14    8     9     1
15    8     20    1
16    8     21    1
17    9     10    1
18    9     22    1
19    9     23    1
20    10    15    1
21    10    11    1
22    10    24    1
23    11    12    1
24    11    25    1
25    11    26    1
26    12    13    1
27    12    27    1
28    12    28    1
29    13    14    1
30    14    15    1
31    14    29    1
32    14    30    1
33    15    31    1
34    15    32    1
35    16    33    1
@<TRIPOS>SUBSTRUCTURE
1   ZINC000003986697 1     RESIDUE    1   A     ZIN   1
