@<TRIPOS>MOLECULE
ZINC000031597280
  38   40    0    0    0
SMALL
USER_CHARGES
NO_NAME
@<TRIPOS>ATOM
    1 C1       -0.0184     1.5028     0.0103 C.3    1 <0>      -0.1300
    2 C2        0.0021    -0.0041     0.0020 C.2    1 <0>       0.0400
    3 C3        0.0061    -0.6954    -1.1674 C.2    1 <0>      -0.2600
    4 C4        0.0253    -2.1051    -1.1488 C.2    1 <0>       0.5100
    5 O5        0.0290    -2.7125    -2.2045 O.2    1 <0>      -0.4600
    6 O6        0.0399    -2.7950     0.0025 O.3    1 <0>      -0.2700
    7 C7        0.0370    -2.1693     1.1991 C.ar   1 <0>       0.1900
    8 C8        0.0528    -2.8969     2.3792 C.ar   1 <0>      -0.1600
    9 C9        0.0499    -2.2346     3.5962 C.ar   1 <0>       0.1700
   10 O10       0.0654    -2.9481     4.7509 O.3    1 <0>      -0.2700
   11 C11       0.0614    -2.2061     5.9721 C.3    1 <0>       0.0800
   12 H12      -0.8363    -1.5897     6.0220 H      1 <0>       0.1100
   13 S13       1.5342    -1.1436     6.0440 S.3    1 <0>      -0.2300
   14 C14       1.4415    -0.4710     7.7298 C.3    1 <0>      -0.1300
   15 C15       1.3150    -1.6324     8.7193 C.3    1 <0>       0.0700
   16 H16       2.1597    -2.3095     8.5924 H      1 <0>       0.0800
   17 O17       1.3133    -1.1208    10.0536 O.3    1 <0>      -0.5600
   18 C18       0.0153    -2.3912     8.4681 C.3    1 <0>       0.1200
   19 H19      -0.8103    -1.6815     8.4159 H      1 <0>       0.0700
   20 O20      -0.2140    -3.3013     9.5458 O.3    1 <0>      -0.5400
   21 C21       0.0869    -3.1722     7.1595 C.3    1 <0>       0.1300
   22 H22       1.0111    -3.7495     7.1327 H      1 <0>       0.0900
   23 O23      -1.0297    -4.0599     7.0751 O.3    1 <0>      -0.5300
   24 C24       0.0316    -0.8422     3.6445 C.ar   1 <0>      -0.2100
   25 C25       0.0154    -0.1106     2.4923 C.ar   1 <0>      -0.0100
   26 C26       0.0243    -0.7629     1.2543 C.ar   1 <0>      -0.1800
   27 H27       1.0042     1.8801     0.0026 H      1 <0>       0.0900
   28 H28      -0.5455     1.8639    -0.8728 H      1 <0>       0.0900
   29 H29      -0.5286     1.8543     0.9071 H      1 <0>       0.0800
   30 H30      -0.0058    -0.1665    -2.1090 H      1 <0>       0.1600
   31 H31       0.0670    -3.9764     2.3499 H      1 <0>       0.1600
   32 H32       2.3464     0.0967     7.9468 H      1 <0>       0.1200
   33 H33       0.5708     0.1790     7.8163 H      1 <0>       0.1000
   34 H34       2.1134    -0.6311    10.2881 H      1 <0>       0.3900
   35 H35      -0.2922    -2.8753    10.4104 H      1 <0>       0.3900
   36 H36      -1.0501    -4.5905     6.2669 H      1 <0>       0.3900
   37 H37       0.0299    -0.3386     4.5999 H      1 <0>       0.1600
   38 H38       0.0010     0.9684     2.5359 H      1 <0>       0.1500
@<TRIPOS>BOND
   1    1    2 1
   2    1   27 1
   3    1   28 1
   4    1   29 1
   5    2   26 1
   6    2    3 2
   7    3    4 1
   8    3   30 1
   9    4    5 2
  10    4    6 1
  11    6    7 1
  12    7   26 ar
  13    7    8 ar
  14    8    9 ar
  15    8   31 1
  16    9   10 1
  17    9   24 ar
  18   10   11 1
  19   11   12 1
  20   11   21 1
  21   11   13 1
  22   13   14 1
  23   14   15 1
  24   14   32 1
  25   14   33 1
  26   15   16 1
  27   15   17 1
  28   15   18 1
  29   17   34 1
  30   18   19 1
  31   18   20 1
  32   18   21 1
  33   20   35 1
  34   21   22 1
  35   21   23 1
  36   23   36 1
  37   24   25 ar
  38   24   37 1
  39   25   26 ar
  40   25   38 1
