@<TRIPOS>MOLECULE
ZINC000095921172
  27   27    0    0    0
SMALL
USER_CHARGES
NO_NAME
@<TRIPOS>ATOM
    1 C1       -0.0184     1.5028     0.0103 C.3    1 <0>      -0.0800
    2 C2        0.0021    -0.0041     0.0020 C.2    1 <0>       0.2800
    3 N3        0.0080    -0.7588    -1.0626 N.2    1 <0>      -0.4800
    4 C4        0.0278    -2.0475    -0.6911 C.2    1 <0>       0.1100
    5 C5        0.0345    -2.0930     0.6548 C.2    1 <0>      -0.0100
    6 N6        0.0554    -3.3107     1.4964 N.pl3  1 <0>       0.0600
    7 O7        0.0681    -4.4113     0.9749 O.2    1 <0>      -0.1300
    8 O8        0.0599    -3.2119     2.7104 O.2    1 <0>      -0.1700
    9 N9        0.0232    -0.7970     1.0950 N.pl3  1 <0>      -0.4400
   10 C10       0.0251    -0.3530     2.4911 C.3    1 <0>       0.0800
   11 C11       1.4682    -0.1843     2.9707 C.3    1 <0>       0.1100
   12 N12       1.4701     0.2597     4.3668 N.am   1 <0>      -1.1200
   13 S13       2.8603     0.1705     5.2621 S.o2   1 <0>       2.8000
   14 N14       3.9510     1.2126     4.5790 N.am   1 <0>      -1.2600
   15 O15       2.5473     0.7002     6.5430 O.2    1 <0>      -0.9700
   16 O16       3.3794    -1.1379     5.0678 O.2    1 <0>      -0.9700
   17 H17       1.0042     1.8801     0.0026 H      1 <0>       0.1000
   18 H18      -0.5455     1.8639    -0.8728 H      1 <0>       0.1100
   19 H19      -0.5286     1.8543     0.9071 H      1 <0>       0.0900
   20 H20       0.0365    -2.8993    -1.3550 H      1 <0>       0.2000
   21 H21      -0.4978     0.6001     2.5700 H      1 <0>       0.1200
   22 H22      -0.4787    -1.0960     3.1093 H      1 <0>       0.1200
   23 H23       1.9910    -1.1374     2.8918 H      1 <0>       0.0900
   24 H24       1.9720     0.5587     2.3524 H      1 <0>       0.0800
   25 H25       0.6570     0.6059     4.7667 H      1 <0>       0.4200
   26 H26       3.7036     1.7290     3.7960 H      1 <0>       0.4100
   27 H27       4.8373     1.3066     4.9618 H      1 <0>       0.4200
@<TRIPOS>BOND
   1    1    2 1
   2    1   17 1
   3    1   18 1
   4    1   19 1
   5    2    9 1
   6    2    3 2
   7    3    4 1
   8    4    5 2
   9    4   20 1
  10    5    6 1
  11    5    9 1
  12    6    7 2
  13    6    8 2
  14    9   10 1
  15   10   11 1
  16   10   21 1
  17   10   22 1
  18   11   12 1
  19   11   23 1
  20   11   24 1
  21   12   13 am
  22   12   25 1
  23   13   14 am
  24   13   15 2
  25   13   16 2
  26   14   26 1
  27   14   27 1
