@<TRIPOS>MOLECULE
ZINC000064526521
61    64    1     0     0
SMALL
USER_CHARGES
@<TRIPOS>ATOM
1      C1      1.6414   -2.0451    2.4037 C.3      1 ZINC000064526521   -0.1500
2      C2      1.0272   -1.4167    1.1512 C.3      1 ZINC000064526521   -0.0400
3      C3     -0.4617   -1.7626    1.0848 C.3      1 ZINC000064526521   -0.1500
4      C4      1.1932    0.0801    1.2071 C.2      1 ZINC000064526521    0.1600
5      C5      1.8601    0.8522    0.2986 C.2      1 ZINC000064526521   -0.2000
6      C6      2.5517    0.3712   -0.9205 C.ar     1 ZINC000064526521    0.3000
7      C7      3.8456    0.8071   -1.2214 C.ar     1 ZINC000064526521   -0.2500
8      C8      4.4509    0.3307   -2.3696 C.ar     1 ZINC000064526521    0.1800
9      N9      3.7929   -0.5177   -3.1446 N.ar     1 ZINC000064526521   -0.5000
10     C10     2.5669   -0.9144   -2.8353 C.ar     1 ZINC000064526521    0.5500
11     N11     1.9134   -1.8034   -3.6736 N.pl3    1 ZINC000064526521   -0.6200
12     C12     2.5838   -2.3527   -4.7666 C.ar     1 ZINC000064526521    0.3700
13     C13     1.8891   -3.1502   -5.6688 C.ar     1 ZINC000064526521   -0.1900
14     C14     2.5630   -3.6902   -6.7495 C.ar     1 ZINC000064526521   -0.0600
15     C15     3.9211   -3.4112   -6.8916 C.ar     1 ZINC000064526521    0.0000
16     N16     4.6432   -3.9359   -7.9701 N.3      1 ZINC000064526521   -0.4800
17     C17     4.5302   -5.3992   -8.0170 C.3      1 ZINC000064526521    0.0600
18     C18     5.2073   -5.9241   -9.2851 C.3      1 ZINC000064526521   -0.1400
19     C19     6.6807   -5.5072   -9.2810 C.3      1 ZINC000064526521    0.0200
20     N20     7.3218   -5.9580  -10.5235 N.4      1 ZINC000064526521   -0.3800
21     H21     6.8561   -5.5380  -11.3139 H        1 ZINC000064526521    0.4300
22     C22     8.7352   -5.5575  -10.5184 C.3      1 ZINC000064526521   -0.0500
23     C23     7.2278   -7.4208  -10.6202 C.3      1 ZINC000064526521   -0.0500
24     C24     6.7711   -3.9818   -9.1828 C.3      1 ZINC000064526521   -0.1400
25     C25     6.0486   -3.5133   -7.9177 C.3      1 ZINC000064526521    0.0500
26     C26     4.5481   -2.6068   -5.9515 C.ar     1 ZINC000064526521    0.1000
27     N27     3.8726   -2.1042   -4.9358 N.ar     1 ZINC000064526521   -0.4400
28     N28     1.9525   -0.4872   -1.7435 N.ar     1 ZINC000064526521   -0.5500
29     C29     1.7696    2.1913    0.7331 C.2      1 ZINC000064526521    0.1500
30     Cl30    2.4509    3.5721   -0.0686 Cl       1 ZINC000064526521    0.0200
31     N31     1.0825    2.2101    1.8445 N.2      1 ZINC000064526521   -0.2700
32     N32     0.7061    0.8987    2.1582 N.pl3    1 ZINC000064526521   -0.4500
33     H33     1.5213   -3.1277    2.3633 H        1 ZINC000064526521    0.0700
34     H34     2.7021   -1.7986    2.4510 H        1 ZINC000064526521    0.0600
35     H35     1.1383   -1.6566    3.2892 H        1 ZINC000064526521    0.0600
36     H36     1.5303   -1.8052    0.2658 H        1 ZINC000064526521    0.1100
37     H37    -0.9648   -1.3741    1.9703 H        1 ZINC000064526521    0.0600
38     H38    -0.8993   -1.3149    0.1925 H        1 ZINC000064526521    0.0700
39     H39    -0.5818   -2.8452    1.0444 H        1 ZINC000064526521    0.0700
40     H40     4.3602    1.5001   -0.5723 H        1 ZINC000064526521    0.1500
41     H41     5.4495    0.6474   -2.6318 H        1 ZINC000064526521    0.1700
42     H42     0.9897   -2.0437   -3.5004 H        1 ZINC000064526521    0.4300
43     H43     0.8365   -3.3460   -5.5275 H        1 ZINC000064526521    0.1400
44     H44     2.0489   -4.3137   -7.4660 H        1 ZINC000064526521    0.1400
45     H45     5.0162   -5.8293   -7.1412 H        1 ZINC000064526521    0.0500
46     H46     3.4776   -5.6822   -8.0237 H        1 ZINC000064526521    0.1000
47     H47     5.1369   -7.0115   -9.3118 H        1 ZINC000064526521    0.1000
48     H48     4.7130   -5.5052  -10.1616 H        1 ZINC000064526521    0.1000
49     H49     7.1846   -5.9587   -8.4265 H        1 ZINC000064526521    0.1400
50     H50     9.2109   -5.8920  -11.4403 H        1 ZINC000064526521    0.1300
51     H51     8.8050   -4.4721  -10.4466 H        1 ZINC000064526521    0.1300
52     H52     9.2383   -6.0112   -9.6645 H        1 ZINC000064526521    0.1200
53     H53     6.1791   -7.7180  -10.6240 H        1 ZINC000064526521    0.1200
54     H54     7.7035   -7.7553  -11.5421 H        1 ZINC000064526521    0.1300
55     H55     7.7309   -7.8745   -9.7664 H        1 ZINC000064526521    0.1200
56     H56     7.8179   -3.6816   -9.1365 H        1 ZINC000064526521    0.1000
57     H57     6.3013   -3.5324  -10.0577 H        1 ZINC000064526521    0.1000
58     H58     6.0988   -2.4264   -7.8523 H        1 ZINC000064526521    0.1100
59     H59     6.5275   -3.9522   -7.0424 H        1 ZINC000064526521    0.0600
60     H60     5.6003   -2.3859   -6.0546 H        1 ZINC000064526521    0.1600
61     H61     0.1883    0.6259    2.9317 H        1 ZINC000064526521    0.4500
@<TRIPOS>BOND
1     1     2     1
2     1     33    1
3     1     34    1
4     1     35    1
5     2     3     1
6     2     4     1
7     2     36    1
8     3     37    1
9     3     38    1
10    3     39    1
11    4     32    1
12    4     5     2
13    5     6     1
14    5     29    1
15    6     28    ar
16    6     7     ar
17    7     8     ar
18    7     40    1
19    8     9     ar
20    8     41    1
21    9     10    ar
22    10    11    1
23    10    28    ar
24    11    12    1
25    11    42    1
26    12    27    ar
27    12    13    ar
28    13    14    ar
29    13    43    1
30    14    15    ar
31    14    44    1
32    15    16    1
33    15    26    ar
34    16    25    1
35    16    17    1
36    17    18    1
37    17    45    1
38    17    46    1
39    18    19    1
40    18    47    1
41    18    48    1
42    19    20    1
43    19    24    1
44    19    49    1
45    20    21    1
46    20    22    1
47    20    23    1
48    22    50    1
49    22    51    1
50    22    52    1
51    23    53    1
52    23    54    1
53    23    55    1
54    24    25    1
55    24    56    1
56    24    57    1
57    25    58    1
58    25    59    1
59    26    27    ar
60    26    60    1
61    29    30    1
62    29    31    2
63    31    32    1
64    32    61    1
@<TRIPOS>SUBSTRUCTURE
1   ZINC000064526521 1     RESIDUE    1   A     ZIN   1
