@<TRIPOS>MOLECULE
ZINC000057297068
49    53    1     0     0
SMALL
USER_CHARGES
@<TRIPOS>ATOM
1      C1     -0.0187    1.5258    0.0104 C.3      1 ZINC000057297068   -0.1400
2      C2      0.0021   -0.0041    0.0020 C.3      1 ZINC000057297068   -0.0700
3      C3     -1.4117   -0.5257    0.0127 C.2      1 ZINC000057297068   -0.0900
4      C4     -2.0838   -0.8730   -1.0881 C.2      1 ZINC000057297068   -0.1700
5      C5     -3.4832   -1.4013   -0.7926 C.3      1 ZINC000057297068   -0.0700
6      H6     -4.0038   -1.6660   -1.7129 H        1 ZINC000057297068    0.1000
7      C7     -4.2508   -0.3157   -0.0176 C.3      1 ZINC000057297068    0.0800
8      N8     -3.4386    0.1226    1.1161 N.3      1 ZINC000057297068   -0.5700
9      C9     -4.1358    0.4800    2.3162 C.3      1 ZINC000057297068    0.0900
10     C10    -5.2166   -0.5013    2.7063 C.3      1 ZINC000057297068   -0.0900
11     C11    -4.5955   -1.8418    3.0522 C.2      1 ZINC000057297068   -0.1300
12     C12    -3.5510   -2.4743    2.5544 C.2      1 ZINC000057297068    0.0900
13     N13    -3.3698   -3.6752    3.2457 N.pl3    1 ZINC000057297068   -0.6000
14     C14    -4.3323   -3.8276    4.1892 C.ar     1 ZINC000057297068    0.1200
15     C15    -4.6010   -4.8320    5.1183 C.ar     1 ZINC000057297068   -0.1400
16     C16    -5.6987   -4.6425    5.9410 C.ar     1 ZINC000057297068   -0.0900
17     C17    -6.5020   -3.5172    5.8597 C.ar     1 ZINC000057297068   -0.1600
18     C18    -6.2593   -2.5126    4.9533 C.ar     1 ZINC000057297068   -0.0600
19     C19    -5.1568   -2.6832    4.1138 C.ar     1 ZINC000057297068   -0.1200
20     C20    -2.6081   -2.1524    1.4261 C.3      1 ZINC000057297068    0.0000
21     C21    -1.3368   -2.9407    1.6089 C.2      1 ZINC000057297068    0.4700
22     O22    -0.2816   -2.3652    1.7324 O.2      1 ZINC000057297068   -0.4800
23     O23    -1.3766   -4.2821    1.6345 O.3      1 ZINC000057297068   -0.3700
24     C24    -0.1138   -4.9758    1.8141 C.3      1 ZINC000057297068    0.0300
25     C25    -3.3035   -2.6304    0.1123 C.3      1 ZINC000057297068   -0.1000
26     C26    -2.2356   -0.7229    1.2851 C.3      1 ZINC000057297068    0.1600
27     H27    -1.6570   -0.4017    2.1512 H        1 ZINC000057297068    0.1000
28     H28     1.0039    1.9031    0.0027 H        1 ZINC000057297068    0.0500
29     H29    -0.5459    1.8868   -0.8726 H        1 ZINC000057297068    0.0500
30     H30    -0.5289    1.8773    0.9072 H        1 ZINC000057297068    0.0600
31     H31     0.5123   -0.3556   -0.8948 H        1 ZINC000057297068    0.0700
32     H32     0.5293   -0.3651    0.8851 H        1 ZINC000057297068    0.0800
33     H33    -1.6779   -0.7878   -2.0853 H        1 ZINC000057297068    0.1300
34     H34    -4.4475    0.5315   -0.6746 H        1 ZINC000057297068    0.0800
35     H35    -5.1938   -0.7244    0.3455 H        1 ZINC000057297068    0.0600
36     H36    -3.4150    0.5463    3.1312 H        1 ZINC000057297068    0.0700
37     H37    -4.5900    1.4609    2.1763 H        1 ZINC000057297068    0.0800
38     H38    -5.7578   -0.1189    3.5717 H        1 ZINC000057297068    0.0900
39     H39    -5.9091   -0.6270    1.8741 H        1 ZINC000057297068    0.0800
40     H40    -2.6565   -4.3100    3.0750 H        1 ZINC000057297068    0.4200
41     H41    -3.9830   -5.7145    5.1930 H        1 ZINC000057297068    0.1300
42     H42    -5.9373   -5.4002    6.6727 H        1 ZINC000057297068    0.1200
43     H43    -7.3450   -3.4264    6.5287 H        1 ZINC000057297068    0.1200
44     H44    -6.8888   -1.6371    4.8935 H        1 ZINC000057297068    0.1300
45     H45     0.5614   -4.7184    0.9981 H        1 ZINC000057297068    0.0700
46     H46     0.3327   -4.6779    2.7628 H        1 ZINC000057297068    0.0700
47     H47    -0.2874   -6.0519    1.8163 H        1 ZINC000057297068    0.1100
48     H48    -4.2775   -3.0589    0.3486 H        1 ZINC000057297068    0.0900
49     H49    -2.6813   -3.3777   -0.3802 H        1 ZINC000057297068    0.0800
@<TRIPOS>BOND
1     1     2     1
2     1     28    1
3     1     29    1
4     1     30    1
5     2     3     1
6     2     31    1
7     2     32    1
8     3     26    1
9     3     4     2
10    4     5     1
11    4     33    1
12    5     6     1
13    5     25    1
14    5     7     1
15    7     8     1
16    7     34    1
17    7     35    1
18    8     26    1
19    8     9     1
20    9     10    1
21    9     36    1
22    9     37    1
23    10    11    1
24    10    38    1
25    10    39    1
26    11    19    1
27    11    12    2
28    12    13    1
29    12    20    1
30    13    14    1
31    13    40    1
32    14    19    ar
33    14    15    ar
34    15    16    ar
35    15    41    1
36    16    17    ar
37    16    42    1
38    17    18    ar
39    17    43    1
40    18    19    ar
41    18    44    1
42    20    21    1
43    20    25    1
44    20    26    1
45    21    22    2
46    21    23    1
47    23    24    1
48    24    45    1
49    24    46    1
50    24    47    1
51    25    48    1
52    25    49    1
53    26    27    1
@<TRIPOS>SUBSTRUCTURE
1   ZINC000057297068 1     RESIDUE    1   A     ZIN   1
