@<TRIPOS>MOLECULE
ZINC000003797946
51    54    1     0     0
SMALL
USER_CHARGES
@<TRIPOS>ATOM
1      C1      1.0692   -2.4064    0.3684 C.3      1 ZINC000003797946   -0.6700
2      S2      0.2095   -0.8437    0.0380 S.o2     1 ZINC000003797946    2.6100
3      O3     -1.1512   -1.0836   -0.2939 O.2      1 ZINC000003797946   -0.9500
4      O4      0.5662    0.1356    1.0040 O.2      1 ZINC000003797946   -0.9500
5      N5      0.8823   -0.2917   -1.3708 N.am     1 ZINC000003797946   -1.0700
6      C6      2.2381    0.0413   -1.4137 C.ar     1 ZINC000003797946    0.1300
7      C7      2.6844    1.2194   -0.8284 C.ar     1 ZINC000003797946   -0.1000
8      C8      4.0257    1.5454   -0.8722 C.ar     1 ZINC000003797946   -0.1000
9      C9      4.9240    0.7008   -1.4983 C.ar     1 ZINC000003797946   -0.0800
10     C10     6.3869    1.0599   -1.5441 C.3      1 ZINC000003797946    0.0100
11     C11     7.0818    0.4916   -0.3336 C.2      1 ZINC000003797946    0.1900
12     N12     7.2306    1.0834    0.8147 N.2      1 ZINC000003797946   -0.3800
13     O13     7.8332    0.3677    1.5864 O.3      1 ZINC000003797946    0.0800
14     C14     8.1382   -0.7920    0.9836 C.2      1 ZINC000003797946    0.2200
15     C15     8.8668   -1.9308    1.5785 C.ar     1 ZINC000003797946   -0.0400
16     C16     9.1147   -3.0792    0.8148 C.ar     1 ZINC000003797946   -0.0400
17     C17     9.7862   -4.1390    1.3498 C.ar     1 ZINC000003797946   -0.1200
18     C18    10.2353   -4.0921    2.6675 C.ar     1 ZINC000003797946    0.1200
19     N19    10.9207   -4.9813    3.4618 N.pl3    1 ZINC000003797946   -0.5800
20     C20    11.1189   -4.4414    4.7036 C.2      1 ZINC000003797946    0.0900
21     C21    10.5830   -3.2124    4.7599 C.2      1 ZINC000003797946   -0.2000
22     C22    10.5875   -2.2854    5.9480 C.3      1 ZINC000003797946   -0.0600
23     C23     9.2809   -2.4485    6.7272 C.3      1 ZINC000003797946   -0.0100
24     N24     9.2853   -1.5449    7.8854 N.4      1 ZINC000003797946   -0.6400
25     H25    10.0648   -1.7705    8.4850 H        1 ZINC000003797946    0.4300
26     H26     9.3704   -0.5911    7.5674 H        1 ZINC000003797946    0.4400
27     H27     8.4236   -1.6525    8.3992 H        1 ZINC000003797946    0.4400
28     C28     9.9928   -2.9432    3.4456 C.ar     1 ZINC000003797946   -0.1100
29     C29     9.3115   -1.8601    2.8951 C.ar     1 ZINC000003797946   -0.0300
30     N30     7.6539   -0.7191   -0.2441 N.2      1 ZINC000003797946   -0.4700
31     C31     4.4832   -0.4727   -2.0819 C.ar     1 ZINC000003797946   -0.1000
32     C32     3.1441   -0.8076   -2.0368 C.ar     1 ZINC000003797946   -0.1200
33     H33     0.9510   -3.0737   -0.4853 H        1 ZINC000003797946    0.1300
34     H34     2.1289   -2.2105    0.5325 H        1 ZINC000003797946    0.1300
35     H35     0.6444   -2.8741    1.2567 H        1 ZINC000003797946    0.1300
36     H36     0.3349   -0.1997   -2.1663 H        1 ZINC000003797946    0.4300
37     H37     1.9832    1.8798   -0.3400 H        1 ZINC000003797946    0.1400
38     H38     4.3733    2.4612   -0.4174 H        1 ZINC000003797946    0.1300
39     H39     6.8345    0.6461   -2.4477 H        1 ZINC000003797946    0.1100
40     H40     6.4948    2.1446   -1.5491 H        1 ZINC000003797946    0.1100
41     H41     8.7703   -3.1257   -0.2078 H        1 ZINC000003797946    0.1500
42     H42     9.9700   -5.0180    0.7498 H        1 ZINC000003797946    0.1400
43     H43    11.2194   -5.8610    3.1831 H        1 ZINC000003797946    0.4300
44     H44    11.6311   -4.9321    5.5181 H        1 ZINC000003797946    0.1800
45     H45    11.4296   -2.5290    6.5958 H        1 ZINC000003797946    0.0900
46     H46    10.6795   -1.2550    5.6046 H        1 ZINC000003797946    0.1000
47     H47     8.4387   -2.2049    6.0794 H        1 ZINC000003797946    0.1300
48     H48     9.1889   -3.4789    7.0706 H        1 ZINC000003797946    0.1300
49     H49     9.1274   -0.9748    3.4857 H        1 ZINC000003797946    0.1300
50     H50     5.1874   -1.1301   -2.5701 H        1 ZINC000003797946    0.1300
51     H51     2.8004   -1.7244   -2.4926 H        1 ZINC000003797946    0.1300
@<TRIPOS>BOND
1     1     2     1
2     1     33    1
3     1     34    1
4     1     35    1
5     2     3     2
6     2     4     2
7     2     5     am
8     5     6     1
9     5     36    1
10    6     32    ar
11    6     7     ar
12    7     8     ar
13    7     37    1
14    8     9     ar
15    8     38    1
16    9     10    1
17    9     31    ar
18    10    11    1
19    10    39    1
20    10    40    1
21    11    30    1
22    11    12    2
23    12    13    1
24    13    14    1
25    14    15    1
26    14    30    2
27    15    29    ar
28    15    16    ar
29    16    17    ar
30    16    41    1
31    17    18    ar
32    17    42    1
33    18    28    ar
34    18    19    1
35    19    20    1
36    19    43    1
37    20    21    2
38    20    44    1
39    21    22    1
40    21    28    1
41    22    23    1
42    22    45    1
43    22    46    1
44    23    24    1
45    23    47    1
46    23    48    1
47    24    25    1
48    24    26    1
49    24    27    1
50    28    29    ar
51    29    49    1
52    31    32    ar
53    31    50    1
54    32    51    1
@<TRIPOS>SUBSTRUCTURE
1   ZINC000003797946 1     RESIDUE    1   A     ZIN   1
