@<TRIPOS>MOLECULE
ZINC000000187911
33    36    1     0     0
SMALL
USER_CHARGES
@<TRIPOS>ATOM
1      C1     -0.0165    1.3641    0.0095 C.2      1 ZINC000000187911    0.0500
2      C2      1.2390    1.8390    0.0001 C.2      1 ZINC000000187911   -0.1600
3      C3      1.6490    3.2892    0.0047 C.3      1 ZINC000000187911    0.0300
4      C4      1.8915    3.7471   -1.4104 C.2      1 ZINC000000187911   -0.1600
5      C5      3.0723    3.7784   -2.0482 C.2      1 ZINC000000187911    0.0500
6      N6      2.9030    4.2534   -3.3202 N.pl3    1 ZINC000000187911   -0.6000
7      C7      1.5754    4.5468   -3.5376 C.ar     1 ZINC000000187911    0.0900
8      C8      0.8711    5.0459   -4.6281 C.ar     1 ZINC000000187911   -0.1300
9      C9     -0.4904    5.2359   -4.5345 C.ar     1 ZINC000000187911   -0.1000
10     C10    -1.1683    4.9343   -3.3616 C.ar     1 ZINC000000187911   -0.1500
11     C11    -0.4960    4.4430   -2.2780 C.ar     1 ZINC000000187911   -0.0700
12     C12     0.8826    4.2366   -2.3529 C.ar     1 ZINC000000187911   -0.1000
13     C13     2.1351    0.6802   -0.0147 C.ar     1 ZINC000000187911   -0.1000
14     C14     3.5225    0.5267   -0.0291 C.ar     1 ZINC000000187911   -0.0700
15     C15     4.0662   -0.7270   -0.0415 C.ar     1 ZINC000000187911   -0.1500
16     C16     3.2499   -1.8495   -0.0397 C.ar     1 ZINC000000187911   -0.1000
17     C17     1.8781   -1.7209   -0.0255 C.ar     1 ZINC000000187911   -0.1300
18     C18     1.3031   -0.4545   -0.0128 C.ar     1 ZINC000000187911    0.0900
19     N19     0.0021   -0.0041    0.0020 N.pl3    1 ZINC000000187911   -0.6000
20     H20    -0.9091    1.9719    0.0254 H        1 ZINC000000187911    0.1700
21     H21     0.8557    3.8896    0.4500 H        1 ZINC000000187911    0.0800
22     H22     2.5633    3.4064    0.5863 H        1 ZINC000000187911    0.0800
23     H23     4.0162    3.4743   -1.6204 H        1 ZINC000000187911    0.1700
24     H24     3.6127    4.3668   -3.9717 H        1 ZINC000000187911    0.4200
25     H25     1.3896    5.2839   -5.5451 H        1 ZINC000000187911    0.1200
26     H26    -1.0356    5.6239   -5.3823 H        1 ZINC000000187911    0.1200
27     H27    -2.2356    5.0895   -3.3046 H        1 ZINC000000187911    0.1200
28     H28    -1.0301    4.2108   -1.3684 H        1 ZINC000000187911    0.1200
29     H29     4.1639    1.3956   -0.0309 H        1 ZINC000000187911    0.1200
30     H30     5.1396   -0.8453   -0.0530 H        1 ZINC000000187911    0.1200
31     H31     3.6944   -2.8337   -0.0499 H        1 ZINC000000187911    0.1200
32     H32     1.2514   -2.6005   -0.0239 H        1 ZINC000000187911    0.1200
33     H33    -0.7842   -0.5721    0.0072 H        1 ZINC000000187911    0.4200
@<TRIPOS>BOND
1     1     19    1
2     1     2     2
3     1     20    1
4     2     3     1
5     2     13    1
6     3     4     1
7     3     21    1
8     3     22    1
9     4     12    1
10    4     5     2
11    5     6     1
12    5     23    1
13    6     7     1
14    6     24    1
15    7     12    ar
16    7     8     ar
17    8     9     ar
18    8     25    1
19    9     10    ar
20    9     26    1
21    10    11    ar
22    10    27    1
23    11    12    ar
24    11    28    1
25    13    18    ar
26    13    14    ar
27    14    15    ar
28    14    29    1
29    15    16    ar
30    15    30    1
31    16    17    ar
32    16    31    1
33    17    18    ar
34    17    32    1
35    18    19    1
36    19    33    1
@<TRIPOS>SUBSTRUCTURE
1   ZINC000000187911 1     RESIDUE    1   A     ZIN   1
