@<TRIPOS>MOLECULE
ZINC000001488757
73    76    1     0     0
SMALL
USER_CHARGES
@<TRIPOS>ATOM
1      C1     -0.0572    1.4997   -0.0051 C.3      1 ZINC000001488757   -0.1300
2      C2     -0.0298   -0.0300   -0.0168 C.3      1 ZINC000001488757   -0.1100
3      C3      0.7051   -0.5364    1.2260 C.3      1 ZINC000001488757   -0.1400
4      C4     -1.4629   -0.5658   -0.0155 C.3      1 ZINC000001488757   -0.1400
5      C5      0.6849   -0.5102   -1.2536 C.2      1 ZINC000001488757    0.3400
6      O6      1.1267    0.2886   -2.0441 O.2      1 ZINC000001488757   -0.4200
7      C7      0.8482   -1.9873   -1.5038 C.3      1 ZINC000001488757    0.0700
8      N8      1.5711   -2.1925   -2.7614 N.am     1 ZINC000001488757   -0.5400
9      C9      0.8802   -2.3015   -3.9778 C.ar     1 ZINC000001488757    0.1600
10     C10    -0.0907   -1.3753   -4.3193 C.ar     1 ZINC000001488757   -0.1200
11     C11    -0.7512   -1.4845   -5.5301 C.ar     1 ZINC000001488757   -0.1100
12     C12    -0.4432   -2.5144   -6.3993 C.ar     1 ZINC000001488757   -0.1200
13     C13     0.5203   -3.4473   -6.0618 C.ar     1 ZINC000001488757   -0.1400
14     C14     1.1806   -3.3507   -4.8465 C.ar     1 ZINC000001488757    0.0700
15     N15     2.1230   -4.3120   -4.4760 N.3      1 ZINC000001488757   -0.4900
16     C16     1.9134   -5.5659   -5.2121 C.3      1 ZINC000001488757    0.0900
17     C17     2.8990   -6.6229   -4.7100 C.3      1 ZINC000001488757   -0.1200
18     C18     2.6806   -7.9289   -5.4767 C.3      1 ZINC000001488757   -0.1200
19     C19     1.2488   -8.4189   -5.2519 C.3      1 ZINC000001488757   -0.1200
20     C20     0.2632   -7.3619   -5.7540 C.3      1 ZINC000001488757   -0.1200
21     C21     0.4815   -6.0559   -4.9873 C.3      1 ZINC000001488757   -0.1200
22     C22     3.5001   -3.8349   -4.6325 C.3      1 ZINC000001488757    0.0600
23     C23     3.6353   -2.4130   -4.0948 C.3      1 ZINC000001488757    0.1500
24     H24     4.6906   -2.1789   -3.9553 H        1 ZINC000001488757    0.1400
25     N25     3.0533   -1.4736   -5.0566 N.am     1 ZINC000001488757   -0.7400
26     C26     3.4701   -0.1922   -5.0837 C.2      1 ZINC000001488757    0.7000
27     O27     4.3290    0.1842   -4.3098 O.2      1 ZINC000001488757   -0.5400
28     N28     2.9347    0.6720   -5.9685 N.am     1 ZINC000001488757   -0.6800
29     C29     3.2963    2.0239   -5.9331 C.ar     1 ZINC000001488757    0.1300
30     C30     2.3561    3.0025   -6.2320 C.ar     1 ZINC000001488757   -0.1500
31     C31     2.7074    4.3395   -6.1982 C.ar     1 ZINC000001488757   -0.1200
32     C32     3.9938    4.7116   -5.8674 C.ar     1 ZINC000001488757   -0.1000
33     C33     4.9472    3.7356   -5.5651 C.ar     1 ZINC000001488757   -0.1200
34     C34     6.3241    4.1301   -5.2104 C.2      1 ZINC000001488757    0.5200
35     O35     6.6328    5.3130   -5.1806 O.co2    1 ZINC000001488757   -0.6900
36     O36     7.1566    3.2741   -4.9462 O.co2    1 ZINC000001488757   -0.6800
37     C37     4.5905    2.3862   -5.5943 C.ar     1 ZINC000001488757   -0.0800
38     C38     2.9177   -2.2757   -2.7787 C.2      1 ZINC000001488757    0.5400
39     O39     3.5448   -2.2471   -1.7408 O.2      1 ZINC000001488757   -0.5100
40     H40     0.9638    1.8814   -0.0060 H        1 ZINC000001488757    0.0600
41     H41    -0.5808    1.8604   -0.8904 H        1 ZINC000001488757    0.0600
42     H42    -0.5742    1.8470    0.8895 H        1 ZINC000001488757    0.0600
43     H43     0.1882   -0.1891    2.1205 H        1 ZINC000001488757    0.0700
44     H44     0.7246   -1.6262    1.2176 H        1 ZINC000001488757    0.0600
45     H45     1.7261   -0.1547    1.2250 H        1 ZINC000001488757    0.0600
46     H46    -1.9865   -0.2051   -0.9008 H        1 ZINC000001488757    0.0600
47     H47    -1.4434   -1.6556   -0.0238 H        1 ZINC000001488757    0.0600
48     H48    -1.9799   -0.2185    0.8791 H        1 ZINC000001488757    0.0700
49     H49     1.4106   -2.4347   -0.6843 H        1 ZINC000001488757    0.1200
50     H50    -0.1339   -2.4556   -1.5687 H        1 ZINC000001488757    0.1100
51     H51    -0.3321   -0.5697   -3.6418 H        1 ZINC000001488757    0.1300
52     H52    -1.5096   -0.7634   -5.7967 H        1 ZINC000001488757    0.1300
53     H53    -0.9575   -2.5909   -7.3459 H        1 ZINC000001488757    0.1300
54     H54     0.7584   -4.2498   -6.7442 H        1 ZINC000001488757    0.1300
55     H55     2.0757   -5.3940   -6.2761 H        1 ZINC000001488757    0.0500
56     H56     3.9190   -6.2738   -4.8701 H        1 ZINC000001488757    0.0700
57     H57     2.7366   -6.7948   -3.6459 H        1 ZINC000001488757    0.0700
58     H58     2.8430   -7.7570   -6.5407 H        1 ZINC000001488757    0.0600
59     H59     3.3828   -8.6819   -5.1189 H        1 ZINC000001488757    0.0700
60     H60     1.0932   -9.3493   -5.7981 H        1 ZINC000001488757    0.0600
61     H61     1.0864   -8.5908   -4.1878 H        1 ZINC000001488757    0.0600
62     H62     0.4256   -7.1900   -6.8180 H        1 ZINC000001488757    0.0600
63     H63    -0.7569   -7.7110   -5.5938 H        1 ZINC000001488757    0.0600
64     H64     0.3192   -6.2278   -3.9233 H        1 ZINC000001488757    0.0700
65     H65    -0.2206   -5.3029   -5.3450 H        1 ZINC000001488757    0.0700
66     H66     4.1742   -4.4932   -4.0845 H        1 ZINC000001488757    0.1100
67     H67     3.7682   -3.8478   -5.6890 H        1 ZINC000001488757    0.0700
68     H68     2.3681   -1.7739   -5.6740 H        1 ZINC000001488757    0.4000
69     H69     2.2988    0.3573   -6.6299 H        1 ZINC000001488757    0.4000
70     H70     1.3473    2.7177   -6.4920 H        1 ZINC000001488757    0.1100
71     H71     1.9720    5.0951   -6.4319 H        1 ZINC000001488757    0.1200
72     H72     4.2642    5.7569   -5.8425 H        1 ZINC000001488757    0.1300
73     H73     5.3225    1.6270   -5.3617 H        1 ZINC000001488757    0.1400
@<TRIPOS>BOND
1     1     2     1
2     1     40    1
3     1     41    1
4     1     42    1
5     2     3     1
6     2     4     1
7     2     5     1
8     3     43    1
9     3     44    1
10    3     45    1
11    4     46    1
12    4     47    1
13    4     48    1
14    5     6     2
15    5     7     1
16    7     8     1
17    7     49    1
18    7     50    1
19    8     38    am
20    8     9     1
21    9     14    ar
22    9     10    ar
23    10    11    ar
24    10    51    1
25    11    12    ar
26    11    52    1
27    12    13    ar
28    12    53    1
29    13    14    ar
30    13    54    1
31    14    15    1
32    15    16    1
33    15    22    1
34    16    21    1
35    16    17    1
36    16    55    1
37    17    18    1
38    17    56    1
39    17    57    1
40    18    19    1
41    18    58    1
42    18    59    1
43    19    20    1
44    19    60    1
45    19    61    1
46    20    21    1
47    20    62    1
48    20    63    1
49    21    64    1
50    21    65    1
51    22    23    1
52    22    66    1
53    22    67    1
54    23    24    1
55    23    25    1
56    23    38    1
57    25    26    am
58    25    68    1
59    26    27    2
60    26    28    am
61    28    29    1
62    28    69    1
63    29    37    ar
64    29    30    ar
65    30    31    ar
66    30    70    1
67    31    32    ar
68    31    71    1
69    32    33    ar
70    32    72    1
71    33    34    1
72    33    37    ar
73    34    35    ar
74    34    36    ar
75    37    73    1
76    38    39    2
@<TRIPOS>SUBSTRUCTURE
1   ZINC000001488757 1     RESIDUE    1   A     ZIN   1
