@<TRIPOS>MOLECULE
ZINC000068205977
49    53    1     0     0
SMALL
USER_CHARGES
@<TRIPOS>ATOM
1      N1      0.0483    1.0376   -0.0215 N.pl3    1 ZINC000068205977   -0.7200
2      H2      0.0869    0.0684   -0.0202 H        1 ZINC000068205977    0.4500
3      H3      0.8681    1.5556   -0.0444 H        1 ZINC000068205977    0.4400
4      C4     -1.1048    1.6437    0.0018 C.cat    1 ZINC000068205977    0.5900
5      N5     -1.2824    3.0077   -0.0034 N.pl3    1 ZINC000068205977   -0.6600
6      C6     -2.7229    3.2844    0.0291 C.3      1 ZINC000068205977    0.3000
7      C7     -3.0701    4.0701    1.2673 C.ar     1 ZINC000068205977   -0.1000
8      C8     -4.3524    4.5593    1.4374 C.ar     1 ZINC000068205977   -0.0900
9      C9     -4.6782    5.2810    2.5718 C.ar     1 ZINC000068205977   -0.0900
10     C10    -3.7239    5.5165    3.5405 C.ar     1 ZINC000068205977   -0.0900
11     C11    -2.4302    5.0260    3.3743 C.ar     1 ZINC000068205977   -0.0200
12     C12    -1.4000    5.2757    4.4128 C.ar     1 ZINC000068205977   -0.1600
13     C13    -0.0965    4.7966    4.2606 C.ar     1 ZINC000068205977    0.1600
14     N14     0.7903    5.0416    5.2099 N.ar     1 ZINC000068205977   -0.5100
15     C15     0.4590    5.7262    6.2866 C.ar     1 ZINC000068205977    0.3100
16     N16    -0.7592    6.1959    6.4695 N.ar     1 ZINC000068205977   -0.5100
17     C17    -1.7053    6.0012    5.5669 C.ar     1 ZINC000068205977    0.1700
18     C18    -2.1091    4.2954    2.2324 C.ar     1 ZINC000068205977   -0.1000
19     C19    -3.1290    4.0540   -1.2013 C.ar     1 ZINC000068205977   -0.0600
20     C20    -4.3934    3.9011   -1.7487 C.ar     1 ZINC000068205977   -0.1500
21     C21    -4.7303    4.6237   -2.8779 C.ar     1 ZINC000068205977    0.1300
22     N22    -3.8654    5.4498   -3.4329 N.ar     1 ZINC000068205977   -0.4400
23     C23    -2.6542    5.6202   -2.9395 C.ar     1 ZINC000068205977    0.0700
24     C24    -1.7038    6.5768   -3.6123 C.3      1 ZINC000068205977    0.3200
25     F25    -2.4307    7.6052   -4.2216 F        1 ZINC000068205977   -0.1800
26     F26    -0.8365    7.1205   -2.6586 F        1 ZINC000068205977   -0.1900
27     C27    -2.2487    4.9362   -1.8095 C.ar     1 ZINC000068205977   -0.1300
28     C28    -3.4165    1.9454    0.0551 C.ar     1 ZINC000068205977   -0.0100
29     C29    -4.7433    1.5803    0.0898 C.ar     1 ZINC000068205977   -0.1000
30     C30    -5.0941    0.2406    0.1083 C.ar     1 ZINC000068205977   -0.0100
31     C31    -4.1152   -0.7352    0.0917 C.ar     1 ZINC000068205977   -0.1400
32     C32    -2.7789   -0.3806    0.0564 C.ar     1 ZINC000068205977    0.2000
33     F33    -1.8244   -1.3365    0.0402 F        1 ZINC000068205977   -0.1100
34     C34    -2.4191    0.9696    0.0316 C.ar     1 ZINC000068205977   -0.2000
35     H35    -0.5765    3.6726   -0.0250 H        1 ZINC000068205977    0.4500
36     H36    -5.1022    4.3775    0.6816 H        1 ZINC000068205977    0.1300
37     H37    -5.6810    5.6610    2.6995 H        1 ZINC000068205977    0.1400
38     H38    -3.9792    6.0803    4.4256 H        1 ZINC000068205977    0.1400
39     H39     0.1822    4.2347    3.3814 H        1 ZINC000068205977    0.1600
40     H40     1.2086    5.9076    7.0426 H        1 ZINC000068205977    0.2100
41     H41    -2.7010    6.3891    5.7236 H        1 ZINC000068205977    0.1700
42     H42    -1.1081    3.9126    2.0988 H        1 ZINC000068205977    0.1200
43     H43    -5.1060    3.2258   -1.2988 H        1 ZINC000068205977    0.1500
44     H44    -5.7132    4.5100   -3.3108 H        1 ZINC000068205977    0.1800
45     H45    -1.1257    6.0439   -4.3672 H        1 ZINC000068205977    0.1400
46     H46    -1.2556    5.0801   -1.4102 H        1 ZINC000068205977    0.1400
47     H47    -5.5115    2.3393    0.1029 H        1 ZINC000068205977    0.1600
48     H48    -6.1359   -0.0427    0.1363 H        1 ZINC000068205977    0.1700
49     H49    -4.3949   -1.7782    0.1067 H        1 ZINC000068205977    0.1700
@<TRIPOS>BOND
1     1     2     1
2     1     3     1
3     1     4     ar
4     4     34    1
5     4     5     ar
6     5     6     1
7     5     35    1
8     6     7     1
9     6     19    1
10    6     28    1
11    7     18    ar
12    7     8     ar
13    8     9     ar
14    8     36    1
15    9     10    ar
16    9     37    1
17    10    11    ar
18    10    38    1
19    11    12    1
20    11    18    ar
21    12    17    ar
22    12    13    ar
23    13    14    ar
24    13    39    1
25    14    15    ar
26    15    16    ar
27    15    40    1
28    16    17    ar
29    17    41    1
30    18    42    1
31    19    27    ar
32    19    20    ar
33    20    21    ar
34    20    43    1
35    21    22    ar
36    21    44    1
37    22    23    ar
38    23    24    1
39    23    27    ar
40    24    25    1
41    24    26    1
42    24    45    1
43    27    46    1
44    28    34    ar
45    28    29    ar
46    29    30    ar
47    29    47    1
48    30    31    ar
49    30    48    1
50    31    32    ar
51    31    49    1
52    32    33    1
53    32    34    ar
@<TRIPOS>SUBSTRUCTURE
1   ZINC000068205977 1     RESIDUE    1   A     ZIN   1
