@<TRIPOS>MOLECULE
ZINC000000602381
51    54    1     0     0
SMALL
USER_CHARGES
@<TRIPOS>ATOM
1      C1     -0.0187    1.5258    0.0104 C.3      1 ZINC000000602381   -0.1800
2      C2      0.0021   -0.0041    0.0020 C.3      1 ZINC000000602381    0.1200
3      N3      0.6878   -0.4765   -1.2033 N.pl3    1 ZINC000000602381   -0.3600
4      N4      0.1039   -0.7524   -2.4505 N.2      1 ZINC000000602381   -0.3000
5      C5      1.0682   -1.1459   -3.2402 C.2      1 ZINC000000602381    0.2000
6      N6      2.2153   -1.1321   -2.5624 N.2      1 ZINC000000602381   -0.5200
7      C7      2.0018   -0.7266   -1.3370 C.2      1 ZINC000000602381    0.2600
8      C8      3.0455   -0.5752   -0.2605 C.3      1 ZINC000000602381    0.1400
9      O9      3.5877    0.7462   -0.3052 O.3      1 ZINC000000602381   -0.2700
10     C10     4.5475    1.0494    0.6051 C.2      1 ZINC000000602381    0.3800
11     N11     4.9344    0.1388    1.4656 N.2      1 ZINC000000602381   -0.3300
12     N12     5.9202    0.4301    2.4103 N.pl3    1 ZINC000000602381   -0.2700
13     C13     6.4942    1.6771    2.4454 C.2      1 ZINC000000602381    0.1400
14     N14     7.3835    1.6678    3.4275 N.2      1 ZINC000000602381   -0.2400
15     N15     7.3928    0.5106    3.9908 N.2      1 ZINC000000602381   -0.2300
16     C16     6.5158   -0.2849    3.4068 C.2      1 ZINC000000602381    0.2500
17     C17     6.2320   -1.6897    3.7668 C.ar     1 ZINC000000602381   -0.0600
18     C18     5.2765   -2.4164    3.0553 C.ar     1 ZINC000000602381   -0.0700
19     C19     5.0161   -3.7278    3.3964 C.ar     1 ZINC000000602381   -0.1300
20     C20     5.6993   -4.3238    4.4414 C.ar     1 ZINC000000602381   -0.0700
21     C21     6.6480   -3.6108    5.1526 C.ar     1 ZINC000000602381   -0.1600
22     C22     6.9237   -2.2989    4.8182 C.ar     1 ZINC000000602381    0.1500
23     F23     7.8501   -1.6030    5.5130 F        1 ZINC000000602381   -0.1100
24     C24     6.0773    2.6528    1.5214 C.2      1 ZINC000000602381    0.0100
25     C25     5.1189    2.3349    0.6099 C.2      1 ZINC000000602381   -0.1100
26     C26     4.6591    3.3659   -0.3886 C.3      1 ZINC000000602381   -0.0200
27     C27     5.4230    4.6720   -0.1614 C.3      1 ZINC000000602381   -0.1500
28     C28     4.9278    2.8580   -1.8066 C.3      1 ZINC000000602381   -0.1400
29     C29     3.1599    3.6144   -0.2114 C.3      1 ZINC000000602381   -0.1500
30     H30     1.0039    1.9031    0.0027 H        1 ZINC000000602381    0.0700
31     H31    -0.5459    1.8868   -0.8726 H        1 ZINC000000602381    0.0700
32     H32    -0.5289    1.8773    0.9072 H        1 ZINC000000602381    0.0800
33     H33     0.5293   -0.3651    0.8851 H        1 ZINC000000602381    0.1000
34     H34    -1.0205   -0.3814    0.0098 H        1 ZINC000000602381    0.1100
35     H35     0.9537   -1.4358   -4.2742 H        1 ZINC000000602381    0.2200
36     H36     2.5896   -0.7480    0.7144 H        1 ZINC000000602381    0.1000
37     H37     3.8426   -1.3007   -0.4226 H        1 ZINC000000602381    0.1100
38     H38     4.7416   -1.9532    2.2394 H        1 ZINC000000602381    0.1400
39     H39     4.2764   -4.2905    2.8463 H        1 ZINC000000602381    0.1400
40     H40     5.4909   -5.3506    4.7035 H        1 ZINC000000602381    0.1400
41     H41     7.1772   -4.0819    5.9676 H        1 ZINC000000602381    0.1500
42     H42     6.5159    3.6397    1.5325 H        1 ZINC000000602381    0.1800
43     H43     6.4911    4.4949   -0.2876 H        1 ZINC000000602381    0.0600
44     H44     5.0905    5.4177   -0.8835 H        1 ZINC000000602381    0.0700
45     H45     5.2316    5.0338    0.8488 H        1 ZINC000000602381    0.0600
46     H46     4.3836    1.9275   -1.9684 H        1 ZINC000000602381    0.0700
47     H47     4.5953    3.6036   -2.5287 H        1 ZINC000000602381    0.0700
48     H48     5.9959    2.6809   -1.9328 H        1 ZINC000000602381    0.0600
49     H49     2.9685    3.9763    0.7988 H        1 ZINC000000602381    0.0600
50     H50     2.8274    4.3601   -0.9335 H        1 ZINC000000602381    0.0700
51     H51     2.6157    2.6839   -0.3732 H        1 ZINC000000602381    0.0700
@<TRIPOS>BOND
1     1     2     1
2     1     30    1
3     1     31    1
4     1     32    1
5     2     3     1
6     2     33    1
7     2     34    1
8     3     7     1
9     3     4     1
10    4     5     2
11    5     6     1
12    5     35    1
13    6     7     2
14    7     8     1
15    8     9     1
16    8     36    1
17    8     37    1
18    9     10    1
19    10    25    1
20    10    11    2
21    11    12    1
22    12    16    1
23    12    13    1
24    13    14    2
25    13    24    1
26    14    15    1
27    15    16    2
28    16    17    1
29    17    22    ar
30    17    18    ar
31    18    19    ar
32    18    38    1
33    19    20    ar
34    19    39    1
35    20    21    ar
36    20    40    1
37    21    22    ar
38    21    41    1
39    22    23    1
40    24    25    2
41    24    42    1
42    25    26    1
43    26    27    1
44    26    28    1
45    26    29    1
46    27    43    1
47    27    44    1
48    27    45    1
49    28    46    1
50    28    47    1
51    28    48    1
52    29    49    1
53    29    50    1
54    29    51    1
@<TRIPOS>SUBSTRUCTURE
1   ZINC000000602381 1     RESIDUE    1   A     ZIN   1
