@<TRIPOS>MOLECULE
ZINC000004215770
82    88    1     0     0
SMALL
USER_CHARGES
@<TRIPOS>ATOM
1      C1     -0.0173    1.4248    0.0099 C.3      1 ZINC000004215770    0.0300
2      O2      0.0021   -0.0041    0.0020 O.3      1 ZINC000004215770   -0.3700
3      C3      0.6518   -0.5703   -1.1379 C.3      1 ZINC000004215770    0.1100
4      H4      0.5373    0.0973   -1.9919 H        1 ZINC000004215770    0.0800
5      C5      0.0248   -1.9296   -1.4624 C.3      1 ZINC000004215770    0.0900
6      H6      0.0940   -2.5802   -0.5905 H        1 ZINC000004215770    0.0900
7      N7     -1.3864   -1.7450   -1.8264 N.3      1 ZINC000004215770   -0.8300
8      C8      0.7782   -2.5635   -2.6347 C.3      1 ZINC000004215770    0.2600
9      H9      0.3636   -3.5500   -2.8424 H        1 ZINC000004215770    0.1300
10     O10     0.6422   -1.7361   -3.7918 O.3      1 ZINC000004215770   -0.3600
11     C11     1.1140   -2.3409   -4.9975 C.3      1 ZINC000004215770    0.0900
12     H12     1.9251   -3.0311   -4.7656 H        1 ZINC000004215770    0.1000
13     C13    -0.0308   -3.1040   -5.6691 C.3      1 ZINC000004215770    0.2400
14     H14    -0.8582   -2.4214   -5.8630 H        1 ZINC000004215770    0.0800
15     O15    -0.4723   -4.1555   -4.8081 O.3      1 ZINC000004215770   -0.2700
16     C16    -1.5568   -4.8671   -5.2101 C.ar     1 ZINC000004215770    0.1600
17     C17    -2.0523   -5.9151   -4.4092 C.ar     1 ZINC000004215770   -0.0400
18     C18    -3.1895   -6.6423   -4.8423 C.ar     1 ZINC000004215770   -0.0300
19     C19    -3.7916   -6.3058   -6.0678 C.ar     1 ZINC000004215770   -0.1200
20     C20    -3.2896   -5.2902   -6.8228 C.ar     1 ZINC000004215770   -0.0600
21     C21    -2.1811   -4.5641   -6.4001 C.ar     1 ZINC000004215770   -0.1800
22     C22    -3.7329   -7.6971   -4.0662 C.ar     1 ZINC000004215770    0.2100
23     O23    -4.8155   -8.3852   -4.5033 O.3      1 ZINC000004215770   -0.4700
24     C24    -3.1425   -8.0133   -2.8586 C.ar     1 ZINC000004215770   -0.1700
25     C25    -3.6173   -9.0484   -1.9294 C.2      1 ZINC000004215770    0.5400
26     O26    -4.7712   -9.4306   -1.9684 O.2      1 ZINC000004215770   -0.4100
27     O27    -2.7501   -9.5708   -1.0289 O.3      1 ZINC000004215770   -0.2800
28     C28    -1.7905   -8.7853   -0.4832 C.ar     1 ZINC000004215770    0.1200
29     C29    -1.1907   -9.0855    0.7307 C.ar     1 ZINC000004215770   -0.0800
30     C30    -0.1900   -8.2708    1.2393 C.ar     1 ZINC000004215770   -0.1000
31     C31     0.2448   -7.1393    0.5724 C.ar     1 ZINC000004215770   -0.0100
32     C32     1.3400   -6.2827    1.1537 C.3      1 ZINC000004215770   -0.1400
33     C33    -0.3426   -6.8048   -0.6409 C.ar     1 ZINC000004215770   -0.1400
34     C34    -1.3581   -7.6382   -1.1497 C.ar     1 ZINC000004215770   -0.0600
35     C35    -1.9612   -7.2586   -2.4320 C.ar     1 ZINC000004215770   -0.1100
36     C36    -1.4164   -6.2411   -3.1917 C.ar     1 ZINC000004215770    0.1700
37     O37    -0.2900   -5.6187   -2.7696 O.3      1 ZINC000004215770   -0.2500
38     C38     0.0033   -5.6230   -1.4468 C.2      1 ZINC000004215770    0.5200
39     O39     0.5456   -4.6634   -0.9327 O.2      1 ZINC000004215770   -0.4000
40     O40     0.4281   -3.6593   -6.9033 O.3      1 ZINC000004215770   -0.3800
41     C41     0.8707   -2.6866   -7.8520 C.3      1 ZINC000004215770    0.0600
42     H42     0.0551   -1.9985   -8.0745 H        1 ZINC000004215770    0.0800
43     C43     1.3094   -3.3905   -9.1376 C.3      1 ZINC000004215770   -0.1500
44     C44     2.0516   -1.9067   -7.2681 C.3      1 ZINC000004215770    0.0500
45     H45     2.3623   -1.1349   -7.9723 H        1 ZINC000004215770    0.0800
46     O46     3.1410   -2.7996   -7.0269 O.3      1 ZINC000004215770   -0.5400
47     C47     1.6228   -1.2546   -5.9500 C.3      1 ZINC000004215770    0.1500
48     C48     0.5036   -0.2464   -6.2181 C.3      1 ZINC000004215770   -0.1800
49     O49     2.7403   -0.5856   -5.3619 O.3      1 ZINC000004215770   -0.5300
50     O50     2.1614   -2.6891   -2.2983 O.3      1 ZINC000004215770   -0.3600
51     C51     2.8120   -1.4452   -2.0309 C.3      1 ZINC000004215770    0.0500
52     H52     2.7350   -0.7993   -2.9056 H        1 ZINC000004215770    0.0900
53     C53     4.2868   -1.6989   -1.7123 C.3      1 ZINC000004215770   -0.1500
54     C54     2.1408   -0.7643   -0.8352 C.3      1 ZINC000004215770    0.0600
55     H55     2.6079    0.2046   -0.6583 H        1 ZINC000004215770    0.0600
56     O56     2.2879   -1.5844    0.3258 O.3      1 ZINC000004215770   -0.5400
57     H57     1.0053    1.8021    0.0021 H        1 ZINC000004215770    0.0400
58     H58    -0.5445    1.7859   -0.8732 H        1 ZINC000004215770    0.0400
59     H59    -0.5275    1.7763    0.9067 H        1 ZINC000004215770    0.0900
60     H60    -1.8220   -2.6285   -2.0450 H        1 ZINC000004215770    0.3400
61     H61    -1.8888   -1.2654   -1.0946 H        1 ZINC000004215770    0.3500
62     H62    -4.6555   -6.8554   -6.4115 H        1 ZINC000004215770    0.1500
63     H63    -3.7619   -5.0416   -7.7617 H        1 ZINC000004215770    0.1400
64     H64    -1.8008   -3.7616   -7.0148 H        1 ZINC000004215770    0.1400
65     H65    -4.5988   -9.1599   -5.0399 H        1 ZINC000004215770    0.4100
66     H66    -1.5049   -9.9586    1.2833 H        1 ZINC000004215770    0.1500
67     H67     0.2635   -8.5273    2.1853 H        1 ZINC000004215770    0.1500
68     H68     2.3070   -6.6385    0.7981 H        1 ZINC000004215770    0.0800
69     H69     1.1963   -5.2482    0.8417 H        1 ZINC000004215770    0.1000
70     H70     1.3088   -6.3418    2.2416 H        1 ZINC000004215770    0.0800
71     H71     0.4686   -3.9464   -9.5526 H        1 ZINC000004215770    0.0800
72     H72     1.6469   -2.6484   -9.8612 H        1 ZINC000004215770    0.0800
73     H73     2.1252   -4.0782   -8.9151 H        1 ZINC000004215770    0.0700
74     H74     3.4619   -3.2516   -7.8192 H        1 ZINC000004215770    0.3800
75     H75    -0.3489   -0.7597   -6.6630 H        1 ZINC000004215770    0.0600
76     H76     0.1994    0.2169   -5.2796 H        1 ZINC000004215770    0.0900
77     H77     0.8629    0.5218   -6.9028 H        1 ZINC000004215770    0.0700
78     H78     3.1169    0.1121   -5.9154 H        1 ZINC000004215770    0.3800
79     H79     4.7645   -2.1830   -2.5640 H        1 ZINC000004215770    0.0700
80     H80     4.7830   -0.7500   -1.5084 H        1 ZINC000004215770    0.0700
81     H81     4.3636   -2.3444   -0.8373 H        1 ZINC000004215770    0.0600
82     H82     3.2070   -1.7540    0.5736 H        1 ZINC000004215770    0.3700
@<TRIPOS>BOND
1     1     2     1
2     1     57    1
3     1     58    1
4     1     59    1
5     2     3     1
6     3     4     1
7     3     54    1
8     3     5     1
9     5     6     1
10    5     7     1
11    5     8     1
12    7     60    1
13    7     61    1
14    8     9     1
15    8     10    1
16    8     50    1
17    10    11    1
18    11    12    1
19    11    47    1
20    11    13    1
21    13    14    1
22    13    15    1
23    13    40    1
24    15    16    1
25    16    21    ar
26    16    17    ar
27    17    36    ar
28    17    18    ar
29    18    19    ar
30    18    22    ar
31    19    20    ar
32    19    62    1
33    20    21    ar
34    20    63    1
35    21    64    1
36    22    23    1
37    22    24    ar
38    23    65    1
39    24    35    ar
40    24    25    1
41    25    26    2
42    25    27    1
43    27    28    1
44    28    34    ar
45    28    29    ar
46    29    30    ar
47    29    66    1
48    30    31    ar
49    30    67    1
50    31    32    1
51    31    33    ar
52    32    68    1
53    32    69    1
54    32    70    1
55    33    38    1
56    33    34    ar
57    34    35    1
58    35    36    ar
59    36    37    1
60    37    38    1
61    38    39    2
62    40    41    1
63    41    42    1
64    41    43    1
65    41    44    1
66    43    71    1
67    43    72    1
68    43    73    1
69    44    45    1
70    44    46    1
71    44    47    1
72    46    74    1
73    47    48    1
74    47    49    1
75    48    75    1
76    48    76    1
77    48    77    1
78    49    78    1
79    50    51    1
80    51    52    1
81    51    53    1
82    51    54    1
83    53    79    1
84    53    80    1
85    53    81    1
86    54    55    1
87    54    56    1
88    56    82    1
@<TRIPOS>SUBSTRUCTURE
1   ZINC000004215770 1     RESIDUE    1   A     ZIN   1
