@<TRIPOS>MOLECULE
ZINC000003780932
  53   52    0    0    0
SMALL
USER_CHARGES
NO_NAME
@<TRIPOS>ATOM
    1 C1       -0.0187     1.5258     0.0104 C.3    1 <0>      -0.2000
    2 C2        0.0021    -0.0041     0.0020 C.3    1 <0>      -0.0100
    3 N3        0.6897    -0.4778    -1.2066 N.4    1 <0>      -0.5100
    4 H4        0.2017    -0.1436    -2.0240 H      1 <0>       0.4300
    5 H5        1.6363    -0.1286    -1.2138 H      1 <0>       0.4300
    6 C6        0.7096    -1.9467    -1.2147 C.3    1 <0>       0.0000
    7 C7        1.4257    -2.4401    -2.4735 C.3    1 <0>      -0.1900
    8 C8        1.4465    -3.9699    -2.4819 C.3    1 <0>       0.0000
    9 N9        2.1341    -4.4437    -3.6905 N.4    1 <0>      -0.5100
   10 H10       1.6461    -4.1094    -4.5079 H      1 <0>       0.4400
   11 H11       3.0807    -4.0944    -3.6977 H      1 <0>       0.4400
   12 C12       2.1540    -5.9125    -3.6986 C.3    1 <0>       0.0000
   13 C13       2.8701    -6.4059    -4.9574 C.3    1 <0>      -0.1900
   14 C14       2.8909    -7.9358    -4.9658 C.3    1 <0>       0.0000
   15 N15       3.5785    -8.4095    -6.1744 N.4    1 <0>      -0.5100
   16 H16       3.0905    -8.0753    -6.9918 H      1 <0>       0.4400
   17 H17       4.5251    -8.0603    -6.1816 H      1 <0>       0.4400
   18 C18       3.5984    -9.8783    -6.1825 C.3    1 <0>       0.0000
   19 C19       4.3145   -10.3718    -7.4413 C.3    1 <0>      -0.1900
   20 C20       4.3353   -11.9016    -7.4497 C.3    1 <0>       0.0000
   21 N21       5.0229   -12.3753    -8.6583 N.4    1 <0>      -0.5100
   22 H22       4.5349   -12.0411    -9.4757 H      1 <0>       0.4300
   23 H23       5.9695   -12.0261    -8.6655 H      1 <0>       0.4300
   24 C24       5.0428   -13.8442    -8.6664 C.3    1 <0>      -0.0100
   25 C25       5.7590   -14.3376    -9.9252 C.3    1 <0>      -0.2000
   26 H26       1.0039     1.9031     0.0027 H      1 <0>       0.0800
   27 H27      -0.5459     1.8868    -0.8726 H      1 <0>       0.0800
   28 H28      -0.5289     1.8773     0.9072 H      1 <0>       0.1200
   29 H29       0.5293    -0.3651     0.8851 H      1 <0>       0.1400
   30 H30      -1.0205    -0.3814     0.0098 H      1 <0>       0.1400
   31 H31       1.2368    -2.3077    -0.3316 H      1 <0>       0.1400
   32 H32      -0.3130    -2.3239    -1.2069 H      1 <0>       0.1400
   33 H33       0.8985    -2.0790    -3.3565 H      1 <0>       0.1100
   34 H34       2.4483    -2.0628    -2.4812 H      1 <0>       0.1100
   35 H35       1.9737    -4.3310    -1.5988 H      1 <0>       0.1500
   36 H36       0.4239    -4.3472    -2.4742 H      1 <0>       0.1500
   37 H37       2.6812    -6.2736    -2.8155 H      1 <0>       0.1500
   38 H38       1.1314    -6.2898    -3.6908 H      1 <0>       0.1500
   39 H39       2.3429    -6.0448    -5.8404 H      1 <0>       0.1200
   40 H40       3.8927    -6.0286    -4.9651 H      1 <0>       0.1200
   41 H41       3.4181    -8.2968    -4.0827 H      1 <0>       0.1500
   42 H42       1.8683    -8.3130    -4.9581 H      1 <0>       0.1500
   43 H43       4.1256   -10.2394    -5.2994 H      1 <0>       0.1500
   44 H44       2.5758   -10.2556    -6.1747 H      1 <0>       0.1500
   45 H45       3.7873   -10.0107    -8.3243 H      1 <0>       0.1100
   46 H46       5.3371    -9.9945    -7.4490 H      1 <0>       0.1100
   47 H47       4.8625   -12.2627    -6.5666 H      1 <0>       0.1400
   48 H48       3.3127   -12.2789    -7.4420 H      1 <0>       0.1400
   49 H49       5.5700   -14.2053    -7.7833 H      1 <0>       0.1400
   50 H50       4.0202   -14.2215    -8.6586 H      1 <0>       0.1400
   51 H51       5.2318   -13.9765   -10.8082 H      1 <0>       0.0800
   52 H52       6.7815   -13.9603    -9.9329 H      1 <0>       0.0800
   53 H53       5.7737   -15.4275    -9.9312 H      1 <0>       0.1200
@<TRIPOS>BOND
   1    1    2 1
   2    1   26 1
   3    1   27 1
   4    1   28 1
   5    2    3 1
   6    2   29 1
   7    2   30 1
   8    3    4 1
   9    3    5 1
  10    3    6 1
  11    6    7 1
  12    6   31 1
  13    6   32 1
  14    7    8 1
  15    7   33 1
  16    7   34 1
  17    8    9 1
  18    8   35 1
  19    8   36 1
  20    9   10 1
  21    9   11 1
  22    9   12 1
  23   12   13 1
  24   12   37 1
  25   12   38 1
  26   13   14 1
  27   13   39 1
  28   13   40 1
  29   14   15 1
  30   14   41 1
  31   14   42 1
  32   15   16 1
  33   15   17 1
  34   15   18 1
  35   18   19 1
  36   18   43 1
  37   18   44 1
  38   19   20 1
  39   19   45 1
  40   19   46 1
  41   20   21 1
  42   20   47 1
  43   20   48 1
  44   21   22 1
  45   21   23 1
  46   21   24 1
  47   24   25 1
  48   24   49 1
  49   24   50 1
  50   25   51 1
  51   25   52 1
  52   25   53 1
