@<TRIPOS>MOLECULE
ZINC000136639443
72    73    1     0     0
SMALL
USER_CHARGES
@<TRIPOS>ATOM
1      N1     -0.0116    1.0048    0.0076 N.4      1 ZINC000136639443   -0.6400
2      H2      0.0021   -0.0041    0.0020 H        1 ZINC000136639443    0.4300
3      H3      0.9350    1.3541    0.0004 H        1 ZINC000136639443    0.4400
4      H4     -0.4996    1.3391   -0.8099 H        1 ZINC000136639443    0.4400
5      C5     -0.6992    1.4786    1.2162 C.3      1 ZINC000136639443   -0.0100
6      C6      0.0408    0.9717    2.4557 C.3      1 ZINC000136639443   -0.1500
7      C7     -0.6753    1.4652    3.7145 C.3      1 ZINC000136639443   -0.1100
8      C8      0.0647    0.9583    4.9540 C.3      1 ZINC000136639443   -0.1200
9      C9     -0.6520    1.4521    6.2138 C.3      1 ZINC000136639443    0.1300
10     H10    -1.6966    1.1524    6.1823 H        1 ZINC000136639443    0.1100
11     N11    -0.5499    2.9287    6.2886 N.am     1 ZINC000136639443   -0.7200
12     C12    -1.6272    3.5717    6.8155 C.2      1 ZINC000136639443    0.5400
13     O13    -2.6966    2.9910    6.8977 O.2      1 ZINC000136639443   -0.5300
14     C14    -1.5133    4.9799    7.3285 C.3      1 ZINC000136639443    0.1300
15     H15    -2.0723    5.6489    6.6626 H        1 ZINC000136639443    0.1100
16     C16    -0.0561    5.4395    7.3808 C.3      1 ZINC000136639443   -0.1000
17     C17    -0.0003    6.9132    7.7884 C.3      1 ZINC000136639443   -0.1800
18     C18     1.4361    7.3661    7.8399 C.2      1 ZINC000136639443    0.4900
19     O19     2.3321    6.5829    7.5753 O.co2    1 ZINC000136639443   -0.7000
20     O20     1.7021    8.5158    8.1463 O.co2    1 ZINC000136639443   -0.7000
21     N21    -2.1029    5.0599    8.6890 N.am     1 ZINC000136639443   -0.7200
22     C22    -1.8544    4.0028    9.5191 C.2      1 ZINC000136639443    0.5700
23     O23    -1.3909    2.9538    9.1152 O.2      1 ZINC000136639443   -0.4700
24     C24    -2.1145    4.1678   10.9645 C.ar     1 ZINC000136639443   -0.1600
25     C25    -2.2901    5.4427   11.5057 C.ar     1 ZINC000136639443   -0.0100
26     C26    -2.5133    5.5918   12.8578 C.ar     1 ZINC000136639443   -0.0600
27     N27    -2.7028    6.9444   13.4282 N.pl3    1 ZINC000136639443    0.0300
28     O28    -2.6612    7.9223   12.7033 O.2      1 ZINC000136639443   -0.1500
29     O29    -2.9002    7.0795   14.6225 O.2      1 ZINC000136639443   -0.1600
30     C30    -2.5595    4.4817   13.6843 C.ar     1 ZINC000136639443   -0.0200
31     C31    -2.3901    3.2147   13.1622 C.ar     1 ZINC000136639443   -0.1500
32     C32    -2.1753    3.0453   11.8020 C.ar     1 ZINC000136639443    0.2200
33     O33    -2.0574    1.7990   11.2845 O.3      1 ZINC000136639443   -0.3200
34     C34    -0.7755    1.1736   11.3149 C.3      1 ZINC000136639443    0.0800
35     C35    -0.8940   -0.2424   10.7451 C.3      1 ZINC000136639443   -0.1200
36     C36    -0.0223   -0.3708    9.4943 C.3      1 ZINC000136639443    0.1300
37     H37     0.9094    0.1736    9.6396 H        1 ZINC000136639443    0.1200
38     C38     0.2771   -1.8275    9.2395 C.2      1 ZINC000136639443    0.5000
39     O39    -0.3551   -2.4396    8.4049 O.2      1 ZINC000136639443   -0.5600
40     N40     1.2472   -2.4485    9.9393 N.am     1 ZINC000136639443   -0.6900
41     C41     1.5380   -3.8629    9.6919 C.3      1 ZINC000136639443    0.0500
42     C42     2.6557   -4.3119   10.5975 C.2      1 ZINC000136639443    0.4900
43     O43     3.1625   -3.5235   11.3773 O.co2    1 ZINC000136639443   -0.6900
44     O44     3.0533   -5.4635   10.5503 O.co2    1 ZINC000136639443   -0.6900
45     N45    -0.7667    0.1930    8.3397 N.am     1 ZINC000136639443   -0.6900
46     C46     0.0133    0.8623    7.4320 C.2      1 ZINC000136639443    0.5200
47     O47     1.2086    0.9818    7.5983 O.2      1 ZINC000136639443   -0.5300
48     H48    -0.7140    2.5685    1.2222 H        1 ZINC000136639443    0.1300
49     H49    -1.7218    1.1013    1.2239 H        1 ZINC000136639443    0.1300
50     H50     0.0556   -0.1181    2.4497 H        1 ZINC000136639443    0.0900
51     H51     1.0634    1.3490    2.4480 H        1 ZINC000136639443    0.0900
52     H52    -0.6901    2.5550    3.7205 H        1 ZINC000136639443    0.0800
53     H53    -1.6979    1.0879    3.7222 H        1 ZINC000136639443    0.0800
54     H54     0.0794   -0.1316    4.9480 H        1 ZINC000136639443    0.0800
55     H55     1.0873    1.3356    4.9463 H        1 ZINC000136639443    0.0900
56     H56     0.2401    3.3785    5.9497 H        1 ZINC000136639443    0.4100
57     H57     0.4880    4.8399    8.1106 H        1 ZINC000136639443    0.0700
58     H58     0.3991    5.3168    6.3980 H        1 ZINC000136639443    0.0700
59     H59    -0.5444    7.5128    7.0586 H        1 ZINC000136639443    0.0600
60     H60    -0.4555    7.0358    8.7712 H        1 ZINC000136639443    0.0600
61     H61    -2.6424    5.8256    8.9693 H        1 ZINC000136639443    0.4200
62     H62    -2.2477    6.3136   10.8682 H        1 ZINC000136639443    0.1600
63     H63    -2.7287    4.6079   14.7435 H        1 ZINC000136639443    0.1600
64     H64    -2.4241    2.3539   13.8132 H        1 ZINC000136639443    0.1600
65     H65    -0.0711    1.7494   10.7157 H        1 ZINC000136639443    0.0800
66     H66    -0.4181    1.1211   12.3435 H        1 ZINC000136639443    0.0600
67     H67    -0.5645   -0.9631   11.4934 H        1 ZINC000136639443    0.1000
68     H68    -1.9342   -0.4409   10.4850 H        1 ZINC000136639443    0.0900
69     H69     1.7529   -1.9590   10.6068 H        1 ZINC000136639443    0.4100
70     H70     0.6467   -4.4576    9.8925 H        1 ZINC000136639443    0.0700
71     H71     1.8370   -3.9959    8.6522 H        1 ZINC000136639443    0.0600
72     H72    -1.7281    0.0958    8.2363 H        1 ZINC000136639443    0.4100
@<TRIPOS>BOND
1     1     2     1
2     1     3     1
3     1     4     1
4     1     5     1
5     5     6     1
6     5     48    1
7     5     49    1
8     6     7     1
9     6     50    1
10    6     51    1
11    7     8     1
12    7     52    1
13    7     53    1
14    8     9     1
15    8     54    1
16    8     55    1
17    9     10    1
18    9     46    1
19    9     11    1
20    11    12    am
21    11    56    1
22    12    13    2
23    12    14    1
24    14    15    1
25    14    16    1
26    14    21    1
27    16    17    1
28    16    57    1
29    16    58    1
30    17    18    1
31    17    59    1
32    17    60    1
33    18    19    ar
34    18    20    ar
35    21    22    am
36    21    61    1
37    22    23    2
38    22    24    1
39    24    32    ar
40    24    25    ar
41    25    26    ar
42    25    62    1
43    26    27    1
44    26    30    ar
45    27    28    2
46    27    29    2
47    30    31    ar
48    30    63    1
49    31    32    ar
50    31    64    1
51    32    33    1
52    33    34    1
53    34    35    1
54    34    65    1
55    34    66    1
56    35    36    1
57    35    67    1
58    35    68    1
59    36    37    1
60    36    38    1
61    36    45    1
62    38    39    2
63    38    40    am
64    40    41    1
65    40    69    1
66    41    42    1
67    41    70    1
68    41    71    1
69    42    43    ar
70    42    44    ar
71    45    46    am
72    45    72    1
73    46    47    2
@<TRIPOS>SUBSTRUCTURE
1   ZINC000136639443 1     RESIDUE    1   A     ZIN   1
