@<TRIPOS>MOLECULE
ZINC000001539347
69    73    1     0     0
SMALL
USER_CHARGES
@<TRIPOS>ATOM
1      C1     -7.0124    0.6579    3.7690 C.3      1 ZINC000001539347   -0.1500
2      C2     -5.7215    0.4200    2.9829 C.3      1 ZINC000001539347   -0.1300
3      C3     -5.5573   -1.0770    2.7129 C.3      1 ZINC000001539347   -0.1100
4      C4     -4.2665   -1.3148    1.9267 C.3      1 ZINC000001539347   -0.0800
5      C5     -4.1047   -2.7893    1.6608 C.2      1 ZINC000001539347    0.1800
6      C6     -4.5356   -3.3212    0.4833 C.2      1 ZINC000001539347   -0.2300
7      C7     -5.1768   -2.4497   -0.5657 C.3      1 ZINC000001539347   -0.0100
8      C8     -4.1330   -2.0094   -1.5595 C.ar     1 ZINC000001539347   -0.0700
9      C9     -3.8822   -2.7785   -2.6817 C.ar     1 ZINC000001539347   -0.1300
10     C10    -2.9276   -2.3804   -3.5952 C.ar     1 ZINC000001539347   -0.1000
11     C11    -2.2153   -1.2004   -3.3854 C.ar     1 ZINC000001539347   -0.0500
12     C12    -1.1887   -0.7672   -4.3628 C.ar     1 ZINC000001539347   -0.0400
13     C13    -0.2086   -1.6584   -4.7897 C.ar     1 ZINC000001539347   -0.1100
14     C14     0.7453   -1.2511   -5.7011 C.ar     1 ZINC000001539347   -0.1400
15     C15     0.7351    0.0420   -6.1954 C.ar     1 ZINC000001539347   -0.1200
16     C16    -0.2289    0.9395   -5.7831 C.ar     1 ZINC000001539347   -0.1000
17     C17    -1.1996    0.5456   -4.8643 C.ar     1 ZINC000001539347    0.0500
18     C18    -2.2385    1.5013   -4.4243 C.2      1 ZINC000001539347    0.0700
19     N19    -3.2308    1.2623   -3.5644 N.2      1 ZINC000001539347   -0.3500
20     N20    -3.9128    2.3502   -3.4482 N.2      1 ZINC000001539347   -0.1900
21     N21    -3.3978    3.2572   -4.2021 N.2      1 ZINC000001539347   -0.1900
22     N22    -2.3721    2.7709   -4.8132 N.pl3    1 ZINC000001539347   -0.3700
23     C23    -2.4683   -0.4323   -2.2497 C.ar     1 ZINC000001539347    0.0100
24     C24    -3.4297   -0.8374   -1.3463 C.ar     1 ZINC000001539347   -0.1300
25     C25    -4.3637   -4.7037    0.2642 C.2      1 ZINC000001539347    0.5200
26     O26    -4.7308   -5.2195   -0.7785 O.2      1 ZINC000001539347   -0.5200
27     N27    -3.7836   -5.4440    1.2329 N.am     1 ZINC000001539347   -0.5200
28     C28    -3.5889   -6.8830    1.0388 C.3      1 ZINC000001539347    0.1300
29     C29    -2.3114   -7.1185    0.2748 C.2      1 ZINC000001539347   -0.1800
30     C30    -1.1801   -7.6556    0.8077 C.2      1 ZINC000001539347   -0.1400
31     C31    -1.0653   -8.0756    2.2121 C.2      1 ZINC000001539347    0.5300
32     O32    -2.0624   -8.3719    2.8413 O.2      1 ZINC000001539347   -0.5100
33     O33     0.1454   -8.1322    2.8019 O.3      1 ZINC000001539347   -0.3500
34     C34     0.1832   -8.5553    4.1904 C.3      1 ZINC000001539347    0.0300
35     C35    -0.1034   -7.7701   -0.1487 C.2      1 ZINC000001539347   -0.1000
36     C36    -0.4313   -7.3288   -1.3569 C.2      1 ZINC000001539347   -0.2500
37     S37    -2.0897   -6.7550   -1.3756 S.3      1 ZINC000001539347    0.2900
38     C38    -3.3837   -4.8576    2.3783 C.2      1 ZINC000001539347    0.3900
39     C39    -2.7384   -5.6983    3.4497 C.3      1 ZINC000001539347   -0.1200
40     N40    -3.5430   -3.5770    2.5811 N.2      1 ZINC000001539347   -0.5300
41     H41    -6.9650    0.1209    4.7164 H        1 ZINC000001539347    0.0500
42     H42    -7.1294    1.7244    3.9614 H        1 ZINC000001539347    0.0500
43     H43    -7.8624    0.2978    3.1894 H        1 ZINC000001539347    0.0500
44     H44    -4.8715    0.7801    3.5625 H        1 ZINC000001539347    0.0600
45     H45    -5.7689    0.9570    2.0355 H        1 ZINC000001539347    0.0700
46     H46    -6.4073   -1.4370    2.1333 H        1 ZINC000001539347    0.0600
47     H47    -5.5099   -1.6140    3.6602 H        1 ZINC000001539347    0.0700
48     H48    -3.4165   -0.9548    2.5064 H        1 ZINC000001539347    0.0900
49     H49    -4.3138   -0.7778    0.9794 H        1 ZINC000001539347    0.1000
50     H50    -5.6181   -1.5738   -0.0903 H        1 ZINC000001539347    0.0800
51     H51    -5.9541   -3.0138   -1.0812 H        1 ZINC000001539347    0.0800
52     H52    -4.4343   -3.6926   -2.8429 H        1 ZINC000001539347    0.1200
53     H53    -2.7328   -2.9814   -4.4711 H        1 ZINC000001539347    0.1100
54     H54    -0.1944   -2.6687   -4.4084 H        1 ZINC000001539347    0.1200
55     H55     1.5043   -1.9455   -6.0300 H        1 ZINC000001539347    0.1200
56     H56     1.4861    0.3503   -6.9077 H        1 ZINC000001539347    0.1200
57     H57    -0.2313    1.9467   -6.1730 H        1 ZINC000001539347    0.1300
58     H58    -1.9165    0.4804   -2.0797 H        1 ZINC000001539347    0.1100
59     H59    -3.6300   -0.2408   -0.4686 H        1 ZINC000001539347    0.1100
60     H60    -3.5279   -7.3756    2.0092 H        1 ZINC000001539347    0.1400
61     H61    -4.4289   -7.2907    0.4765 H        1 ZINC000001539347    0.1200
62     H62    -0.4058   -7.8667    4.7962 H        1 ZINC000001539347    0.0700
63     H63    -0.2314   -9.5598    4.2755 H        1 ZINC000001539347    0.0700
64     H64     1.2150   -8.5570    4.5418 H        1 ZINC000001539347    0.1000
65     H65     0.8687   -8.1731    0.0944 H        1 ZINC000001539347    0.1600
66     H66     0.2297   -7.3267   -2.2110 H        1 ZINC000001539347    0.1700
67     H67    -1.6667   -5.7653    3.2627 H        1 ZINC000001539347    0.0900
68     H68    -2.9093   -5.2395    4.4236 H        1 ZINC000001539347    0.1000
69     H69    -3.1726   -6.6980    3.4378 H        1 ZINC000001539347    0.1000
@<TRIPOS>BOND
1     1     2     1
2     1     41    1
3     1     42    1
4     1     43    1
5     2     3     1
6     2     44    1
7     2     45    1
8     3     4     1
9     3     46    1
10    3     47    1
11    4     5     1
12    4     48    1
13    4     49    1
14    5     40    1
15    5     6     2
16    6     7     1
17    6     25    1
18    7     8     1
19    7     50    1
20    7     51    1
21    8     24    ar
22    8     9     ar
23    9     10    ar
24    9     52    1
25    10    11    ar
26    10    53    1
27    11    12    1
28    11    23    ar
29    12    17    ar
30    12    13    ar
31    13    14    ar
32    13    54    1
33    14    15    ar
34    14    55    1
35    15    16    ar
36    15    56    1
37    16    17    ar
38    16    57    1
39    17    18    1
40    18    22    1
41    18    19    2
42    19    20    1
43    20    21    2
44    21    22    1
45    23    24    ar
46    23    58    1
47    24    59    1
48    25    26    2
49    25    27    am
50    27    28    1
51    27    38    1
52    28    29    1
53    28    60    1
54    28    61    1
55    29    37    1
56    29    30    2
57    30    31    1
58    30    35    1
59    31    32    2
60    31    33    1
61    33    34    1
62    34    62    1
63    34    63    1
64    34    64    1
65    35    36    2
66    35    65    1
67    36    37    1
68    36    66    1
69    38    39    1
70    38    40    2
71    39    67    1
72    39    68    1
73    39    69    1
@<TRIPOS>SUBSTRUCTURE
1   ZINC000001539347 1     RESIDUE    1   A     ZIN   1
