@<TRIPOS>MOLECULE
ZINC000059749972
61    65    1     0     0
SMALL
USER_CHARGES
@<TRIPOS>ATOM
1      C1      3.3739   -9.6474   -0.9405 C.3      1 ZINC000059749972   -0.1000
2      C2      2.5780   -8.3889   -0.7090 C.2      1 ZINC000059749972    0.0500
3      C3      2.1012   -7.5690   -1.6650 C.2      1 ZINC000059749972    0.0200
4      N4      1.4413   -6.5528   -1.0236 N.pl3    1 ZINC000059749972   -0.3500
5      C5      0.7869   -5.4706   -1.6296 C.ar     1 ZINC000059749972    0.1100
6      C6      0.7626   -5.3600   -3.0117 C.ar     1 ZINC000059749972   -0.0900
7      C7      0.1138   -4.2875   -3.6079 C.ar     1 ZINC000059749972    0.2000
8      N8      0.0867   -4.1726   -5.0013 N.am     1 ZINC000059749972   -0.6700
9      C9      0.1930   -5.2741   -5.7706 C.2      1 ZINC000059749972    0.5800
10     O10     0.2046   -6.3757   -5.2565 O.2      1 ZINC000059749972   -0.5100
11     C11     0.2954   -5.1429   -7.2395 C.ar     1 ZINC000059749972   -0.1400
12     C12     0.2881   -3.8788   -7.8318 C.ar     1 ZINC000059749972   -0.1000
13     C13     0.3843   -3.7589   -9.2034 C.ar     1 ZINC000059749972   -0.1000
14     C14     0.4876   -4.8871   -9.9950 C.ar     1 ZINC000059749972   -0.0700
15     C15     0.5923   -4.7473  -11.4918 C.3      1 ZINC000059749972   -0.1300
16     C16     0.4959   -6.1505   -9.4150 C.ar     1 ZINC000059749972    0.1600
17     N17     0.6007   -7.2890  -10.2203 N.pl3    1 ZINC000059749972   -0.6400
18     C18    -0.0634   -8.4519   -9.8656 C.ar     1 ZINC000059749972    0.5600
19     N19    -0.7231   -8.4939   -8.7170 N.ar     1 ZINC000059749972   -0.5500
20     C20    -1.3702   -9.5858   -8.3428 C.ar     1 ZINC000059749972    0.1900
21     C21    -1.3545  -10.6978   -9.1669 C.ar     1 ZINC000059749972   -0.2300
22     C22    -0.6506  -10.6237  -10.3713 C.ar     1 ZINC000059749972    0.2700
23     C23    -0.6035  -11.7885  -11.2893 C.ar     1 ZINC000059749972    0.1000
24     C24     0.1062  -11.7070  -12.4863 C.ar     1 ZINC000059749972    0.1000
25     N25     0.1451  -12.7463  -13.2999 N.ar     1 ZINC000059749972   -0.4400
26     C26    -0.4875  -13.8618  -12.9805 C.ar     1 ZINC000059749972    0.0700
27     C27    -1.1939  -13.9464  -11.7915 C.ar     1 ZINC000059749972    0.0600
28     N28    -1.2336  -12.9148  -10.9701 N.ar     1 ZINC000059749972   -0.4200
29     N29    -0.0271   -9.4908  -10.6851 N.ar     1 ZINC000059749972   -0.5500
30     C30     0.4055   -6.2815   -8.0379 C.ar     1 ZINC000059749972   -0.0500
31     C31    -0.5088   -3.3287   -2.8187 C.ar     1 ZINC000059749972   -0.0800
32     C32    -0.4822   -3.4420   -1.4420 C.ar     1 ZINC000059749972   -0.1300
33     C33    -1.1586   -2.4002   -0.5886 C.3      1 ZINC000059749972    0.5100
34     F34    -1.7381   -1.4281   -1.4111 F        1 ZINC000059749972   -0.1700
35     F35    -2.1519   -3.0066    0.1878 F        1 ZINC000059749972   -0.1700
36     F36    -0.2137   -1.7988    0.2497 F        1 ZINC000059749972   -0.1700
37     C37     0.1576   -4.5118   -0.8462 C.ar     1 ZINC000059749972   -0.0900
38     C38     1.5408   -6.7923    0.3098 C.cat    1 ZINC000059749972    0.2900
39     N39     2.2170   -7.8949    0.4846 N.pl3    1 ZINC000059749972   -0.4700
40     H40     2.4307   -8.2916    1.3436 H        1 ZINC000059749972    0.4700
41     H41     2.6948  -10.4948   -1.0343 H        1 ZINC000059749972    0.1000
42     H42     3.9564   -9.5456   -1.8562 H        1 ZINC000059749972    0.1100
43     H43     4.0463   -9.8121   -0.0986 H        1 ZINC000059749972    0.0900
44     H44     2.2171   -7.6887   -2.7320 H        1 ZINC000059749972    0.2300
45     H45     1.2477   -6.1066   -3.6229 H        1 ZINC000059749972    0.1700
46     H46    -0.0087   -3.3000   -5.4143 H        1 ZINC000059749972    0.4200
47     H47     0.2067   -2.9948   -7.2168 H        1 ZINC000059749972    0.1300
48     H48     0.3784   -2.7801   -9.6598 H        1 ZINC000059749972    0.1400
49     H49     1.6416   -4.6727  -11.7773 H        1 ZINC000059749972    0.0800
50     H50     0.1467   -5.6195  -11.9702 H        1 ZINC000059749972    0.0700
51     H51     0.0642   -3.8486  -11.8106 H        1 ZINC000059749972    0.0800
52     H52     1.1383   -7.2644  -11.0273 H        1 ZINC000059749972    0.4300
53     H53    -1.9044   -9.6092   -7.4045 H        1 ZINC000059749972    0.1800
54     H54    -1.8740  -11.6018   -8.8852 H        1 ZINC000059749972    0.1600
55     H55     0.6230  -10.7955  -12.7479 H        1 ZINC000059749972    0.1800
56     H56    -0.4540  -14.7099  -13.6483 H        1 ZINC000059749972    0.1800
57     H57    -1.7096  -14.8600  -11.5348 H        1 ZINC000059749972    0.1800
58     H58     0.4117   -7.2621   -7.5853 H        1 ZINC000059749972    0.1600
59     H59    -1.0138   -2.4939   -3.2818 H        1 ZINC000059749972    0.1600
60     H60     0.1763   -4.5977    0.2302 H        1 ZINC000059749972    0.1500
61     H61     1.1261   -6.1760    1.0937 H        1 ZINC000059749972    0.2600
@<TRIPOS>BOND
1     1     2     1
2     1     41    1
3     1     42    1
4     1     43    1
5     2     39    1
6     2     3     2
7     3     4     1
8     3     44    1
9     4     5     1
10    4     38    ar
11    5     37    ar
12    5     6     ar
13    6     7     ar
14    6     45    1
15    7     8     1
16    7     31    ar
17    8     9     am
18    8     46    1
19    9     10    2
20    9     11    1
21    11    30    ar
22    11    12    ar
23    12    13    ar
24    12    47    1
25    13    14    ar
26    13    48    1
27    14    15    1
28    14    16    ar
29    15    49    1
30    15    50    1
31    15    51    1
32    16    17    1
33    16    30    ar
34    17    18    1
35    17    52    1
36    18    29    ar
37    18    19    ar
38    19    20    ar
39    20    21    ar
40    20    53    1
41    21    22    ar
42    21    54    1
43    22    23    1
44    22    29    ar
45    23    28    ar
46    23    24    ar
47    24    25    ar
48    24    55    1
49    25    26    ar
50    26    27    ar
51    26    56    1
52    27    28    ar
53    27    57    1
54    30    58    1
55    31    32    ar
56    31    59    1
57    32    33    1
58    32    37    ar
59    33    34    1
60    33    35    1
61    33    36    1
62    37    60    1
63    38    39    ar
64    38    61    1
65    39    40    1
@<TRIPOS>SUBSTRUCTURE
1   ZINC000059749972 1     RESIDUE    1   A     ZIN   1
