@<TRIPOS>MOLECULE
ZINC000001536875
  65   67    0    0    0
SMALL
USER_CHARGES
NO_NAME
@<TRIPOS>ATOM
    1 C1       -0.0187     1.5258     0.0104 C.3    1 <0>      -0.1400
    2 C2        0.0021    -0.0041     0.0020 C.3    1 <0>      -0.0500
    3 C3        0.7421    -0.5109     1.2415 C.3    1 <0>      -0.1400
    4 C4       -1.4117    -0.5257     0.0127 C.ar   1 <0>      -0.1000
    5 C5       -2.2580    -0.1996     1.0635 C.ar   1 <0>      -0.1000
    6 C6       -3.5539    -0.6664     1.0927 C.ar   1 <0>      -0.1200
    7 C7       -4.0215    -1.4725     0.0596 C.ar   1 <0>       0.0900
    8 C8       -3.1595    -1.7995    -1.0033 C.ar   1 <0>      -0.0600
    9 C9       -1.8522    -1.3114    -1.0150 C.ar   1 <0>      -0.0700
   10 C10      -3.9375    -2.6479    -1.9139 C.2    1 <0>      -0.2100
   11 S11      -3.3728    -3.3596    -3.4237 S.3    1 <0>      -0.0900
   12 C12      -2.7032    -4.9604    -2.8948 C.3    1 <0>      -0.0600
   13 C13      -3.8111    -5.7837    -2.2349 C.3    1 <0>      -0.1400
   14 C14      -2.1633    -5.7145    -4.1117 C.3    1 <0>      -0.1300
   15 C15      -1.5703    -4.7331    -1.8919 C.3    1 <0>      -0.1300
   16 C16      -5.1651    -2.7789    -1.3761 C.2    1 <0>       0.1800
   17 C17      -6.2959    -3.5718    -1.9790 C.3    1 <0>      -0.0400
   18 C18      -7.1183    -2.6681    -2.8998 C.3    1 <0>      -0.1200
   19 C19      -7.6881    -1.5002    -2.0921 C.3    1 <0>      -0.1300
   20 C20      -6.2228    -2.1272    -4.0162 C.3    1 <0>      -0.1200
   21 C21      -8.2492    -3.4610    -3.5027 C.2    1 <0>       0.5100
   22 O22      -8.3848    -4.6397    -3.2219 O.co2  1 <0>      -0.7000
   23 O23      -9.0285    -2.9238    -4.2712 O.co2  1 <0>      -0.6900
   24 N24      -5.2309    -2.0798    -0.1925 N.pl3  1 <0>      -0.4700
   25 C25      -6.4118    -1.9945     0.6703 C.3    1 <0>       0.1300
   26 C26      -6.3842    -3.1199     1.6723 C.ar   1 <0>      -0.1000
   27 C27      -6.9743    -4.3320     1.3663 C.ar   1 <0>      -0.0800
   28 C28      -6.9492    -5.3645     2.2848 C.ar   1 <0>      -0.1100
   29 C29      -6.3334    -5.1848     3.5106 C.ar   1 <0>      -0.0300
   30 Cl30     -6.3011    -6.4813     4.6646 Cl     1 <0>      -0.0700
   31 C31      -5.7430    -3.9714     3.8162 C.ar   1 <0>      -0.1100
   32 C32      -5.7638    -2.9415     2.8947 C.ar   1 <0>      -0.0900
   33 H33       1.0039     1.9031     0.0027 H      1 <0>       0.0500
   34 H34      -0.5459     1.8868    -0.8726 H      1 <0>       0.0600
   35 H35      -0.5289     1.8773     0.9072 H      1 <0>       0.0500
   36 H36       0.5123    -0.3556    -0.8948 H      1 <0>       0.0700
   37 H37       1.7647    -0.1336     1.2338 H      1 <0>       0.0500
   38 H38       0.2319    -0.1594     2.1383 H      1 <0>       0.0500
   39 H39       0.7568    -1.6008     1.2356 H      1 <0>       0.0500
   40 H40      -1.8969     0.4260     1.8664 H      1 <0>       0.1200
   41 H41      -4.2045    -0.4078     1.9150 H      1 <0>       0.1100
   42 H42      -1.1882    -1.5604    -1.8296 H      1 <0>       0.1200
   43 H43      -4.6182    -5.9456    -2.9494 H      1 <0>       0.0700
   44 H44      -3.4088    -6.7456    -1.9171 H      1 <0>       0.0500
   45 H45      -4.1957    -5.2465    -1.3680 H      1 <0>       0.0600
   46 H46      -1.3740    -5.1279    -4.5819 H      1 <0>       0.0600
   47 H47      -1.7610    -6.6764    -3.7940 H      1 <0>       0.0600
   48 H48      -2.9704    -5.8764    -4.8263 H      1 <0>       0.0600
   49 H49      -1.9549    -4.1959    -1.0249 H      1 <0>       0.0600
   50 H50      -1.1680    -5.6950    -1.5741 H      1 <0>       0.0500
   51 H51      -0.7810    -4.1466    -2.3620 H      1 <0>       0.0600
   52 H52      -5.8900    -4.4038    -2.5544 H      1 <0>       0.1000
   53 H53      -6.9339    -3.9572    -1.1837 H      1 <0>       0.0700
   54 H54      -6.8702    -0.9267    -1.6560 H      1 <0>       0.0400
   55 H55      -8.2740    -0.8564    -2.7481 H      1 <0>       0.0600
   56 H56      -8.3261    -1.8856    -1.2968 H      1 <0>       0.0400
   57 H57      -5.8168    -2.9592    -4.5916 H      1 <0>       0.0600
   58 H58      -6.8086    -1.4834    -4.6722 H      1 <0>       0.0500
   59 H59      -5.4048    -1.5537    -3.5801 H      1 <0>       0.0400
   60 H60      -6.4094    -1.0398     1.1962 H      1 <0>       0.1000
   61 H61      -7.3128    -2.0719     0.0618 H      1 <0>       0.1200
   62 H62      -7.4552    -4.4721     0.4095 H      1 <0>       0.1400
   63 H63      -7.4106    -6.3113     2.0458 H      1 <0>       0.1400
   64 H64      -5.2625    -3.8304     4.7731 H      1 <0>       0.1300
   65 H65      -5.3026    -1.9945     3.1330 H      1 <0>       0.1300
@<TRIPOS>BOND
   1    1    2 1
   2    1   33 1
   3    1   34 1
   4    1   35 1
   5    2    3 1
   6    2    4 1
   7    2   36 1
   8    3   37 1
   9    3   38 1
  10    3   39 1
  11    4    9 ar
  12    4    5 ar
  13    5    6 ar
  14    5   40 1
  15    6    7 ar
  16    6   41 1
  17    7   24 1
  18    7    8 ar
  19    8    9 ar
  20    8   10 1
  21    9   42 1
  22   10   11 1
  23   10   16 2
  24   11   12 1
  25   12   13 1
  26   12   14 1
  27   12   15 1
  28   13   43 1
  29   13   44 1
  30   13   45 1
  31   14   46 1
  32   14   47 1
  33   14   48 1
  34   15   49 1
  35   15   50 1
  36   15   51 1
  37   16   17 1
  38   16   24 1
  39   17   18 1
  40   17   52 1
  41   17   53 1
  42   18   19 1
  43   18   20 1
  44   18   21 1
  45   19   54 1
  46   19   55 1
  47   19   56 1
  48   20   57 1
  49   20   58 1
  50   20   59 1
  51   21   22 ar
  52   21   23 ar
  53   24   25 1
  54   25   26 1
  55   25   60 1
  56   25   61 1
  57   26   32 ar
  58   26   27 ar
  59   27   28 ar
  60   27   62 1
  61   28   29 ar
  62   28   63 1
  63   29   30 1
  64   29   31 ar
  65   31   32 ar
  66   31   64 1
  67   32   65 1
