@<TRIPOS>MOLECULE
ZINC000028100198
49    54    1     0     0
SMALL
USER_CHARGES
@<TRIPOS>ATOM
1      O1     -0.2576   -0.3404   -0.5005 O.2      1 ZINC000028100198   -0.4800
2      C2     -0.1605    0.8551   -0.2771 C.2      1 ZINC000028100198    0.4400
3      C3     -1.3108    1.6625   -0.1171 C.2      1 ZINC000028100198   -0.3000
4      C4     -1.1876    2.9857    0.1334 C.2      1 ZINC000028100198    0.2000
5      N5      0.0287    3.5837    0.2389 N.pl3    1 ZINC000028100198   -0.5800
6      C6      1.2028    2.8824    0.0960 C.ar     1 ZINC000028100198    0.1900
7      C7      2.4382    3.5145    0.2036 C.ar     1 ZINC000028100198   -0.1600
8      C8      3.5956    2.7818    0.0546 C.ar     1 ZINC000028100198   -0.0500
9      C9      3.5439    1.4190   -0.2021 C.ar     1 ZINC000028100198   -0.1400
10     C10     2.3409    0.7784   -0.3124 C.ar     1 ZINC000028100198   -0.0300
11     C11     1.1581    1.5004   -0.1598 C.ar     1 ZINC000028100198   -0.1900
12     C12    -2.5771    3.5805    0.2564 C.3      1 ZINC000028100198    0.1600
13     H13    -2.8337    3.7242    1.3060 H        1 ZINC000028100198    0.0900
14     C14    -2.6489    4.8928   -0.4810 C.ar     1 ZINC000028100198   -0.1500
15     C15    -2.7878    4.9090   -1.8563 C.ar     1 ZINC000028100198   -0.0400
16     C16    -2.8505    6.1077   -2.5367 C.ar     1 ZINC000028100198   -0.1400
17     C17    -2.7743    7.3126   -1.8430 C.ar     1 ZINC000028100198    0.1300
18     O18    -2.7966    8.5914   -2.3091 O.3      1 ZINC000028100198   -0.3000
19     C19    -3.1216    9.4836   -1.2296 C.3      1 ZINC000028100198    0.0500
20     C20    -2.5983    8.7237    0.0122 C.3      1 ZINC000028100198   -0.1100
21     C21    -2.6417    7.2834   -0.4604 C.ar     1 ZINC000028100198   -0.1700
22     C22    -2.5816    6.0860    0.2169 C.ar     1 ZINC000028100198   -0.0600
23     N23    -3.4899    2.5935   -0.3627 N.3      1 ZINC000028100198   -0.4500
24     C24    -4.7213    2.5808    0.2822 C.ar     1 ZINC000028100198    0.3200
25     C25    -5.8884    2.7397   -0.4576 C.ar     1 ZINC000028100198   -0.0800
26     C26    -7.1071    2.7247    0.1969 C.ar     1 ZINC000028100198    0.0200
27     C27    -7.1174    2.5506    1.5742 C.ar     1 ZINC000028100198   -0.1200
28     C28    -5.9206    2.3987    2.2456 C.ar     1 ZINC000028100198    0.1400
29     N29    -4.7730    2.4122    1.5946 N.ar     1 ZINC000028100198   -0.4800
30     H30    -3.9465    2.3031    2.0905 H        1 ZINC000028100198    0.4400
31     C31    -2.7799    1.3077   -0.1759 C.3      1 ZINC000028100198    0.1000
32     H32     0.0696    4.5357    0.4206 H        1 ZINC000028100198    0.4200
33     H33     2.4894    4.5748    0.4026 H        1 ZINC000028100198    0.1400
34     H34     4.5535    3.2736    0.1382 H        1 ZINC000028100198    0.1400
35     H35     4.4610    0.8602   -0.3161 H        1 ZINC000028100198    0.1400
36     H36     2.3073   -0.2824   -0.5129 H        1 ZINC000028100198    0.1400
37     H37    -2.8473    3.9783   -2.4011 H        1 ZINC000028100198    0.1400
38     H38    -2.9588    6.1114   -3.6113 H        1 ZINC000028100198    0.1400
39     H39    -2.6038   10.4356   -1.3463 H        1 ZINC000028100198    0.1200
40     H40    -4.1991    9.6344   -1.1643 H        1 ZINC000028100198    0.0800
41     H41    -1.5783    9.0244    0.2517 H        1 ZINC000028100198    0.1000
42     H42    -3.2579    8.8733    0.8670 H        1 ZINC000028100198    0.1000
43     H43    -2.4789    6.0780    1.2919 H        1 ZINC000028100198    0.1200
44     H44    -5.8438    2.8733   -1.5284 H        1 ZINC000028100198    0.1900
45     H45    -8.0298    2.8460   -0.3513 H        1 ZINC000028100198    0.1900
46     H46    -8.0521    2.5345    2.1151 H        1 ZINC000028100198    0.1900
47     H47    -5.9240    2.2631    3.3171 H        1 ZINC000028100198    0.2100
48     H48    -2.9742    0.6438   -1.0183 H        1 ZINC000028100198    0.1300
49     H49    -3.0918    0.8365    0.7562 H        1 ZINC000028100198    0.0700
@<TRIPOS>BOND
1     1     2     2
2     2     11    1
3     2     3     1
4     3     31    1
5     3     4     2
6     4     5     1
7     4     12    1
8     5     6     1
9     5     32    1
10    6     11    ar
11    6     7     ar
12    7     8     ar
13    7     33    1
14    8     9     ar
15    8     34    1
16    9     10    ar
17    9     35    1
18    10    11    ar
19    10    36    1
20    12    13    1
21    12    14    1
22    12    23    1
23    14    22    ar
24    14    15    ar
25    15    16    ar
26    15    37    1
27    16    17    ar
28    16    38    1
29    17    21    ar
30    17    18    1
31    18    19    1
32    19    20    1
33    19    39    1
34    19    40    1
35    20    21    1
36    20    41    1
37    20    42    1
38    21    22    ar
39    22    43    1
40    23    24    1
41    23    31    1
42    24    29    ar
43    24    25    ar
44    25    26    ar
45    25    44    1
46    26    27    ar
47    26    45    1
48    27    28    ar
49    27    46    1
50    28    29    ar
51    28    47    1
52    29    30    1
53    31    48    1
54    31    49    1
@<TRIPOS>SUBSTRUCTURE
1   ZINC000028100198 1     RESIDUE    1   A     ZIN   1
