@<TRIPOS>MOLECULE
ZINC000033979157
  35   35    0    0    0
SMALL
USER_CHARGES
NO_NAME
@<TRIPOS>ATOM
    1 C1       -0.0187     1.5258     0.0104 C.3    1 <0>      -0.1500
    2 C2        0.0021    -0.0041     0.0020 C.3    1 <0>      -0.1100
    3 C3        0.7182    -0.4975    -1.2568 C.3    1 <0>      -0.0900
    4 C4       -0.0218     0.0093    -2.4963 C.3    1 <0>      -0.1500
    5 C5        2.1536     0.0321    -1.2676 C.3    1 <0>      -0.1400
    6 C6        0.7386    -2.0043    -1.2651 C.2    1 <0>       0.3700
    7 O7        0.2326    -2.6202    -0.3576 O.2    1 <0>      -0.4300
    8 C8        1.3836    -2.7349    -2.3934 C.2    1 <0>       0.4900
    9 O9        1.8921    -2.1161    -3.3052 O.2    1 <0>      -0.5000
   10 N10       1.4018    -4.0825    -2.4008 N.am   1 <0>      -0.5600
   11 C11       0.8189    -4.9554    -1.3656 C.3    1 <0>       0.1000
   12 C12       1.6032    -6.2863    -1.4814 C.3    1 <0>      -0.1300
   13 C13       1.8073    -6.3951    -3.0156 C.3    1 <0>      -0.1100
   14 C14       2.0009    -4.9256    -3.4458 C.3    1 <0>       0.0600
   15 H15       3.0641    -4.7015    -3.5317 H      1 <0>       0.0700
   16 C16       1.3180    -4.6842    -4.7673 C.2    1 <0>       0.5000
   17 O17       0.1467    -4.3468    -4.7956 O.co2  1 <0>      -0.6900
   18 O18       1.9368    -4.8262    -5.8082 O.co2  1 <0>      -0.6900
   19 H19       1.0039     1.9031     0.0027 H      1 <0>       0.0600
   20 H20      -0.5459     1.8868    -0.8726 H      1 <0>       0.0600
   21 H21      -0.5289     1.8773     0.9072 H      1 <0>       0.0500
   22 H22       0.5293    -0.3651     0.8851 H      1 <0>       0.0700
   23 H23      -1.0205    -0.3814     0.0098 H      1 <0>       0.0700
   24 H24      -0.0366     1.0992    -2.4903 H      1 <0>       0.0700
   25 H25       0.4884    -0.3422    -3.3931 H      1 <0>       0.0800
   26 H26      -1.0444    -0.3679    -2.4886 H      1 <0>       0.0600
   27 H27       2.6808    -0.3290    -0.3846 H      1 <0>       0.0500
   28 H28       2.6638    -0.3194    -2.1644 H      1 <0>       0.0800
   29 H29       2.1388     1.1220    -1.2617 H      1 <0>       0.0700
   30 H30       0.9587    -4.5174    -0.3773 H      1 <0>       0.0900
   31 H31      -0.2405    -5.1211    -1.5616 H      1 <0>       0.0700
   32 H32       2.5602    -6.2221    -0.9635 H      1 <0>       0.0700
   33 H33       1.0126    -7.1218    -1.1056 H      1 <0>       0.0800
   34 H34       2.6934    -6.9867    -3.2458 H      1 <0>       0.0800
   35 H35       0.9241    -6.8197    -3.4930 H      1 <0>       0.0700
@<TRIPOS>BOND
   1    1    2 1
   2    1   19 1
   3    1   20 1
   4    1   21 1
   5    2    3 1
   6    2   22 1
   7    2   23 1
   8    3    4 1
   9    3    5 1
  10    3    6 1
  11    4   24 1
  12    4   25 1
  13    4   26 1
  14    5   27 1
  15    5   28 1
  16    5   29 1
  17    6    7 2
  18    6    8 1
  19    8    9 2
  20    8   10 am
  21   10   14 1
  22   10   11 1
  23   11   12 1
  24   11   30 1
  25   11   31 1
  26   12   13 1
  27   12   32 1
  28   12   33 1
  29   13   14 1
  30   13   34 1
  31   13   35 1
  32   14   15 1
  33   14   16 1
  34   16   17 ar
  35   16   18 ar
