@<TRIPOS>MOLECULE
ZINC000003789219
  23   24    0    0    0
SMALL
USER_CHARGES
NO_NAME
@<TRIPOS>ATOM
    1 C1       -0.0187     1.5258     0.0104 C.3    1 <0>      -0.1400
    2 C2        0.0021    -0.0041     0.0020 C.3    1 <0>      -0.0800
    3 H3        0.5114    -0.3612    -0.8931 H      1 <0>       0.1200
    4 S4       -1.6978    -0.6423     0.0384 S.3    1 <0>      -0.1800
    5 C5       -1.3311    -2.3493     0.3027 C.2    1 <0>       0.4400
    6 O6       -2.1217    -3.2014    -0.0521 O.2    1 <0>      -0.3600
    7 N7       -0.1840    -2.7066     0.8935 N.2    1 <0>      -0.1800
    8 N8        0.6971    -1.9735     1.2953 N.2    1 <0>      -0.0400
    9 C9        0.7251    -0.5204     1.2517 C.3    1 <0>       0.0200
   10 C10       2.1571    -0.0514     1.2300 C.ar   1 <0>      -0.0200
   11 C11       3.1104    -0.7166     0.4744 C.ar   1 <0>      -0.1500
   12 C12       4.4140    -0.2575     0.4792 C.ar   1 <0>       0.1100
   13 N13       4.7544     0.7990     1.1911 N.ar   1 <0>      -0.4800
   14 C14       3.8746     1.4561     1.9212 C.ar   1 <0>       0.1100
   15 C15       2.5513     1.0591     1.9607 C.ar   1 <0>      -0.1600
   16 H16       1.0039     1.9031     0.0027 H      1 <0>       0.0900
   17 H17      -0.5459     1.8868    -0.8726 H      1 <0>       0.0800
   18 H18      -0.5289     1.8773     0.9072 H      1 <0>       0.0800
   19 H19       0.2313    -0.1246     2.1392 H      1 <0>       0.1500
   20 H20       2.8379    -1.5829    -0.1101 H      1 <0>       0.1300
   21 H21       5.1626    -0.7702    -0.1067 H      1 <0>       0.1600
   22 H22       4.1908     2.3169     2.4916 H      1 <0>       0.1600
   23 H23       1.8353     1.6016     2.5602 H      1 <0>       0.1400
@<TRIPOS>BOND
   1    1    2 1
   2    1   16 1
   3    1   17 1
   4    1   18 1
   5    2    3 1
   6    2    9 1
   7    2    4 1
   8    4    5 1
   9    5    6 2
  10    5    7 1
  11    7    8 2
  12    8    9 1
  13    9   10 1
  14    9   19 1
  15   10   15 ar
  16   10   11 ar
  17   11   12 ar
  18   11   20 1
  19   12   13 ar
  20   12   21 1
  21   13   14 ar
  22   14   15 ar
  23   14   22 1
  24   15   23 1
