@<TRIPOS>MOLECULE
ZINC000072190141
60    62    1     0     0
SMALL
USER_CHARGES
@<TRIPOS>ATOM
1      C1     -0.0176    1.4478    0.0100 C.3      1 ZINC000072190141    0.0400
2      O2      0.0021   -0.0041    0.0020 O.3      1 ZINC000072190141   -0.3600
3      C3      0.5984   -0.5997   -1.0427 C.2      1 ZINC000072190141    0.4800
4      O4      1.0877    0.0699   -1.9214 O.2      1 ZINC000072190141   -0.5200
5      C5      0.6575   -2.1036   -1.1196 C.3      1 ZINC000072190141   -0.0900
6      H6     -0.3550   -2.5070   -1.1292 H        1 ZINC000072190141    0.1200
7      C7      1.3848   -2.5205   -2.3995 C.3      1 ZINC000072190141   -0.0700
8      C8      0.5783   -2.0914   -3.5981 C.ar     1 ZINC000072190141   -0.0900
9      C9     -0.3734   -2.9426   -4.1302 C.ar     1 ZINC000072190141   -0.0500
10     C10    -1.1177   -2.5562   -5.2308 C.ar     1 ZINC000072190141   -0.1200
11     C11    -0.9145   -1.3182   -5.8044 C.ar     1 ZINC000072190141   -0.0600
12     C12     0.0437   -0.4547   -5.2721 C.ar     1 ZINC000072190141   -0.1700
13     C13     0.2669    0.8746   -5.8826 C.cat    1 ZINC000072190141    0.6000
14     N14    -0.4474    1.2491   -6.9420 N.pl3    1 ZINC000072190141   -0.7600
15     N15     1.1819    1.6963   -5.3724 N.pl3    1 ZINC000072190141   -0.7600
16     H16     1.7023    1.4235   -4.6006 H        1 ZINC000072190141    0.4500
17     H17     1.3282    2.5677   -5.7725 H        1 ZINC000072190141    0.4300
18     C18     0.7869   -0.8480   -4.1590 C.ar     1 ZINC000072190141   -0.0300
19     C19     1.4117   -2.6471    0.0956 C.3      1 ZINC000072190141    0.1500
20     H20     1.5320   -3.7259   -0.0042 H        1 ZINC000072190141    0.1100
21     C21     2.7889   -1.9858    0.1788 C.3      1 ZINC000072190141   -0.1700
22     N22     0.6533   -2.3509    1.3135 N.am     1 ZINC000072190141   -0.7300
23     C23     0.8125   -3.1184    2.4099 C.2      1 ZINC000072190141    0.5600
24     O24     1.5854   -4.0565    2.3882 O.2      1 ZINC000072190141   -0.5200
25     C25     0.0477   -2.8197    3.6382 C.ar     1 ZINC000072190141   -0.1300
26     C26    -0.8449   -1.7453    3.6619 C.ar     1 ZINC000072190141   -0.0800
27     C27    -1.5571   -1.4678    4.8070 C.ar     1 ZINC000072190141   -0.1100
28     C28    -1.3873   -2.2587    5.9435 C.ar     1 ZINC000072190141   -0.0300
29     C29    -2.1549   -1.9589    7.1763 C.ar     1 ZINC000072190141   -0.0100
30     C30    -3.0576   -0.8921    7.2183 C.ar     1 ZINC000072190141   -0.1100
31     C31    -3.7518   -0.6481    8.3853 C.ar     1 ZINC000072190141    0.0800
32     N32    -3.5724   -1.4060    9.4514 N.ar     1 ZINC000072190141   -0.1200
33     O33    -4.3057   -1.1199   10.6285 O.3      1 ZINC000072190141   -0.5400
34     C34    -2.7301   -2.4227    9.4531 C.ar     1 ZINC000072190141    0.0800
35     C35    -1.9997   -2.7389    8.3262 C.ar     1 ZINC000072190141   -0.1100
36     C36    -0.4963   -3.3318    5.9209 C.ar     1 ZINC000072190141   -0.1000
37     C37     0.2123   -3.6148    4.7749 C.ar     1 ZINC000072190141   -0.0500
38     H38     1.0050    1.8251    0.0023 H        1 ZINC000072190141    0.0700
39     H39    -0.5448    1.8089   -0.8731 H        1 ZINC000072190141    0.0600
40     H40    -0.5278    1.7993    0.9068 H        1 ZINC000072190141    0.1100
41     H41     2.3650   -2.0448   -2.4319 H        1 ZINC000072190141    0.1000
42     H42     1.5061   -3.6037   -2.4121 H        1 ZINC000072190141    0.1100
43     H43    -0.5360   -3.9130   -3.6849 H        1 ZINC000072190141    0.1500
44     H44    -1.8591   -3.2254   -5.6419 H        1 ZINC000072190141    0.1500
45     H45    -1.4956   -1.0180   -6.6639 H        1 ZINC000072190141    0.1400
46     H46    -1.1141    0.6504   -7.3136 H        1 ZINC000072190141    0.4400
47     H47    -0.3011    2.1205   -7.3421 H        1 ZINC000072190141    0.4300
48     H48     1.5297   -0.1840   -3.7422 H        1 ZINC000072190141    0.1600
49     H49     3.3531   -2.2062   -0.7273 H        1 ZINC000072190141    0.0800
50     H50     2.6685   -0.9071    0.2786 H        1 ZINC000072190141    0.0500
51     H51     3.3261   -2.3731    1.0446 H        1 ZINC000072190141    0.0800
52     H52     0.0365   -1.6024    1.3308 H        1 ZINC000072190141    0.4100
53     H53    -0.9760   -1.1324    2.7823 H        1 ZINC000072190141    0.1300
54     H54    -2.2472   -0.6372    4.8255 H        1 ZINC000072190141    0.1400
55     H55    -3.2090   -0.2679    6.3500 H        1 ZINC000072190141    0.1700
56     H56    -4.4510    0.1739    8.4274 H        1 ZINC000072190141    0.1900
57     H57    -2.6140   -3.0170   10.3474 H        1 ZINC000072190141    0.1900
58     H58    -1.3125   -3.5720    8.3345 H        1 ZINC000072190141    0.1700
59     H59    -0.3655   -3.9435    6.8013 H        1 ZINC000072190141    0.1400
60     H60     0.9019   -4.4459    4.7575 H        1 ZINC000072190141    0.1500
@<TRIPOS>BOND
1     1     2     1
2     1     38    1
3     1     39    1
4     1     40    1
5     2     3     1
6     3     4     2
7     3     5     1
8     5     6     1
9     5     7     1
10    5     19    1
11    7     8     1
12    7     41    1
13    7     42    1
14    8     18    ar
15    8     9     ar
16    9     10    ar
17    9     43    1
18    10    11    ar
19    10    44    1
20    11    12    ar
21    11    45    1
22    12    13    1
23    12    18    ar
24    13    14    ar
25    13    15    ar
26    14    46    1
27    14    47    1
28    15    16    1
29    15    17    1
30    18    48    1
31    19    20    1
32    19    21    1
33    19    22    1
34    21    49    1
35    21    50    1
36    21    51    1
37    22    23    am
38    22    52    1
39    23    24    2
40    23    25    1
41    25    37    ar
42    25    26    ar
43    26    27    ar
44    26    53    1
45    27    28    ar
46    27    54    1
47    28    29    1
48    28    36    ar
49    29    35    ar
50    29    30    ar
51    30    31    ar
52    30    55    1
53    31    32    ar
54    31    56    1
55    32    33    1
56    32    34    ar
57    34    35    ar
58    34    57    1
59    35    58    1
60    36    37    ar
61    36    59    1
62    37    60    1
@<TRIPOS>SUBSTRUCTURE
1   ZINC000072190141 1     RESIDUE    1   A     ZIN   1
