@<TRIPOS>MOLECULE
ZINC000001383151
38    40    1     0     0
SMALL
USER_CHARGES
@<TRIPOS>ATOM
1      C1     -0.1087    0.8460    0.4044 C.3      1 ZINC000001383151   -0.1700
2      C2      0.3674   -0.6078    0.3745 C.3      1 ZINC000001383151    0.1700
3      C3      1.4274   -0.8197    1.4573 C.3      1 ZINC000001383151   -0.1700
4      C4     -0.8191   -1.5384    0.6331 C.3      1 ZINC000001383151   -0.1500
5      N5      0.9446   -0.9057   -0.9387 N.pl3    1 ZINC000001383151   -0.3200
6      N6      0.4789   -1.8848   -1.8227 N.2      1 ZINC000001383151   -0.2000
7      C7      1.2165   -1.8934   -2.9077 C.2      1 ZINC000001383151    0.2000
8      C8      1.0442   -2.7850   -4.0795 C.ar     1 ZINC000001383151   -0.0500
9      C9      2.1517   -3.4074   -4.6537 C.ar     1 ZINC000001383151   -0.1100
10     C10     1.9858   -4.2367   -5.7439 C.ar     1 ZINC000001383151   -0.1000
11     C11     0.7222   -4.4513   -6.2676 C.ar     1 ZINC000001383151   -0.0100
12     Cl12    0.5204   -5.4964   -7.6390 Cl       1 ZINC000001383151   -0.0400
13     C13    -0.3809   -3.8357   -5.7010 C.ar     1 ZINC000001383151   -0.1000
14     C14    -0.2266   -3.0087   -4.6074 C.ar     1 ZINC000001383151   -0.0600
15     C15     2.2398   -0.8605   -2.7482 C.ar     1 ZINC000001383151   -0.3000
16     C16     3.3027   -0.3856   -3.5338 C.ar     1 ZINC000001383151    0.5600
17     N17     3.5619   -0.9289   -4.7773 N.pl3    1 ZINC000001383151   -0.8000
18     N18     4.0529    0.6002   -3.0510 N.ar     1 ZINC000001383151   -0.5700
19     H19     4.7911    0.9408   -3.5802 H        1 ZINC000001383151    0.4500
20     C20     3.8094    1.1238   -1.8629 C.ar     1 ZINC000001383151    0.4200
21     N21     2.8265    0.7114   -1.0928 N.ar     1 ZINC000001383151   -0.4800
22     C22     2.0151   -0.2679   -1.4914 C.ar     1 ZINC000001383151    0.3900
23     H23     0.7366    1.5090    0.2201 H        1 ZINC000001383151    0.0800
24     H24    -0.8638    0.9969   -0.3671 H        1 ZINC000001383151    0.0700
25     H25    -0.5381    1.0676    1.3814 H        1 ZINC000001383151    0.1000
26     H26     0.9980   -0.5980    2.4344 H        1 ZINC000001383151    0.1000
27     H27     1.7666   -1.8553    1.4360 H        1 ZINC000001383151    0.0700
28     H28     2.2727   -0.1566    1.2731 H        1 ZINC000001383151    0.0800
29     H29    -1.5742   -1.3875   -0.1383 H        1 ZINC000001383151    0.0700
30     H30    -0.4799   -2.5741    0.6118 H        1 ZINC000001383151    0.0700
31     H31    -1.2485   -1.3168    1.6102 H        1 ZINC000001383151    0.0900
32     H32     3.1378   -3.2403   -4.2462 H        1 ZINC000001383151    0.1400
33     H33     2.8431   -4.7190   -6.1897 H        1 ZINC000001383151    0.1500
34     H34    -1.3644   -4.0064   -6.1133 H        1 ZINC000001383151    0.1500
35     H35    -1.0877   -2.5289   -4.1662 H        1 ZINC000001383151    0.1500
36     H36     2.8909   -1.4733   -5.2181 H        1 ZINC000001383151    0.4400
37     H37     4.4149   -0.7660   -5.2095 H        1 ZINC000001383151    0.4300
38     H38     4.4438    1.9231   -1.5093 H        1 ZINC000001383151    0.2500
@<TRIPOS>BOND
1     1     2     1
2     1     23    1
3     1     24    1
4     1     25    1
5     2     3     1
6     2     4     1
7     2     5     1
8     3     26    1
9     3     27    1
10    3     28    1
11    4     29    1
12    4     30    1
13    4     31    1
14    5     22    1
15    5     6     1
16    6     7     2
17    7     8     1
18    7     15    1
19    8     14    ar
20    8     9     ar
21    9     10    ar
22    9     32    1
23    10    11    ar
24    10    33    1
25    11    12    1
26    11    13    ar
27    13    14    ar
28    13    34    1
29    14    35    1
30    15    22    ar
31    15    16    ar
32    16    17    1
33    16    18    ar
34    17    36    1
35    17    37    1
36    18    19    1
37    18    20    ar
38    20    21    ar
39    20    38    1
40    21    22    ar
@<TRIPOS>SUBSTRUCTURE
1   ZINC000001383151 1     RESIDUE    1   A     ZIN   1
