@<TRIPOS>MOLECULE
ZINC000068244727
70    74    1     0     0
SMALL
USER_CHARGES
@<TRIPOS>ATOM
1      C1      0.7040    1.3494    0.1132 C.3      1 ZINC000068244727   -0.1000
2      C2      0.2586   -0.0887    0.0472 C.ar     1 ZINC000068244727    0.0800
3      N3      0.5149   -0.8964    1.0565 N.ar     1 ZINC000068244727   -0.4400
4      C4      0.1462   -2.1619    1.0463 C.ar     1 ZINC000068244727    0.0600
5      C5     -0.5336   -2.6965   -0.0409 C.ar     1 ZINC000068244727    0.1100
6      N6     -0.9216   -4.0403   -0.0434 N.am     1 ZINC000068244727   -0.6600
7      C7     -0.9436   -4.7332   -1.1992 C.2      1 ZINC000068244727    0.5600
8      O8     -0.5474   -4.2161   -2.2255 O.2      1 ZINC000068244727   -0.4900
9      C9     -1.4495   -6.1220   -1.2188 C.ar     1 ZINC000068244727   -0.1400
10     C10    -1.9106   -6.7166   -0.0433 C.ar     1 ZINC000068244727   -0.0500
11     C11    -2.3820   -8.0131   -0.0687 C.ar     1 ZINC000068244727   -0.1200
12     C12    -2.3983   -8.7234   -1.2557 C.ar     1 ZINC000068244727    0.0000
13     C13    -2.9146  -10.1390   -1.2758 C.3      1 ZINC000068244727    0.0700
14     N14    -4.2936  -10.1502   -1.7820 N.3      1 ZINC000068244727   -0.5300
15     C15    -5.1240   -9.1690   -1.0696 C.3      1 ZINC000068244727    0.0500
16     C16    -6.5282   -9.1555   -1.6783 C.3      1 ZINC000068244727    0.0600
17     N17    -7.1121  -10.5010   -1.5864 N.3      1 ZINC000068244727   -0.5500
18     C18    -8.4911  -10.5121   -2.0926 C.3      1 ZINC000068244727    0.0200
19     C19    -6.2817  -11.4821   -2.2988 C.3      1 ZINC000068244727    0.0600
20     C20    -4.8775  -11.4956   -1.6901 C.3      1 ZINC000068244727    0.0600
21     C21    -1.9430   -8.1395   -2.4249 C.ar     1 ZINC000068244727   -0.1700
22     C22    -1.9655   -8.9205   -3.7135 C.3      1 ZINC000068244727    0.5100
23     F23    -1.3884   -8.1553   -4.7327 F        1 ZINC000068244727   -0.1800
24     F24    -1.2404  -10.1061   -3.5530 F        1 ZINC000068244727   -0.1800
25     F25    -3.2885   -9.2251   -4.0512 F        1 ZINC000068244727   -0.1500
26     C26    -1.4737   -6.8425   -2.4144 C.ar     1 ZINC000068244727   -0.0100
27     C27    -0.8237   -1.8766   -1.1274 C.ar     1 ZINC000068244727   -0.0800
28     C28    -0.4223   -0.5455   -1.0749 C.ar     1 ZINC000068244727    0.1400
29     N29    -0.6905    0.3182   -2.1415 N.pl3    1 ZINC000068244727   -0.6300
30     C30    -0.8015   -0.1835   -3.4281 C.ar     1 ZINC000068244727    0.5600
31     N31    -0.5382   -1.4636   -3.6467 N.ar     1 ZINC000068244727   -0.5400
32     C32    -0.6327   -1.9809   -4.8614 C.ar     1 ZINC000068244727    0.2000
33     C33    -1.0125   -1.1688   -5.9151 C.ar     1 ZINC000068244727   -0.2700
34     C34    -1.2838    0.1771   -5.6541 C.ar     1 ZINC000068244727    0.2600
35     C35    -1.6945    1.0885   -6.7496 C.ar     1 ZINC000068244727   -0.1100
36     C36    -1.8596    2.4559   -6.5116 C.ar     1 ZINC000068244727   -0.0300
37     C37    -2.2442    3.2644   -7.5676 C.ar     1 ZINC000068244727   -0.1800
38     C38    -2.4507    2.6987   -8.8123 C.ar     1 ZINC000068244727    0.1200
39     N39    -2.2871    1.4041   -9.0068 N.ar     1 ZINC000068244727   -0.4800
40     C40    -1.9167    0.5965   -8.0346 C.ar     1 ZINC000068244727    0.1300
41     N41    -1.1732    0.6271   -4.4065 N.ar     1 ZINC000068244727   -0.5600
42     H42    -0.0823    1.9528    0.5669 H        1 ZINC000068244727    0.0800
43     H43     1.6102    1.4219    0.7145 H        1 ZINC000068244727    0.0800
44     H44     0.9061    1.7138   -0.8940 H        1 ZINC000068244727    0.0700
45     H45     0.3758   -2.7912    1.8935 H        1 ZINC000068244727    0.1600
46     H46    -1.1748   -4.4735    0.7867 H        1 ZINC000068244727    0.4100
47     H47    -1.8981   -6.1634    0.8841 H        1 ZINC000068244727    0.1400
48     H48    -2.7387   -8.4746    0.8403 H        1 ZINC000068244727    0.1400
49     H49    -2.2843  -10.7465   -1.9253 H        1 ZINC000068244727    0.1000
50     H50    -2.8952  -10.5472   -0.2654 H        1 ZINC000068244727    0.0600
51     H51    -5.1868   -9.4423   -0.0163 H        1 ZINC000068244727    0.0400
52     H52    -4.6777   -8.1790   -1.1628 H        1 ZINC000068244727    0.0800
53     H53    -7.1543   -8.4494   -1.1328 H        1 ZINC000068244727    0.0800
54     H54    -6.4682   -8.8558   -2.7246 H        1 ZINC000068244727    0.0400
55     H55    -8.4975  -10.1989   -3.1366 H        1 ZINC000068244727    0.0300
56     H56    -8.8992  -11.5197   -2.0130 H        1 ZINC000068244727    0.0700
57     H57    -9.0998   -9.8260   -1.5037 H        1 ZINC000068244727    0.0700
58     H58    -6.7280  -12.4722   -2.2056 H        1 ZINC000068244727    0.0800
59     H59    -6.2189  -11.2088   -3.3521 H        1 ZINC000068244727    0.0500
60     H60    -4.2515  -12.2017   -2.2356 H        1 ZINC000068244727    0.0800
61     H61    -4.9375  -11.7953   -0.6438 H        1 ZINC000068244727    0.0500
62     H62    -1.1190   -6.3879   -3.3275 H        1 ZINC000068244727    0.1500
63     H63    -1.3508   -2.2626   -1.9873 H        1 ZINC000068244727    0.1700
64     H64    -0.7988    1.2686   -1.9806 H        1 ZINC000068244727    0.4300
65     H65    -0.4154   -3.0256   -5.0283 H        1 ZINC000068244727    0.1800
66     H66    -1.0970   -1.5656   -6.9160 H        1 ZINC000068244727    0.1500
67     H67    -1.6917    2.8712   -5.5289 H        1 ZINC000068244727    0.1500
68     H68    -2.3817    4.3255   -7.4208 H        1 ZINC000068244727    0.1400
69     H69    -2.7511    3.3264   -9.6383 H        1 ZINC000068244727    0.1600
70     H70    -1.7931   -0.4580   -8.2326 H        1 ZINC000068244727    0.1600
@<TRIPOS>BOND
1     1     2     1
2     1     42    1
3     1     43    1
4     1     44    1
5     2     28    ar
6     2     3     ar
7     3     4     ar
8     4     5     ar
9     4     45    1
10    5     6     1
11    5     27    ar
12    6     7     am
13    6     46    1
14    7     8     2
15    7     9     1
16    9     26    ar
17    9     10    ar
18    10    11    ar
19    10    47    1
20    11    12    ar
21    11    48    1
22    12    13    1
23    12    21    ar
24    13    14    1
25    13    49    1
26    13    50    1
27    14    20    1
28    14    15    1
29    15    16    1
30    15    51    1
31    15    52    1
32    16    17    1
33    16    53    1
34    16    54    1
35    17    18    1
36    17    19    1
37    18    55    1
38    18    56    1
39    18    57    1
40    19    20    1
41    19    58    1
42    19    59    1
43    20    60    1
44    20    61    1
45    21    22    1
46    21    26    ar
47    22    23    1
48    22    24    1
49    22    25    1
50    26    62    1
51    27    28    ar
52    27    63    1
53    28    29    1
54    29    30    1
55    29    64    1
56    30    41    ar
57    30    31    ar
58    31    32    ar
59    32    33    ar
60    32    65    1
61    33    34    ar
62    33    66    1
63    34    35    1
64    34    41    ar
65    35    40    ar
66    35    36    ar
67    36    37    ar
68    36    67    1
69    37    38    ar
70    37    68    1
71    38    39    ar
72    38    69    1
73    39    40    ar
74    40    70    1
@<TRIPOS>SUBSTRUCTURE
1   ZINC000068244727 1     RESIDUE    1   A     ZIN   1
