@<TRIPOS>MOLECULE
ZINC000004353646
  17   18    0    0    0
SMALL
USER_CHARGES
NO_NAME
@<TRIPOS>ATOM
    1 N1       -0.0169     1.3925     0.0097 N.pl3  1 <0>      -0.8700
    2 C2        0.0021    -0.0041     0.0020 C.ar   1 <0>       0.2500
    3 C3       -1.1788    -0.6846     0.0041 C.ar   1 <0>      -0.2200
    4 C4       -1.1687    -2.0953    -0.0036 C.ar   1 <0>       0.1500
    5 N5       -2.1025    -3.0296    -0.0038 N.2    1 <0>      -0.3300
    6 N6       -1.4876    -4.2868    -0.0133 N.pl3  1 <0>      -0.4300
    7 C7       -0.1553    -4.1442    -0.0193 C.2    1 <0>       0.1000
    8 C8        0.1277    -2.7910    -0.0137 C.ar   1 <0>      -0.2400
    9 C9        1.3131    -2.0241    -0.0153 C.ar   1 <0>       0.0000
   10 C10       1.2360    -0.6712    -0.0133 C.ar   1 <0>      -0.1900
   11 H11       0.8165     1.8888     0.0044 H      1 <0>       0.4000
   12 H12      -0.8634     1.8660     0.0163 H      1 <0>       0.4000
   13 H13      -2.1158    -0.1476     0.0119 H      1 <0>       0.1200
   14 H14      -1.9565    -5.1359    -0.0148 H      1 <0>       0.4400
   15 H15       0.5694    -4.9449    -0.0270 H      1 <0>       0.1900
   16 H16       2.2760    -2.5131    -0.0227 H      1 <0>       0.1300
   17 H17       2.1476    -0.0921    -0.0149 H      1 <0>       0.1200
@<TRIPOS>BOND
   1    1    2 1
   2    1   11 1
   3    1   12 1
   4    2   10 ar
   5    2    3 ar
   6    3    4 ar
   7    3   13 1
   8    4    8 ar
   9    4    5 2
  10    5    6 1
  11    6    7 1
  12    6   14 1
  13    7    8 2
  14    7   15 1
  15    8    9 ar
  16    9   10 ar
  17    9   16 1
  18   10   17 1
