@<TRIPOS>MOLECULE
ZINC000136949727
69    68    1     0     0
SMALL
USER_CHARGES
@<TRIPOS>ATOM
1      C1      0.5149    0.9643   -0.9122 C.3      1 ZINC000136949727   -0.1500
2      C2      0.4647   -0.5584   -1.0525 C.3      1 ZINC000136949727   -0.1300
3      C3     -0.9683   -1.0445   -0.8265 C.3      1 ZINC000136949727   -0.1200
4      C4     -1.0185   -2.5672   -0.9669 C.3      1 ZINC000136949727   -0.1200
5      C5     -2.4515   -3.0533   -0.7409 C.3      1 ZINC000136949727   -0.1200
6      C6     -2.5017   -4.5760   -0.8813 C.3      1 ZINC000136949727   -0.1200
7      C7     -3.9347   -5.0621   -0.6553 C.3      1 ZINC000136949727   -0.1200
8      C8     -3.9848   -6.5848   -0.7956 C.3      1 ZINC000136949727   -0.1200
9      C9     -5.4179   -7.0708   -0.5696 C.3      1 ZINC000136949727   -0.1200
10     C10    -5.4680   -8.5936   -0.7100 C.3      1 ZINC000136949727   -0.1200
11     C11    -6.9011   -9.0796   -0.4840 C.3      1 ZINC000136949727   -0.1200
12     C12    -6.9512  -10.6024   -0.6243 C.3      1 ZINC000136949727   -0.1200
13     C13    -8.3842  -11.0884   -0.3983 C.3      1 ZINC000136949727   -0.1200
14     C14    -8.4344  -12.6111   -0.5387 C.3      1 ZINC000136949727    0.1400
15     O15    -9.7728  -13.0651   -0.3276 O.3      1 ZINC000136949727   -0.7600
16     P16   -10.1939  -14.6174   -0.4000 P.3      1 ZINC000136949727    2.1900
17     O17    -9.3145  -15.4354    0.5718 O.co2    1 ZINC000136949727   -1.1000
18     O18    -9.9924  -15.1391   -1.8402 O.co2    1 ZINC000136949727   -1.0300
19     O19   -11.7415  -14.7736    0.0157 O.3      1 ZINC000136949727   -0.7300
20     C20   -12.3833  -16.0417    0.1642 C.3      1 ZINC000136949727    0.3000
21     H21   -11.7531  -16.8204   -0.2655 H        1 ZINC000136949727    0.1300
22     C22   -13.7310  -16.0190   -0.5597 C.3      1 ZINC000136949727   -0.2200
23     C23   -13.5031  -15.8585   -2.0407 C.2      1 ZINC000136949727    0.4800
24     O24   -12.3679  -15.7705   -2.4768 O.co2    1 ZINC000136949727   -0.6100
25     O25   -14.4538  -15.8168   -2.8029 O.co2    1 ZINC000136949727   -0.7000
26     N26   -12.5984  -16.3175    1.5909 N.4      1 ZINC000136949727   -0.2900
27     C27   -13.4936  -15.2995    2.1570 C.3      1 ZINC000136949727   -0.0400
28     C28   -13.2067  -17.6456    1.7466 C.3      1 ZINC000136949727   -0.0400
29     C29   -11.3101  -16.2833    2.2959 C.3      1 ZINC000136949727   -0.0400
30     H30     1.5358    1.3106   -1.0732 H        1 ZINC000136949727    0.0500
31     H31    -0.1440    1.4193   -1.6518 H        1 ZINC000136949727    0.0500
32     H32     0.1886    1.2479    0.0884 H        1 ZINC000136949727    0.0500
33     H33     0.7910   -0.8420   -2.0531 H        1 ZINC000136949727    0.0600
34     H34     1.1236   -1.0134   -0.3129 H        1 ZINC000136949727    0.0600
35     H35    -1.2946   -0.7609    0.1741 H        1 ZINC000136949727    0.0600
36     H36    -1.6272   -0.5895   -1.5661 H        1 ZINC000136949727    0.0600
37     H37    -0.6922   -2.8508   -1.9675 H        1 ZINC000136949727    0.0600
38     H38    -0.3596   -3.0222   -0.2273 H        1 ZINC000136949727    0.0600
39     H39    -2.7778   -2.7697    0.2597 H        1 ZINC000136949727    0.0600
40     H40    -3.1104   -2.5983   -1.4805 H        1 ZINC000136949727    0.0600
41     H41    -2.1754   -4.8596   -1.8819 H        1 ZINC000136949727    0.0600
42     H42    -1.8428   -5.0309   -0.1417 H        1 ZINC000136949727    0.0600
43     H43    -4.2610   -4.7785    0.3454 H        1 ZINC000136949727    0.0600
44     H44    -4.5936   -4.6071   -1.3948 H        1 ZINC000136949727    0.0600
45     H45    -3.6585   -6.8684   -1.7962 H        1 ZINC000136949727    0.0600
46     H46    -3.3260   -7.0397   -0.0560 H        1 ZINC000136949727    0.0600
47     H47    -5.7442   -6.7873    0.4310 H        1 ZINC000136949727    0.0600
48     H48    -6.0767   -6.6159   -1.3092 H        1 ZINC000136949727    0.0600
49     H49    -5.1417   -8.8772   -1.7106 H        1 ZINC000136949727    0.0600
50     H50    -4.8092   -9.0485    0.0296 H        1 ZINC000136949727    0.0600
51     H51    -7.2274   -8.7961    0.5166 H        1 ZINC000136949727    0.0600
52     H52    -7.5599   -8.6247   -1.2236 H        1 ZINC000136949727    0.0600
53     H53    -6.6249  -10.8859   -1.6249 H        1 ZINC000136949727    0.0700
54     H54    -6.2923  -11.0573    0.1153 H        1 ZINC000136949727    0.0600
55     H55    -8.7105  -10.8048    0.6023 H        1 ZINC000136949727    0.0600
56     H56    -9.0431  -10.6335   -1.1379 H        1 ZINC000136949727    0.0700
57     H57    -8.1081  -12.8947   -1.5393 H        1 ZINC000136949727    0.0500
58     H58    -7.7755  -13.0661    0.2009 H        1 ZINC000136949727    0.0500
59     H59   -14.2597  -16.9537   -0.3727 H        1 ZINC000136949727    0.0800
60     H60   -14.3273  -15.1843   -0.1914 H        1 ZINC000136949727    0.0800
61     H61   -14.4495  -15.3249    1.6338 H        1 ZINC000136949727    0.1200
62     H62   -13.6532  -15.5042    3.2156 H        1 ZINC000136949727    0.1100
63     H63   -13.0422  -14.3141    2.0414 H        1 ZINC000136949727    0.1200
64     H64   -12.5425  -18.4009    1.3266 H        1 ZINC000136949727    0.1200
65     H65   -13.3663  -17.8502    2.8053 H        1 ZINC000136949727    0.1100
66     H66   -14.1627  -17.6709    1.2235 H        1 ZINC000136949727    0.1200
67     H67   -10.8685  -15.2916    2.1980 H        1 ZINC000136949727    0.1200
68     H68   -11.4671  -16.5085    3.3508 H        1 ZINC000136949727    0.1000
69     H69   -10.6388  -17.0244    1.8622 H        1 ZINC000136949727    0.1300
@<TRIPOS>BOND
1     1     2     1
2     1     30    1
3     1     31    1
4     1     32    1
5     2     3     1
6     2     33    1
7     2     34    1
8     3     4     1
9     3     35    1
10    3     36    1
11    4     5     1
12    4     37    1
13    4     38    1
14    5     6     1
15    5     39    1
16    5     40    1
17    6     7     1
18    6     41    1
19    6     42    1
20    7     8     1
21    7     43    1
22    7     44    1
23    8     9     1
24    8     45    1
25    8     46    1
26    9     10    1
27    9     47    1
28    9     48    1
29    10    11    1
30    10    49    1
31    10    50    1
32    11    12    1
33    11    51    1
34    11    52    1
35    12    13    1
36    12    53    1
37    12    54    1
38    13    14    1
39    13    55    1
40    13    56    1
41    14    15    1
42    14    57    1
43    14    58    1
44    15    16    1
45    16    17    ar
46    16    18    ar
47    16    19    1
48    19    20    1
49    20    21    1
50    20    22    1
51    20    26    1
52    22    23    1
53    22    59    1
54    22    60    1
55    23    24    ar
56    23    25    ar
57    26    27    1
58    26    28    1
59    26    29    1
60    27    61    1
61    27    62    1
62    27    63    1
63    28    64    1
64    28    65    1
65    28    66    1
66    29    67    1
67    29    68    1
68    29    69    1
@<TRIPOS>SUBSTRUCTURE
1   ZINC000136949727 1     RESIDUE    1   A     ZIN   1
