@<TRIPOS>MOLECULE
ZINC000000016869
39    42    1     0     0
SMALL
USER_CHARGES
@<TRIPOS>ATOM
1      O1     -0.0335   -0.0039   -0.0112 O.2      1 ZINC000000016869   -0.5500
2      C2     -0.0144    1.2122    0.0087 C.2      1 ZINC000000016869    0.6000
3      N3      1.1632    1.8677    0.0151 N.am     1 ZINC000000016869   -0.7200
4      C4      2.4182    1.1181    0.1113 C.3      1 ZINC000000016869    0.1400
5      H5      2.2751    0.2465    0.7500 H        1 ZINC000000016869    0.1200
6      C6      2.8533    0.6653   -1.2843 C.3      1 ZINC000000016869   -0.0200
7      N7      4.1649    1.2310   -1.6089 N.4      1 ZINC000000016869   -0.3700
8      H8      4.4302    0.9145   -2.5295 H        1 ZINC000000016869    0.4300
9      C9      4.1065    2.6946   -1.6210 C.3      1 ZINC000000016869   -0.0100
10     C10     3.7129    3.2149   -0.2366 C.3      1 ZINC000000016869   -0.1400
11     C11     3.5100    2.0175    0.7057 C.3      1 ZINC000000016869   -0.1100
12     C12     4.8185    1.2181    0.7605 C.3      1 ZINC000000016869   -0.1300
13     C13     5.1752    0.7728   -0.6523 C.3      1 ZINC000000016869   -0.0100
14     C14    -1.2768    1.9676    0.0196 C.2      1 ZINC000000016869   -0.3500
15     C15    -2.4885    1.3169    0.1239 C.2      1 ZINC000000016869    0.2600
16     N16    -3.6396    1.9961    0.1345 N.pl3    1 ZINC000000016869   -0.5600
17     C17    -3.6996    3.3838    0.0429 C.2      1 ZINC000000016869    0.1700
18     C18    -2.5275    4.1096   -0.0641 C.2      1 ZINC000000016869   -0.3100
19     S19    -2.8987    5.8271   -0.1635 S.3      1 ZINC000000016869    0.2400
20     C20    -4.6206    5.5012   -0.0571 C.2      1 ZINC000000016869   -0.1600
21     C21    -4.8372    4.1941    0.0430 C.2      1 ZINC000000016869   -0.1600
22     C22    -1.2771    3.4339   -0.0741 C.2      1 ZINC000000016869    0.4600
23     O23    -0.2305    4.0554   -0.1677 O.2      1 ZINC000000016869   -0.5200
24     H24     1.1798    2.8358   -0.0440 H        1 ZINC000000016869    0.4200
25     H25     2.9125   -0.4228   -1.3094 H        1 ZINC000000016869    0.1400
26     H26     2.1220    1.0031   -2.0185 H        1 ZINC000000016869    0.1300
27     H27     5.0839    3.0934   -1.8927 H        1 ZINC000000016869    0.1300
28     H28     3.3682    3.0211   -2.3534 H        1 ZINC000000016869    0.1300
29     H29     4.5052    3.8546    0.1520 H        1 ZINC000000016869    0.1100
30     H30     2.7853    3.7825   -0.3099 H        1 ZINC000000016869    0.1000
31     H31     3.2197    2.3627    1.6980 H        1 ZINC000000016869    0.1200
32     H32     5.6160    1.8492    1.1526 H        1 ZINC000000016869    0.1100
33     H33     4.6885    0.3481    1.4042 H        1 ZINC000000016869    0.1000
34     H34     5.2208   -0.3156   -0.6878 H        1 ZINC000000016869    0.1300
35     H35     6.1473    1.1829   -0.9262 H        1 ZINC000000016869    0.1300
36     H36    -2.5074    0.2396    0.1979 H        1 ZINC000000016869    0.1900
37     H37    -4.4699    1.5000    0.2091 H        1 ZINC000000016869    0.4300
38     H38    -5.3935    6.2555   -0.0713 H        1 ZINC000000016869    0.1900
39     H39    -5.8330    3.7829    0.1194 H        1 ZINC000000016869    0.1600
@<TRIPOS>BOND
1     1     2     2
2     2     3     am
3     2     14    1
4     3     4     1
5     3     24    1
6     4     5     1
7     4     11    1
8     4     6     1
9     6     7     1
10    6     25    1
11    6     26    1
12    7     8     1
13    7     13    1
14    7     9     1
15    9     10    1
16    9     27    1
17    9     28    1
18    10    11    1
19    10    29    1
20    10    30    1
21    11    12    1
22    11    31    1
23    12    13    1
24    12    32    1
25    12    33    1
26    13    34    1
27    13    35    1
28    14    22    1
29    14    15    2
30    15    16    1
31    15    36    1
32    16    17    1
33    16    37    1
34    17    21    1
35    17    18    2
36    18    19    1
37    18    22    1
38    19    20    1
39    20    21    2
40    20    38    1
41    21    39    1
42    22    23    2
@<TRIPOS>SUBSTRUCTURE
1   ZINC000000016869 1     RESIDUE    1   A     ZIN   1
