@<TRIPOS>MOLECULE
ZINC000016678033
61    63    1     0     0
SMALL
USER_CHARGES
@<TRIPOS>ATOM
1      O1      0.1549    0.2425    1.0982 O.2      1 ZINC000016678033   -0.5700
2      C2      0.0647    1.3361    0.5812 C.2      1 ZINC000016678033    0.4800
3      N3      1.1435    1.8984    0.0013 N.am     1 ZINC000016678033   -0.6400
4      C4      2.3903    1.2634    0.0767 C.ar     1 ZINC000016678033   -0.0200
5      C5      2.4677   -0.1211    0.0571 C.ar     1 ZINC000016678033   -0.0500
6      C6      3.6989   -0.7454    0.1317 C.ar     1 ZINC000016678033   -0.2900
7      C7      3.7812   -2.2500    0.1103 C.3      1 ZINC000016678033    0.1600
8      H8      2.9036   -2.6548   -0.3936 H        1 ZINC000016678033    0.1100
9      O9      4.9603   -2.6526   -0.5896 O.3      1 ZINC000016678033   -0.5600
10     C10     3.8344   -2.7783    1.5452 C.3      1 ZINC000016678033   -0.0400
11     N11     3.9147   -4.2449    1.5243 N.4      1 ZINC000016678033   -0.5100
12     H12     3.1023   -4.6196    1.0579 H        1 ZINC000016678033    0.4200
13     H13     4.7472   -4.5292    1.0302 H        1 ZINC000016678033    0.4300
14     C14     3.9658   -4.7522    2.9020 C.3      1 ZINC000016678033   -0.0100
15     C15     4.0494   -6.2797    2.8803 C.3      1 ZINC000016678033   -0.0900
16     C16     4.1018   -6.8001    4.2936 C.ar     1 ZINC000016678033   -0.1700
17     C17     5.3221   -6.9672    4.9224 C.ar     1 ZINC000016678033   -0.0600
18     C18     5.3737   -7.4438    6.2176 C.ar     1 ZINC000016678033   -0.1900
19     C19     4.1981   -7.7556    6.8887 C.ar     1 ZINC000016678033    0.2300
20     N20     4.2467   -8.2374    8.1988 N.pl3    1 ZINC000016678033   -0.7400
21     C21     3.0058   -8.5656    8.9050 C.3      1 ZINC000016678033    0.1000
22     C22     3.3371   -9.0680   10.3117 C.3      1 ZINC000016678033    0.1400
23     H23     3.8717   -8.2911   10.8583 H        1 ZINC000016678033    0.1100
24     O24     4.1561  -10.2354   10.2200 O.3      1 ZINC000016678033   -0.5500
25     C25     2.0607   -9.4056   11.0382 C.ar     1 ZINC000016678033   -0.1200
26     C26     1.4835  -10.6515   10.8787 C.ar     1 ZINC000016678033   -0.1100
27     C27     0.3126  -10.9612   11.5450 C.ar     1 ZINC000016678033   -0.1200
28     C28    -0.2808  -10.0252   12.3713 C.ar     1 ZINC000016678033   -0.1100
29     C29     0.2969   -8.7796   12.5315 C.ar     1 ZINC000016678033   -0.1200
30     C30     1.4701   -8.4714   11.8684 C.ar     1 ZINC000016678033   -0.1100
31     C31     2.9740   -7.5865    6.2541 C.ar     1 ZINC000016678033   -0.2000
32     C32     2.9293   -7.1041    4.9608 C.ar     1 ZINC000016678033   -0.0600
33     C33     4.8547    0.0071    0.2254 C.ar     1 ZINC000016678033   -0.0600
34     C34     4.7854    1.3881    0.2459 C.ar     1 ZINC000016678033   -0.2600
35     C35     3.5561    2.0214    0.1658 C.ar     1 ZINC000016678033    0.2700
36     O36     3.4863    3.3792    0.1859 O.3      1 ZINC000016678033   -0.7100
37     H37    -0.8813    1.8571    0.5816 H        1 ZINC000016678033    0.1300
38     H38     1.0569    2.7428   -0.4682 H        1 ZINC000016678033    0.4100
39     H39     1.5663   -0.7115   -0.0160 H        1 ZINC000016678033    0.1200
40     H40     5.7816   -2.3274   -0.1961 H        1 ZINC000016678033    0.3800
41     H41     4.7121   -2.3735    2.0491 H        1 ZINC000016678033    0.1300
42     H42     2.9351   -2.4712    2.0790 H        1 ZINC000016678033    0.1400
43     H43     4.8435   -4.3474    3.4059 H        1 ZINC000016678033    0.1300
44     H44     3.0665   -4.4451    3.4359 H        1 ZINC000016678033    0.1300
45     H45     3.1717   -6.6845    2.3764 H        1 ZINC000016678033    0.0900
46     H46     4.9488   -6.5868    2.3465 H        1 ZINC000016678033    0.0900
47     H47     6.2357   -6.7250    4.4000 H        1 ZINC000016678033    0.1200
48     H48     6.3271   -7.5744    6.7080 H        1 ZINC000016678033    0.1200
49     H49     5.1020   -8.3547    8.6410 H        1 ZINC000016678033    0.4100
50     H50     2.3811   -7.6752    8.9749 H        1 ZINC000016678033    0.0700
51     H51     2.4712   -9.3425    8.3583 H        1 ZINC000016678033    0.0700
52     H52     3.7430  -10.9693    9.7449 H        1 ZINC000016678033    0.3800
53     H53     1.9471  -11.3828   10.2331 H        1 ZINC000016678033    0.1200
54     H54    -0.1387  -11.9343   11.4199 H        1 ZINC000016678033    0.1300
55     H55    -1.1959  -10.2669   12.8913 H        1 ZINC000016678033    0.1300
56     H56    -0.1668   -8.0482   13.1767 H        1 ZINC000016678033    0.1300
57     H57     1.9215   -7.4983   11.9936 H        1 ZINC000016678033    0.1200
58     H58     2.0582   -7.8283    6.7729 H        1 ZINC000016678033    0.1200
59     H59     1.9780   -6.9724    4.4668 H        1 ZINC000016678033    0.1200
60     H60     5.8144   -0.4848    0.2830 H        1 ZINC000016678033    0.0900
61     H61     5.6902    1.9730    0.3199 H        1 ZINC000016678033    0.1000
@<TRIPOS>BOND
1     1     2     2
2     2     3     am
3     2     37    1
4     3     4     1
5     3     38    1
6     4     35    ar
7     4     5     ar
8     5     6     ar
9     5     39    1
10    6     7     1
11    6     33    ar
12    7     8     1
13    7     9     1
14    7     10    1
15    9     40    1
16    10    11    1
17    10    41    1
18    10    42    1
19    11    12    1
20    11    13    1
21    11    14    1
22    14    15    1
23    14    43    1
24    14    44    1
25    15    16    1
26    15    45    1
27    15    46    1
28    16    32    ar
29    16    17    ar
30    17    18    ar
31    17    47    1
32    18    19    ar
33    18    48    1
34    19    20    1
35    19    31    ar
36    20    21    1
37    20    49    1
38    21    22    1
39    21    50    1
40    21    51    1
41    22    23    1
42    22    24    1
43    22    25    1
44    24    52    1
45    25    30    ar
46    25    26    ar
47    26    27    ar
48    26    53    1
49    27    28    ar
50    27    54    1
51    28    29    ar
52    28    55    1
53    29    30    ar
54    29    56    1
55    30    57    1
56    31    32    ar
57    31    58    1
58    32    59    1
59    33    34    ar
60    33    60    1
61    34    35    ar
62    34    61    1
63    35    36    1
@<TRIPOS>SUBSTRUCTURE
1   ZINC000016678033 1     RESIDUE    1   A     ZIN   1
