@<TRIPOS>MOLECULE
ZINC000095616595
68    71    1     0     0
SMALL
USER_CHARGES
@<TRIPOS>ATOM
1      C1     -4.0166   -3.1393   -1.5010 C.3      1 ZINC000095616595   -0.1400
2      C2     -2.5730   -3.3554   -1.0423 C.3      1 ZINC000095616595   -0.0500
3      C3     -2.2843   -4.8565   -0.9769 C.3      1 ZINC000095616595   -0.1600
4      C4     -1.6206   -2.7025   -2.0487 C.3      1 ZINC000095616595   -0.0600
5      C5     -0.2152   -2.7602   -1.5112 C.2      1 ZINC000095616595    0.1600
6      C6      0.0764   -2.9401   -0.1617 C.2      1 ZINC000095616595   -0.2800
7      C7      1.4707   -2.9477   -0.0251 C.2      1 ZINC000095616595    0.0500
8      C8      2.2375   -3.1182    1.2610 C.3      1 ZINC000095616595    0.5600
9      F9      2.4853   -4.4777    1.4794 F        1 ZINC000095616595   -0.1600
10     F10     3.4529   -2.4308    1.1739 F        1 ZINC000095616595   -0.1700
11     F11     1.4862   -2.6045    2.3235 F        1 ZINC000095616595   -0.1500
12     N12     1.9873   -2.7804   -1.2163 N.2      1 ZINC000095616595   -0.2300
13     N13     0.9506   -2.6607   -2.1541 N.pl3    1 ZINC000095616595   -0.2900
14     C14     1.1114   -2.4700   -3.5301 C.ar     1 ZINC000095616595    0.2100
15     C15     0.2901   -1.5713   -4.2060 C.ar     1 ZINC000095616595   -0.1900
16     C16     0.4409   -1.3765   -5.5595 C.ar     1 ZINC000095616595   -0.0100
17     C17     1.4221   -2.0824   -6.2622 C.ar     1 ZINC000095616595   -0.2300
18     C18     1.5867   -1.8760   -7.7111 C.2      1 ZINC000095616595    0.5800
19     N19     0.8752   -0.9201   -8.3407 N.am     1 ZINC000095616595   -0.8400
20     O20     2.3647   -2.5682   -8.3395 O.2      1 ZINC000095616595   -0.5600
21     C21     2.2507   -2.9891   -5.5802 C.ar     1 ZINC000095616595    0.3000
22     N22     3.2286   -3.6947   -6.2696 N.pl3    1 ZINC000095616595   -0.7100
23     C23     4.0011   -4.7347   -5.5854 C.3      1 ZINC000095616595    0.1300
24     C24     3.2278   -6.0542   -5.6261 C.3      1 ZINC000095616595   -0.1300
25     C25     2.9965   -6.4652   -7.0816 C.3      1 ZINC000095616595   -0.1200
26     C26     4.3452   -6.6426   -7.7819 C.3      1 ZINC000095616595    0.1000
27     O27     4.1257   -7.0326   -9.1632 O.3      1 ZINC000095616595   -0.3300
28     C28     5.0653   -7.8010   -9.7362 C.2      1 ZINC000095616595    0.4500
29     O29     6.0390   -8.1367   -9.1044 O.2      1 ZINC000095616595   -0.4900
30     C30     4.9059   -8.2451  -11.1674 C.3      1 ZINC000095616595    0.0000
31     N31     6.0582   -9.0694  -11.5556 N.4      1 ZINC000095616595   -0.6200
32     H32     6.9049   -8.5284  -11.4637 H        1 ZINC000095616595    0.4400
33     H33     6.1097   -9.8792  -10.9560 H        1 ZINC000095616595    0.4400
34     H34     5.9514   -9.3667  -12.5139 H        1 ZINC000095616595    0.4500
35     C35     5.1185   -5.3230   -7.7413 C.3      1 ZINC000095616595   -0.1400
36     C36     5.3498   -4.9121   -6.2857 C.3      1 ZINC000095616595   -0.1200
37     C37     2.0920   -3.1725   -4.2147 C.ar     1 ZINC000095616595   -0.1900
38     C38    -0.9894   -3.0807    0.8430 C.2      1 ZINC000095616595    0.4300
39     O39    -0.7681   -3.4379    1.9811 O.2      1 ZINC000095616595   -0.4300
40     C40    -2.3893   -2.7450    0.3507 C.3      1 ZINC000095616595   -0.1500
41     H41    -4.2296   -2.0710   -1.5391 H        1 ZINC000095616595    0.0600
42     H42    -4.1516   -3.5723   -2.4921 H        1 ZINC000095616595    0.0600
43     H43    -4.6969   -3.6206   -0.7984 H        1 ZINC000095616595    0.0700
44     H44    -2.4239   -5.2966   -1.9643 H        1 ZINC000095616595    0.0600
45     H45    -1.2565   -5.0149   -0.6504 H        1 ZINC000095616595    0.0600
46     H46    -2.9669   -5.3273   -0.2695 H        1 ZINC000095616595    0.0700
47     H47    -1.6700   -3.2379   -2.9969 H        1 ZINC000095616595    0.1000
48     H48    -1.9095   -1.6626   -2.2016 H        1 ZINC000095616595    0.1100
49     H49    -0.4688   -1.0251   -3.6655 H        1 ZINC000095616595    0.1400
50     H50    -0.1988   -0.6786   -6.0793 H        1 ZINC000095616595    0.1400
51     H51     0.2547   -0.3680   -7.8396 H        1 ZINC000095616595    0.4000
52     H52     0.9836   -0.7841   -9.2950 H        1 ZINC000095616595    0.4100
53     H53     3.4000   -3.4989   -7.2040 H        1 ZINC000095616595    0.4200
54     H54     4.1659   -4.4419   -4.5485 H        1 ZINC000095616595    0.0900
55     H55     3.8026   -6.8280   -5.1170 H        1 ZINC000095616595    0.0800
56     H56     2.2670   -5.9279   -5.1271 H        1 ZINC000095616595    0.0800
57     H57     2.4456   -7.4053   -7.1105 H        1 ZINC000095616595    0.0800
58     H58     2.4218   -5.6914   -7.5906 H        1 ZINC000095616595    0.0900
59     H59     4.9199   -7.4163   -7.2729 H        1 ZINC000095616595    0.1000
60     H60     3.9912   -8.8296  -11.2667 H        1 ZINC000095616595    0.1800
61     H61     4.8502   -7.3703  -11.8152 H        1 ZINC000095616595    0.1800
62     H62     6.0793   -5.4494   -8.2402 H        1 ZINC000095616595    0.0700
63     H63     4.5437   -4.5493   -8.2503 H        1 ZINC000095616595    0.0800
64     H64     5.9006   -3.9720   -6.2568 H        1 ZINC000095616595    0.0900
65     H65     5.9245   -5.6858   -5.7767 H        1 ZINC000095616595    0.0900
66     H66     2.7264   -3.8684   -3.6859 H        1 ZINC000095616595    0.1400
67     H67    -2.5084   -1.6629    0.2951 H        1 ZINC000095616595    0.1100
68     H68    -3.1282   -3.1632    1.0342 H        1 ZINC000095616595    0.1100
@<TRIPOS>BOND
1     1     2     1
2     1     41    1
3     1     42    1
4     1     43    1
5     2     40    1
6     2     3     1
7     2     4     1
8     3     44    1
9     3     45    1
10    3     46    1
11    4     5     1
12    4     47    1
13    4     48    1
14    5     13    1
15    5     6     2
16    6     7     1
17    6     38    1
18    7     8     1
19    7     12    2
20    8     9     1
21    8     10    1
22    8     11    1
23    12    13    1
24    13    14    1
25    14    37    ar
26    14    15    ar
27    15    16    ar
28    15    49    1
29    16    17    ar
30    16    50    1
31    17    18    1
32    17    21    ar
33    18    19    am
34    18    20    2
35    19    51    1
36    19    52    1
37    21    22    1
38    21    37    ar
39    22    23    1
40    22    53    1
41    23    36    1
42    23    24    1
43    23    54    1
44    24    25    1
45    24    55    1
46    24    56    1
47    25    26    1
48    25    57    1
49    25    58    1
50    26    27    1
51    26    35    1
52    26    59    1
53    27    28    1
54    28    29    2
55    28    30    1
56    30    31    1
57    30    60    1
58    30    61    1
59    31    32    1
60    31    33    1
61    31    34    1
62    35    36    1
63    35    62    1
64    35    63    1
65    36    64    1
66    36    65    1
67    37    66    1
68    38    39    2
69    38    40    1
70    40    67    1
71    40    68    1
@<TRIPOS>SUBSTRUCTURE
1   ZINC000095616595 1     RESIDUE    1   A     ZIN   1
