@<TRIPOS>MOLECULE
ZINC000085540112
118   119   1     0     0
SMALL
USER_CHARGES
@<TRIPOS>ATOM
1      C1     -4.5572    1.8631   -2.2122 C.3      1 ZINC000085540112   -0.1800
2      C2     -3.2567    2.6603   -2.0925 C.3      1 ZINC000085540112   -0.1200
3      C3     -2.1515    1.9544   -2.8807 C.3      1 ZINC000085540112   -0.1000
4      H4     -2.1147    0.9036   -2.5934 H        1 ZINC000085540112    0.0900
5      C5     -0.8056    2.6144   -2.5744 C.3      1 ZINC000085540112   -0.1400
6      C6     -2.4439    2.0636   -4.3785 C.3      1 ZINC000085540112    0.1400
7      H7     -1.5769    1.7220   -4.9438 H        1 ZINC000085540112    0.1100
8      N8     -2.7303    3.4593   -4.7197 N.am     1 ZINC000085540112   -0.7000
9      C9     -1.7388    4.2654   -5.1480 C.2      1 ZINC000085540112    0.5300
10     O10    -0.6285    3.8145   -5.3345 O.2      1 ZINC000085540112   -0.5300
11     C11    -2.0097    5.7271   -5.3952 C.3      1 ZINC000085540112    0.1300
12     H12    -2.3489    6.1951   -4.4711 H        1 ZINC000085540112    0.1300
13     C13    -3.0921    5.8710   -6.4669 C.3      1 ZINC000085540112    0.0700
14     O14    -2.6977    5.1581   -7.6410 O.3      1 ZINC000085540112   -0.5600
15     N15    -0.7808    6.3812   -5.8513 N.am     1 ZINC000085540112   -0.6900
16     C16    -0.6113    7.7047   -5.6610 C.2      1 ZINC000085540112    0.5200
17     O17    -1.4330    8.3370   -5.0319 O.2      1 ZINC000085540112   -0.5400
18     C18     0.5993    8.3988   -6.2300 C.3      1 ZINC000085540112    0.1400
19     H19     0.9941    7.8166   -7.0626 H        1 ZINC000085540112    0.1100
20     N20     0.2202    9.7325   -6.7030 N.am     1 ZINC000085540112   -0.7100
21     C21     0.9419   10.3354   -7.6684 C.2      1 ZINC000085540112    0.5100
22     O22     1.9052    9.7739   -8.1456 O.2      1 ZINC000085540112   -0.5200
23     C23     0.5520   11.7074   -8.1550 C.3      1 ZINC000085540112    0.1200
24     H24     0.5710   12.4140   -7.3254 H        1 ZINC000085540112    0.1100
25     C25    -0.8609   11.6627   -8.7741 C.3      1 ZINC000085540112   -0.1300
26     C26    -0.7387   12.6209   -9.9883 C.3      1 ZINC000085540112   -0.1300
27     C27     0.7132   12.3486  -10.4546 C.3      1 ZINC000085540112    0.0900
28     N28     1.4796   12.1469   -9.2076 N.am     1 ZINC000085540112   -0.5900
29     C29     2.8064   12.3334   -9.0622 C.2      1 ZINC000085540112    0.5400
30     O30     3.3322   12.1371   -7.9871 O.2      1 ZINC000085540112   -0.5200
31     C31     3.6368   12.7858  -10.2357 C.3      1 ZINC000085540112    0.1300
32     H32     3.2723   13.7507  -10.5882 H        1 ZINC000085540112    0.1200
33     C33     3.5294   11.7571  -11.3632 C.3      1 ZINC000085540112   -0.1700
34     N34     5.0366   12.9136   -9.8230 N.am     1 ZINC000085540112   -0.6800
35     C35     5.8616   13.7471  -10.4872 C.2      1 ZINC000085540112    0.5100
36     O36     5.4451   14.3912  -11.4266 O.2      1 ZINC000085540112   -0.5200
37     C37     7.3016   13.8786  -10.0627 C.3      1 ZINC000085540112    0.0300
38     H38     7.6923   12.8971   -9.7942 H        1 ZINC000085540112    0.1700
39     N39     8.0902   14.4331  -11.1711 N.4      1 ZINC000085540112   -0.6200
40     H40     7.7285   15.3417  -11.4196 H        1 ZINC000085540112    0.4400
41     H41     9.0543   14.5212  -10.8868 H        1 ZINC000085540112    0.4500
42     H42     8.0294   13.8174  -11.9681 H        1 ZINC000085540112    0.4400
43     C43     7.3937   14.8122   -8.8540 C.3      1 ZINC000085540112   -0.1700
44     C44     8.8148   14.8474   -8.3537 C.2      1 ZINC000085540112    0.5200
45     N45     9.1357   15.6090   -7.2890 N.am     1 ZINC000085540112   -0.8300
46     O46     9.6697   14.1905   -8.9091 O.2      1 ZINC000085540112   -0.5600
47     C47     1.6702    8.5278   -5.1449 C.3      1 ZINC000085540112   -0.1000
48     C48     2.1162    7.1335   -4.7001 C.3      1 ZINC000085540112   -0.1500
49     C49     2.8715    9.2939   -5.7024 C.3      1 ZINC000085540112   -0.1300
50     C50    -3.6361    1.2079   -4.7213 C.2      1 ZINC000085540112    0.5400
51     O51    -4.7055    1.7266   -4.9629 O.2      1 ZINC000085540112   -0.5200
52     N52    -3.5140   -0.1338   -4.7593 N.am     1 ZINC000085540112   -0.5900
53     C53    -2.2816   -0.8926   -4.4788 C.3      1 ZINC000085540112    0.0900
54     C54    -2.7707   -2.2969   -4.0447 C.3      1 ZINC000085540112   -0.1300
55     C55    -3.9934   -2.5030   -4.9773 C.3      1 ZINC000085540112   -0.1200
56     C56    -4.5893   -1.0833   -5.0813 C.3      1 ZINC000085540112    0.1200
57     H57    -4.9441   -0.9036   -6.0962 H        1 ZINC000085540112    0.0900
58     C58    -5.7284   -0.9329   -4.1062 C.2      1 ZINC000085540112    0.5100
59     O59    -5.5619   -0.3291   -3.0676 O.2      1 ZINC000085540112   -0.5200
60     N60    -6.9322   -1.4694   -4.3882 N.am     1 ZINC000085540112   -0.6900
61     C61    -8.0396   -1.3231   -3.4403 C.3      1 ZINC000085540112    0.0800
62     H62    -7.9744   -0.3504   -2.9528 H        1 ZINC000085540112    0.0800
63     C63    -9.3695   -1.4303   -4.1892 C.3      1 ZINC000085540112   -0.0900
64     C64    -9.5064   -0.2527   -5.1563 C.3      1 ZINC000085540112   -0.1400
65     C65   -10.8163   -0.3582   -5.8939 C.2      1 ZINC000085540112    0.5100
66     N66   -11.1542    0.5763   -6.8044 N.am     1 ZINC000085540112   -0.8600
67     O67   -11.5665   -1.2841   -5.6683 O.2      1 ZINC000085540112   -0.5400
68     C68    -7.9588   -2.4121   -2.4016 C.2      1 ZINC000085540112    0.4900
69     O69    -7.0596   -3.2341   -2.4489 O.co2    1 ZINC000085540112   -0.6900
70     O70    -8.7926   -2.4710   -1.5141 O.co2    1 ZINC000085540112   -0.7000
71     H71    -5.2654    2.2080   -1.4588 H        1 ZINC000085540112    0.0400
72     H72    -4.9829    2.0092   -3.2049 H        1 ZINC000085540112    0.0900
73     H73    -4.3497    0.8042   -2.0580 H        1 ZINC000085540112    0.0800
74     H74    -3.4065    3.6623   -2.4946 H        1 ZINC000085540112    0.0500
75     H75    -2.9679    2.7290   -1.0438 H        1 ZINC000085540112    0.0600
76     H76    -0.5427    2.4367   -1.5316 H        1 ZINC000085540112    0.0600
77     H77    -0.0372    2.1895   -3.2203 H        1 ZINC000085540112    0.0600
78     H78    -0.8780    3.6872   -2.7531 H        1 ZINC000085540112    0.0500
79     H79    -3.6336    3.8031   -4.6374 H        1 ZINC000085540112    0.4100
80     H80    -4.0309    5.4631   -6.0923 H        1 ZINC000085540112    0.0700
81     H81    -3.2252    6.9253   -6.7096 H        1 ZINC000085540112    0.0600
82     H82    -3.3382    5.2059   -8.3638 H        1 ZINC000085540112    0.3800
83     H83    -0.0891    5.8618   -6.2903 H        1 ZINC000085540112    0.4200
84     H84    -0.5502   10.1816   -6.3214 H        1 ZINC000085540112    0.4100
85     H85    -1.1061   10.6528   -9.1030 H        1 ZINC000085540112    0.0900
86     H86    -1.6039   12.0300   -8.0662 H        1 ZINC000085540112    0.1000
87     H87    -1.4549   12.3582  -10.7670 H        1 ZINC000085540112    0.1000
88     H88    -0.8620   13.6593   -9.6805 H        1 ZINC000085540112    0.0800
89     H89     0.7510   11.4522  -11.0736 H        1 ZINC000085540112    0.0800
90     H90     1.1027   13.2062  -11.0031 H        1 ZINC000085540112    0.0900
91     H91     3.8938   10.7922  -11.0107 H        1 ZINC000085540112    0.0700
92     H92     2.4879   11.6620  -11.6702 H        1 ZINC000085540112    0.0900
93     H93     4.1300   12.0843  -12.2119 H        1 ZINC000085540112    0.0700
94     H94     5.3697   12.3984   -9.0716 H        1 ZINC000085540112    0.4200
95     H95     7.0864   15.8163   -9.1463 H        1 ZINC000085540112    0.1300
96     H96     6.7388   14.4477   -8.0626 H        1 ZINC000085540112    0.1500
97     H97     8.4519   16.1344   -6.8448 H        1 ZINC000085540112    0.4100
98     H98    10.0504   15.6317   -6.9670 H        1 ZINC000085540112    0.4200
99     H99     1.2595    9.0673   -4.2914 H        1 ZINC000085540112    0.0800
100    H100    2.4752    6.5741   -5.5640 H        1 ZINC000085540112    0.0600
101    H101    2.9183    7.2250   -3.9677 H        1 ZINC000085540112    0.0700
102    H102    1.2730    6.6081   -4.2518 H        1 ZINC000085540112    0.0600
103    H103    2.5538   10.2872   -6.0193 H        1 ZINC000085540112    0.0600
104    H104    3.6344    9.3858   -4.9294 H        1 ZINC000085540112    0.0500
105    H105    3.2822    8.7543   -6.5559 H        1 ZINC000085540112    0.0600
106    H106   -1.6682   -0.9655   -5.3768 H        1 ZINC000085540112    0.0700
107    H107   -1.7205   -0.4203   -3.6724 H        1 ZINC000085540112    0.0800
108    H108   -2.0063   -3.0515   -4.2301 H        1 ZINC000085540112    0.0900
109    H109   -3.0734   -2.2988   -2.9975 H        1 ZINC000085540112    0.0900
110    H110   -3.6758   -2.8644   -5.9554 H        1 ZINC000085540112    0.0800
111    H111   -4.7114   -3.1880   -4.5263 H        1 ZINC000085540112    0.1000
112    H112   -7.0654   -1.9523   -5.2189 H        1 ZINC000085540112    0.3900
113    H113   -9.3970   -2.3652   -4.7488 H        1 ZINC000085540112    0.0700
114    H114  -10.1918   -1.4106   -3.4740 H        1 ZINC000085540112    0.0900
115    H115   -9.4789    0.6822   -4.5967 H        1 ZINC000085540112    0.0900
116    H116   -8.6841   -0.2724   -5.8715 H        1 ZINC000085540112    0.0900
117    H117  -10.5543    1.3168   -6.9849 H        1 ZINC000085540112    0.4000
118    H118  -11.9974    0.5084   -7.2792 H        1 ZINC000085540112    0.4000
@<TRIPOS>BOND
1     1     2     1
2     1     71    1
3     1     72    1
4     1     73    1
5     2     3     1
6     2     74    1
7     2     75    1
8     3     4     1
9     3     5     1
10    3     6     1
11    5     76    1
12    5     77    1
13    5     78    1
14    6     7     1
15    6     8     1
16    6     50    1
17    8     9     am
18    8     79    1
19    9     10    2
20    9     11    1
21    11    12    1
22    11    13    1
23    11    15    1
24    13    14    1
25    13    80    1
26    13    81    1
27    14    82    1
28    15    16    am
29    15    83    1
30    16    17    2
31    16    18    1
32    18    19    1
33    18    20    1
34    18    47    1
35    20    21    am
36    20    84    1
37    21    22    2
38    21    23    1
39    23    24    1
40    23    28    1
41    23    25    1
42    25    26    1
43    25    85    1
44    25    86    1
45    26    27    1
46    26    87    1
47    26    88    1
48    27    28    1
49    27    89    1
50    27    90    1
51    28    29    am
52    29    30    2
53    29    31    1
54    31    32    1
55    31    33    1
56    31    34    1
57    33    91    1
58    33    92    1
59    33    93    1
60    34    35    am
61    34    94    1
62    35    36    2
63    35    37    1
64    37    38    1
65    37    39    1
66    37    43    1
67    39    40    1
68    39    41    1
69    39    42    1
70    43    44    1
71    43    95    1
72    43    96    1
73    44    45    am
74    44    46    2
75    45    97    1
76    45    98    1
77    47    48    1
78    47    49    1
79    47    99    1
80    48    100   1
81    48    101   1
82    48    102   1
83    49    103   1
84    49    104   1
85    49    105   1
86    50    51    2
87    50    52    am
88    52    56    1
89    52    53    1
90    53    54    1
91    53    106   1
92    53    107   1
93    54    55    1
94    54    108   1
95    54    109   1
96    55    56    1
97    55    110   1
98    55    111   1
99    56    57    1
100   56    58    1
101   58    59    2
102   58    60    am
103   60    61    1
104   60    112   1
105   61    62    1
106   61    63    1
107   61    68    1
108   63    64    1
109   63    113   1
110   63    114   1
111   64    65    1
112   64    115   1
113   64    116   1
114   65    66    am
115   65    67    2
116   66    117   1
117   66    118   1
118   68    69    ar
119   68    70    ar
@<TRIPOS>SUBSTRUCTURE
1   ZINC000085540112 1     RESIDUE    1   A     ZIN   1
