@<TRIPOS>MOLECULE
ZINC000052971454
52    56    1     0     0
SMALL
USER_CHARGES
@<TRIPOS>ATOM
1      O1      0.0021   -0.0041    0.0020 O.2      1 ZINC000052971454   -0.4900
2      C2     -0.0144    1.2118    0.0087 C.2      1 ZINC000052971454    0.6300
3      N3     -1.1249    1.9754    0.0293 N.am     1 ZINC000052971454   -0.6500
4      C4     -0.7169    3.3091    0.0302 C.ar     1 ZINC000052971454    0.1000
5      C5     -1.4039    4.5143    0.0464 C.ar     1 ZINC000052971454   -0.1300
6      C6     -0.7059    5.7065    0.0420 C.ar     1 ZINC000052971454   -0.0700
7      C7      0.6771    5.7041    0.0214 C.ar     1 ZINC000052971454   -0.1300
8      C8      1.3734    4.5039    0.0051 C.ar     1 ZINC000052971454    0.1600
9      N9      2.7720    4.5043   -0.0162 N.3      1 ZINC000052971454   -0.4900
10     C10     3.2975    3.1360   -0.1216 C.3      1 ZINC000052971454    0.0500
11     C11     4.8240    3.1850   -0.2219 C.3      1 ZINC000052971454    0.0600
12     N12     5.3684    3.8655    0.9613 N.3      1 ZINC000052971454   -0.5300
13     C13     6.8373    3.8659    0.9390 C.3      1 ZINC000052971454    0.0900
14     C14     7.3597    4.3457    2.2687 C.ar     1 ZINC000052971454   -0.0800
15     C15     7.5871    5.6941    2.4751 C.ar     1 ZINC000052971454   -0.1100
16     C16     8.0666    6.1415    3.6932 C.ar     1 ZINC000052971454   -0.1200
17     C17     8.3208    5.2432    4.7095 C.ar     1 ZINC000052971454   -0.1100
18     C18     8.0930    3.8834    4.5072 C.ar     1 ZINC000052971454   -0.0400
19     C19     8.3644    2.9127    5.5963 C.ar     1 ZINC000052971454   -0.0500
20     C20     8.1421    1.5525    5.3921 C.ar     1 ZINC000052971454   -0.1100
21     C21     8.3962    0.6541    6.4086 C.ar     1 ZINC000052971454   -0.1200
22     C22     8.8706    1.1019    7.6283 C.ar     1 ZINC000052971454   -0.1200
23     C23     9.0930    2.4512    7.8365 C.ar     1 ZINC000052971454   -0.1200
24     C24     8.8478    3.3577    6.8250 C.ar     1 ZINC000052971454   -0.1100
25     C25     7.6051    3.4390    3.2802 C.ar     1 ZINC000052971454   -0.0900
26     C26     4.8429    5.2338    1.0668 C.3      1 ZINC000052971454    0.0500
27     C27     3.3165    5.1848    1.1671 C.3      1 ZINC000052971454    0.0600
28     C28     0.6756    3.2996    0.0095 C.ar     1 ZINC000052971454   -0.0200
29     O29     1.0703    2.0020    0.0026 O.3      1 ZINC000052971454   -0.2300
30     H30    -2.0406    1.6557    0.0409 H        1 ZINC000052971454    0.4400
31     H31    -2.4838    4.5205    0.0622 H        1 ZINC000052971454    0.1400
32     H32    -1.2421    6.6439    0.0542 H        1 ZINC000052971454    0.1400
33     H33     1.2169    6.6395    0.0176 H        1 ZINC000052971454    0.1500
34     H34     3.0092    2.5666    0.7620 H        1 ZINC000052971454    0.0600
35     H35     2.8898    2.6574   -1.0120 H        1 ZINC000052971454    0.0900
36     H36     5.2179    2.1698   -0.2710 H        1 ZINC000052971454    0.0900
37     H37     5.1120    3.7311   -1.1202 H        1 ZINC000052971454    0.0500
38     H38     7.1981    2.8549    0.7502 H        1 ZINC000052971454    0.0900
39     H39     7.1884    4.5304    0.1495 H        1 ZINC000052971454    0.0500
40     H40     7.3899    6.4005    1.6823 H        1 ZINC000052971454    0.1200
41     H41     8.2427    7.1956    3.8489 H        1 ZINC000052971454    0.1200
42     H42     8.6958    5.5934    5.6598 H        1 ZINC000052971454    0.1200
43     H43     7.7714    1.2018    4.4403 H        1 ZINC000052971454    0.1300
44     H44     8.2239   -0.4004    6.2516 H        1 ZINC000052971454    0.1200
45     H45     9.0677    0.3955    8.4211 H        1 ZINC000052971454    0.1200
46     H46     9.4632    2.7955    8.7909 H        1 ZINC000052971454    0.1200
47     H47     9.0219    4.4110    6.9886 H        1 ZINC000052971454    0.1200
48     H48     7.4268    2.3862    3.1181 H        1 ZINC000052971454    0.1300
49     H49     5.2507    5.7123    1.9572 H        1 ZINC000052971454    0.0900
50     H50     5.1312    5.8032    0.1832 H        1 ZINC000052971454    0.0500
51     H51     2.9225    6.1999    1.2162 H        1 ZINC000052971454    0.0900
52     H52     3.0284    4.6387    2.0653 H        1 ZINC000052971454    0.0600
@<TRIPOS>BOND
1     1     2     2
2     2     29    1
3     2     3     am
4     3     4     1
5     3     30    1
6     4     28    ar
7     4     5     ar
8     5     6     ar
9     5     31    1
10    6     7     ar
11    6     32    1
12    7     8     ar
13    7     33    1
14    8     9     1
15    8     28    ar
16    9     27    1
17    9     10    1
18    10    11    1
19    10    34    1
20    10    35    1
21    11    12    1
22    11    36    1
23    11    37    1
24    12    13    1
25    12    26    1
26    13    14    1
27    13    38    1
28    13    39    1
29    14    25    ar
30    14    15    ar
31    15    16    ar
32    15    40    1
33    16    17    ar
34    16    41    1
35    17    18    ar
36    17    42    1
37    18    19    1
38    18    25    ar
39    19    24    ar
40    19    20    ar
41    20    21    ar
42    20    43    1
43    21    22    ar
44    21    44    1
45    22    23    ar
46    22    45    1
47    23    24    ar
48    23    46    1
49    24    47    1
50    25    48    1
51    26    27    1
52    26    49    1
53    26    50    1
54    27    51    1
55    27    52    1
56    28    29    1
@<TRIPOS>SUBSTRUCTURE
1   ZINC000052971454 1     RESIDUE    1   A     ZIN   1
