@<TRIPOS>MOLECULE
ZINC000001481860
54    56    1     0     0
SMALL
USER_CHARGES
@<TRIPOS>ATOM
1      C1     -0.4519    1.5448    0.6166 C.3      1 ZINC000001481860   -0.1600
2      C2     -0.2050    0.0770    0.2623 C.3      1 ZINC000001481860   -0.1400
3      C3      0.8196   -0.5161    1.2314 C.3      1 ZINC000001481860    0.1200
4      C4      0.3189   -0.3500    2.6676 C.3      1 ZINC000001481860   -0.1000
5      C5     -0.9325   -1.1671    2.8611 C.2      1 ZINC000001481860   -0.2200
6      C6     -0.9965   -2.0600    3.8388 C.2      1 ZINC000001481860   -0.0600
7      C7     -2.2239   -2.8614    4.0286 C.ar     1 ZINC000001481860   -0.0900
8      C8     -3.3148   -2.6846    3.1767 C.ar     1 ZINC000001481860   -0.1100
9      C9     -4.4576   -3.4358    3.3592 C.ar     1 ZINC000001481860   -0.1200
10     C10    -4.5235   -4.3625    4.3844 C.ar     1 ZINC000001481860   -0.1000
11     C11    -3.4455   -4.5422    5.2327 C.ar     1 ZINC000001481860   -0.1200
12     C12    -2.2945   -3.8021    5.0568 C.ar     1 ZINC000001481860   -0.1000
13     C13     2.1355    0.2008    1.0720 C.ar     1 ZINC000001481860   -0.1300
14     C14     2.9817    0.3414    2.1560 C.ar     1 ZINC000001481860   -0.1000
15     C15     4.1888    0.9990    2.0099 C.ar     1 ZINC000001481860   -0.1100
16     C16     4.5499    1.5157    0.7796 C.ar     1 ZINC000001481860   -0.0900
17     C17     3.7040    1.3743   -0.3046 C.ar     1 ZINC000001481860   -0.1100
18     C18     2.4989    0.7129   -0.1595 C.ar     1 ZINC000001481860   -0.1000
19     N19     1.0013   -1.9441    0.9383 N.4      1 ZINC000001481860   -0.3700
20     H20     0.1274   -2.4295    1.0756 H        1 ZINC000001481860    0.4200
21     C21     1.4379   -2.1063   -0.4549 C.3      1 ZINC000001481860   -0.0600
22     C22     2.0187   -2.5031    1.8385 C.3      1 ZINC000001481860    0.0200
23     C23     2.1301   -4.0116    1.6081 C.3      1 ZINC000001481860   -0.2100
24     C24     3.4620   -4.5492    1.0809 C.3      1 ZINC000001481860   -0.1700
25     C25     3.0569   -4.8012    2.5346 C.3      1 ZINC000001481860   -0.1500
26     H26     0.4996    2.0753    0.6510 H        1 ZINC000001481860    0.0700
27     H27    -1.0935    1.9981   -0.1391 H        1 ZINC000001481860    0.0800
28     H28    -0.9379    1.6068    1.5903 H        1 ZINC000001481860    0.0700
29     H29    -1.1404   -0.4774    0.3382 H        1 ZINC000001481860    0.0900
30     H30     0.1763    0.0084   -0.7565 H        1 ZINC000001481860    0.0900
31     H31     1.0868   -0.6914    3.3618 H        1 ZINC000001481860    0.0900
32     H32     0.0995    0.7009    2.8566 H        1 ZINC000001481860    0.1200
33     H33    -1.7771   -1.0252    2.2031 H        1 ZINC000001481860    0.1300
34     H34    -0.1519   -2.2018    4.4967 H        1 ZINC000001481860    0.1200
35     H35    -3.2648   -1.9611    2.3765 H        1 ZINC000001481860    0.1200
36     H36    -5.3027   -3.3000    2.7006 H        1 ZINC000001481860    0.1300
37     H37    -5.4204   -4.9478    4.5233 H        1 ZINC000001481860    0.1300
38     H38    -3.5035   -5.2667    6.0315 H        1 ZINC000001481860    0.1300
39     H39    -1.4535   -3.9435    5.7195 H        1 ZINC000001481860    0.1300
40     H40     2.6997   -0.0623    3.1172 H        1 ZINC000001481860    0.1300
41     H41     4.8496    1.1094    2.8569 H        1 ZINC000001481860    0.1400
42     H42     5.4926    2.0301    0.6655 H        1 ZINC000001481860    0.1300
43     H43     3.9860    1.7783   -1.2657 H        1 ZINC000001481860    0.1400
44     H44     1.8381    0.6025   -1.0065 H        1 ZINC000001481860    0.1300
45     H45     2.4067   -1.6256   -0.5904 H        1 ZINC000001481860    0.1200
46     H46     1.5232   -3.1678   -0.6876 H        1 ZINC000001481860    0.1300
47     H47     0.7076   -1.6460   -1.1204 H        1 ZINC000001481860    0.1200
48     H48     2.9808   -2.0326    1.6362 H        1 ZINC000001481860    0.1300
49     H49     1.7320   -2.3138    2.8730 H        1 ZINC000001481860    0.1300
50     H50     1.2187   -4.5039    1.2690 H        1 ZINC000001481860    0.1200
51     H51     3.4270   -5.3954    0.3947 H        1 ZINC000001481860    0.1100
52     H52     4.2589   -3.8282    0.8982 H        1 ZINC000001481860    0.1000
53     H53     3.5872   -4.2461    3.3083 H        1 ZINC000001481860    0.1100
54     H54     2.7554   -5.8132    2.8048 H        1 ZINC000001481860    0.1100
@<TRIPOS>BOND
1     1     2     1
2     1     26    1
3     1     27    1
4     1     28    1
5     2     3     1
6     2     29    1
7     2     30    1
8     3     4     1
9     3     13    1
10    3     19    1
11    4     5     1
12    4     31    1
13    4     32    1
14    5     6     2
15    5     33    1
16    6     7     1
17    6     34    1
18    7     12    ar
19    7     8     ar
20    8     9     ar
21    8     35    1
22    9     10    ar
23    9     36    1
24    10    11    ar
25    10    37    1
26    11    12    ar
27    11    38    1
28    12    39    1
29    13    18    ar
30    13    14    ar
31    14    15    ar
32    14    40    1
33    15    16    ar
34    15    41    1
35    16    17    ar
36    16    42    1
37    17    18    ar
38    17    43    1
39    18    44    1
40    19    20    1
41    19    21    1
42    19    22    1
43    21    45    1
44    21    46    1
45    21    47    1
46    22    23    1
47    22    48    1
48    22    49    1
49    23    25    1
50    23    24    1
51    23    50    1
52    24    25    1
53    24    51    1
54    24    52    1
55    25    53    1
56    25    54    1
@<TRIPOS>SUBSTRUCTURE
1   ZINC000001481860 1     RESIDUE    1   A     ZIN   1
