@<TRIPOS>MOLECULE
ZINC000034804182
49    52    1     0     0
SMALL
USER_CHARGES
@<TRIPOS>ATOM
1      C1     -0.0178    1.4608    0.0101 C.3      1 ZINC000034804182    0.0800
2      N2      0.0021   -0.0041    0.0020 N.am     1 ZINC000034804182   -0.9900
3      C3      0.0241   -0.7433    1.2666 C.3      1 ZINC000034804182    0.1400
4      H4      0.0367   -1.8137    1.0613 H        1 ZINC000034804182    0.1200
5      C5     -1.2239   -0.3952    2.0827 C.3      1 ZINC000034804182   -0.1200
6      C6     -1.3286   -1.3548    3.2741 C.3      1 ZINC000034804182   -0.0500
7      C7      0.0133   -1.3976    3.9686 C.2      1 ZINC000034804182    0.0500
8      C8      0.2461   -1.8716    5.2043 C.2      1 ZINC000034804182   -0.0900
9      C9     -0.7729   -2.4561    6.1483 C.3      1 ZINC000034804182   -0.1200
10     C10    -0.8725   -3.9427    5.9221 C.2      1 ZINC000034804182    0.5000
11     O11    -0.1802   -4.4780    5.0732 O.co2    1 ZINC000034804182   -0.6900
12     O12    -1.6454   -4.6102    6.5882 O.co2    1 ZINC000034804182   -0.7100
13     C13     1.6683   -1.7136    5.4559 C.ar     1 ZINC000034804182   -0.0900
14     C14     2.4712   -2.0245    6.5568 C.ar     1 ZINC000034804182   -0.0500
15     C15     3.8093   -1.7331    6.4494 C.ar     1 ZINC000034804182   -0.1700
16     C16     4.3478   -1.1593    5.3098 C.ar     1 ZINC000034804182   -0.1100
17     C17     3.5748   -0.8405    4.2064 C.ar     1 ZINC000034804182   -0.1400
18     C18     2.2130   -1.1247    4.2872 C.ar     1 ZINC000034804182    0.1100
19     N19     1.1872   -0.9440    3.4059 N.pl3    1 ZINC000034804182   -0.4800
20     C20     1.2772   -0.3612    2.0589 C.3      1 ZINC000034804182    0.1100
21     S21    -0.0004   -0.8243   -1.4366 S.o2     1 ZINC000034804182    2.6900
22     O22    -0.5247   -2.1160   -1.1611 O.2      1 ZINC000034804182   -0.9400
23     O23    -0.5660    0.0551   -2.3989 O.2      1 ZINC000034804182   -0.9500
24     C24     1.6816   -1.0597   -1.9056 C.ar     1 ZINC000034804182   -0.6900
25     C25     2.3229   -0.1090   -2.6777 C.ar     1 ZINC000034804182    0.0100
26     C26     3.6421   -0.2926   -3.0462 C.ar     1 ZINC000034804182   -0.1800
27     C27     4.3218   -1.4290   -2.6414 C.ar     1 ZINC000034804182    0.1600
28     F28     5.6116   -1.6093   -3.0007 F        1 ZINC000034804182   -0.1300
29     C29     3.6786   -2.3802   -1.8678 C.ar     1 ZINC000034804182   -0.1700
30     C30     2.3608   -2.1922   -1.4965 C.ar     1 ZINC000034804182    0.0100
31     H31     1.0048    1.8381    0.0023 H        1 ZINC000034804182    0.0600
32     H32    -0.5450    1.8219   -0.8730 H        1 ZINC000034804182    0.0900
33     H33    -0.5280    1.8123    0.9069 H        1 ZINC000034804182    0.0800
34     H34    -1.1476    0.6297    2.4459 H        1 ZINC000034804182    0.0700
35     H35    -2.1094   -0.4956    1.4551 H        1 ZINC000034804182    0.0800
36     H36    -2.0900   -0.9977    3.9676 H        1 ZINC000034804182    0.0900
37     H37    -1.5913   -2.3519    2.9207 H        1 ZINC000034804182    0.0900
38     H38    -0.4672   -2.2647    7.1769 H        1 ZINC000034804182    0.0600
39     H39    -1.7436   -1.9950    5.9660 H        1 ZINC000034804182    0.0600
40     H40     2.0593   -2.4720    7.4493 H        1 ZINC000034804182    0.1300
41     H41     4.4620   -1.9590    7.2797 H        1 ZINC000034804182    0.1100
42     H42     5.4075   -0.9530    5.2811 H        1 ZINC000034804182    0.1100
43     H43     4.0072   -0.3923    3.3240 H        1 ZINC000034804182    0.1200
44     H44     2.1605   -0.7493    1.5517 H        1 ZINC000034804182    0.0800
45     H45     1.3454    0.7240    2.1346 H        1 ZINC000034804182    0.0800
46     H46     1.7926    0.7773   -2.9934 H        1 ZINC000034804182    0.1500
47     H47     4.1427    0.4499   -3.6500 H        1 ZINC000034804182    0.1500
48     H48     4.2076   -3.2671   -1.5517 H        1 ZINC000034804182    0.1500
49     H49     1.8590   -2.9339   -0.8927 H        1 ZINC000034804182    0.1500
@<TRIPOS>BOND
1     1     2     1
2     1     31    1
3     1     32    1
4     1     33    1
5     2     3     1
6     2     21    am
7     3     4     1
8     3     20    1
9     3     5     1
10    5     6     1
11    5     34    1
12    5     35    1
13    6     7     1
14    6     36    1
15    6     37    1
16    7     19    1
17    7     8     2
18    8     9     1
19    8     13    1
20    9     10    1
21    9     38    1
22    9     39    1
23    10    11    ar
24    10    12    ar
25    13    18    ar
26    13    14    ar
27    14    15    ar
28    14    40    1
29    15    16    ar
30    15    41    1
31    16    17    ar
32    16    42    1
33    17    18    ar
34    17    43    1
35    18    19    1
36    19    20    1
37    20    44    1
38    20    45    1
39    21    22    2
40    21    23    2
41    21    24    1
42    24    30    ar
43    24    25    ar
44    25    26    ar
45    25    46    1
46    26    27    ar
47    26    47    1
48    27    28    1
49    27    29    ar
50    29    30    ar
51    29    48    1
52    30    49    1
@<TRIPOS>SUBSTRUCTURE
1   ZINC000034804182 1     RESIDUE    1   A     ZIN   1
