@<TRIPOS>MOLECULE
ZINC000002568223
48    50    1     0     0
SMALL
USER_CHARGES
@<TRIPOS>ATOM
1      C1      0.0549    1.4142   -0.0728 C.3      1 ZINC000002568223   -0.0100
2      N2     -0.0098   -0.0459    0.0280 N.am     1 ZINC000002568223   -0.6200
3      C3      0.0792   -0.6429    1.2330 C.2      1 ZINC000002568223    0.5700
4      O4      0.1669   -1.8531    1.3068 O.2      1 ZINC000002568223   -0.5200
5      C5      0.0702    0.1738    2.4647 C.ar     1 ZINC000002568223   -0.1400
6      C6      0.0896    1.5671    2.3816 C.ar     1 ZINC000002568223   -0.1300
7      C7      0.0811    2.3247    3.5342 C.ar     1 ZINC000002568223   -0.1100
8      C8      0.0534    1.7061    4.7727 C.ar     1 ZINC000002568223    0.0000
9      Cl9     0.0423    2.6664    6.2188 Cl       1 ZINC000002568223   -0.0200
10     C10     0.0340    0.3227    4.8622 C.ar     1 ZINC000002568223   -0.0400
11     Cl11   -0.0006   -0.4445    6.4191 Cl       1 ZINC000002568223   -0.0200
12     C12     0.0365   -0.4452    3.7158 C.ar     1 ZINC000002568223   -0.0300
13     C13    -0.1712   -0.8571   -1.1812 C.3      1 ZINC000002568223    0.1300
14     H14    -0.2428   -1.9093   -0.9060 H        1 ZINC000002568223    0.1300
15     C15    -1.4462   -0.4335   -1.9131 C.3      1 ZINC000002568223   -0.1300
16     C16    -1.3457    1.0435   -2.2995 C.3      1 ZINC000002568223   -0.1700
17     C17    -0.1387    1.2497   -3.2168 C.3      1 ZINC000002568223   -0.1200
18     C18     1.1364    0.8261   -2.4849 C.3      1 ZINC000002568223   -0.1700
19     C19     1.0359   -0.6509   -2.0985 C.3      1 ZINC000002568223    0.0200
20     H20     0.9158   -1.2545   -2.9982 H        1 ZINC000002568223    0.1500
21     N21     2.2601   -1.0576   -1.3958 N.4      1 ZINC000002568223   -0.3900
22     H22     2.3751   -0.5142   -0.5535 H        1 ZINC000002568223    0.4200
23     C23     2.2055   -2.5053   -1.0680 C.3      1 ZINC000002568223   -0.0200
24     C24     3.6963   -2.8823   -0.8783 C.3      1 ZINC000002568223   -0.1400
25     C25     4.4065   -2.0405   -1.9633 C.3      1 ZINC000002568223   -0.1400
26     C26     3.4351   -0.8864   -2.2776 C.3      1 ZINC000002568223   -0.0100
27     H27     0.9651    1.7717    0.4088 H        1 ZINC000002568223    0.0900
28     H28     0.0608    1.7061   -1.1229 H        1 ZINC000002568223    0.1400
29     H29    -0.8131    1.8512    0.4209 H        1 ZINC000002568223    0.1000
30     H30     0.1115    2.0512    1.4164 H        1 ZINC000002568223    0.1900
31     H31     0.0964    3.4027    3.4706 H        1 ZINC000002568223    0.1500
32     H32     0.0214   -1.5228    3.7861 H        1 ZINC000002568223    0.1600
33     H33    -1.5663   -1.0371   -2.8128 H        1 ZINC000002568223    0.0900
34     H34    -2.3061   -0.5804   -1.2596 H        1 ZINC000002568223    0.0900
35     H35    -2.2541    1.3453   -2.8210 H        1 ZINC000002568223    0.0900
36     H36    -1.2256    1.6470   -1.3999 H        1 ZINC000002568223    0.1000
37     H37    -0.2588    0.6461   -4.1165 H        1 ZINC000002568223    0.0800
38     H38    -0.0671    2.3019   -3.4921 H        1 ZINC000002568223    0.0900
39     H39     1.9963    0.9730   -3.1385 H        1 ZINC000002568223    0.0900
40     H40     1.2564    1.4296   -1.5853 H        1 ZINC000002568223    0.1100
41     H41     1.6468   -2.6703   -0.1467 H        1 ZINC000002568223    0.1500
42     H42     1.7677   -3.0699   -1.8911 H        1 ZINC000002568223    0.1300
43     H43     4.0420   -2.6003    0.1163 H        1 ZINC000002568223    0.1000
44     H44     3.8503   -3.9470   -1.0539 H        1 ZINC000002568223    0.1200
45     H45     5.3484   -1.6474   -1.5808 H        1 ZINC000002568223    0.1000
46     H46     4.5811   -2.6425   -2.8550 H        1 ZINC000002568223    0.1000
47     H47     3.1252   -0.9357   -3.3215 H        1 ZINC000002568223    0.1300
48     H48     3.9171    0.0701   -2.0754 H        1 ZINC000002568223    0.1300
@<TRIPOS>BOND
1     1     2     1
2     1     27    1
3     1     28    1
4     1     29    1
5     2     3     am
6     2     13    1
7     3     4     2
8     3     5     1
9     5     12    ar
10    5     6     ar
11    6     7     ar
12    6     30    1
13    7     8     ar
14    7     31    1
15    8     9     1
16    8     10    ar
17    10    11    1
18    10    12    ar
19    12    32    1
20    13    14    1
21    13    19    1
22    13    15    1
23    15    16    1
24    15    33    1
25    15    34    1
26    16    17    1
27    16    35    1
28    16    36    1
29    17    18    1
30    17    37    1
31    17    38    1
32    18    19    1
33    18    39    1
34    18    40    1
35    19    20    1
36    19    21    1
37    21    22    1
38    21    26    1
39    21    23    1
40    23    24    1
41    23    41    1
42    23    42    1
43    24    25    1
44    24    43    1
45    24    44    1
46    25    26    1
47    25    45    1
48    25    46    1
49    26    47    1
50    26    48    1
@<TRIPOS>SUBSTRUCTURE
1   ZINC000002568223 1     RESIDUE    1   A     ZIN   1
