@<TRIPOS>MOLECULE
ZINC000066074200
  45   48    0    0    0
SMALL
USER_CHARGES
NO_NAME
@<TRIPOS>ATOM
    1 C1       -0.0225     1.8097     0.0120 C.3    1 <0>      -0.6600
    2 S2        0.0021    -0.0041     0.0020 S.o2   1 <0>       2.6000
    3 O3        0.8448    -0.4970     1.0346 O.2    1 <0>      -0.9100
    4 O4       -1.3093    -0.5195    -0.1821 O.2    1 <0>      -0.9400
    5 N5        0.7961    -0.3989    -1.3965 N.am   1 <0>      -0.9200
    6 C6        0.1513    -0.6039    -2.6970 C.3    1 <0>       0.1100
    7 C7        1.2977    -0.9460    -3.6646 C.3    1 <0>      -0.0700
    8 C8        2.5368    -0.9050    -2.8037 C.ar   1 <0>      -0.2900
    9 C9        3.8797    -1.1233    -3.0906 C.ar   1 <0>       0.3200
   10 C10       4.3098    -1.4694    -4.4663 C.ar   1 <0>      -0.2300
   11 C11       3.5028    -2.2568    -5.2928 C.ar   1 <0>       0.2300
   12 N12       3.9210    -2.5436    -6.5123 N.ar   1 <0>      -0.5700
   13 C13       5.0877    -2.0954    -6.9544 C.ar   1 <0>       0.5800
   14 N14       5.4887    -2.4181    -8.2371 N.pl3  1 <0>      -0.8100
   15 N15       5.8804    -1.3460    -6.2010 N.ar   1 <0>      -0.5700
   16 C16       5.5300    -1.0118    -4.9721 C.ar   1 <0>       0.2400
   17 N17       4.7751    -1.0157    -2.1065 N.ar   1 <0>      -0.5800
   18 C18       4.3884    -0.7062    -0.8793 C.ar   1 <0>       0.6100
   19 N19       5.3427    -0.6027     0.1177 N.pl3  1 <0>      -0.5800
   20 C20       4.9619    -0.2671     1.4989 C.3    1 <0>       0.0900
   21 C21       5.6004    -1.2951     2.4399 C.3    1 <0>       0.0500
   22 O22       7.0020    -1.3743     2.1691 O.3    1 <0>      -0.3800
   23 C23       7.3187    -1.8262     0.8503 C.3    1 <0>       0.0500
   24 C24       6.7675    -0.8309    -0.1709 C.3    1 <0>       0.0900
   25 N25       3.1187    -0.4922    -0.5751 N.ar   1 <0>      -0.5900
   26 C26       2.1632    -0.5765    -1.5063 C.ar   1 <0>       0.4600
   27 H27       1.0001     2.1870     0.0043 H      1 <0>       0.1300
   28 H28      -0.5497     2.1708    -0.8711 H      1 <0>       0.1300
   29 H29      -0.5327     2.1613     0.9088 H      1 <0>       0.1400
   30 H30      -0.5568    -1.4308    -2.6420 H      1 <0>       0.1000
   31 H31      -0.3542     0.3074    -3.0165 H      1 <0>       0.0900
   32 H32       1.1579    -1.9423    -4.0841 H      1 <0>       0.0900
   33 H33       1.3607    -0.2024    -4.4590 H      1 <0>       0.0900
   34 H34       2.5514    -2.6256    -4.9390 H      1 <0>       0.1700
   35 H35       4.9191    -2.9653    -8.8001 H      1 <0>       0.4200
   36 H36       6.3398    -2.0973    -8.5743 H      1 <0>       0.4200
   37 H37       6.1807    -0.4010    -4.3639 H      1 <0>       0.1800
   38 H38       5.3225     0.7313     1.7469 H      1 <0>       0.0700
   39 H39       3.8771    -0.3016     1.5993 H      1 <0>       0.1200
   40 H40       5.4462    -0.9872     3.4740 H      1 <0>       0.1100
   41 H41       5.1426    -2.2709     2.2776 H      1 <0>       0.0600
   42 H42       8.4006    -1.9005     0.7409 H      1 <0>       0.1100
   43 H43       6.8671    -2.8040     0.6823 H      1 <0>       0.0600
   44 H44       6.8796    -1.2366    -1.1763 H      1 <0>       0.1100
   45 H45       7.3080     0.1124    -0.0927 H      1 <0>       0.0800
@<TRIPOS>BOND
   1    1    2 1
   2    1   27 1
   3    1   28 1
   4    1   29 1
   5    2    3 2
   6    2    4 2
   7    2    5 am
   8    5   26 1
   9    5    6 1
  10    6    7 1
  11    6   30 1
  12    6   31 1
  13    7    8 1
  14    7   32 1
  15    7   33 1
  16    8   26 ar
  17    8    9 ar
  18    9   10 1
  19    9   17 ar
  20   10   16 ar
  21   10   11 ar
  22   11   12 ar
  23   11   34 1
  24   12   13 ar
  25   13   14 1
  26   13   15 ar
  27   14   35 1
  28   14   36 1
  29   15   16 ar
  30   16   37 1
  31   17   18 ar
  32   18   19 1
  33   18   25 ar
  34   19   24 1
  35   19   20 1
  36   20   21 1
  37   20   38 1
  38   20   39 1
  39   21   22 1
  40   21   40 1
  41   21   41 1
  42   22   23 1
  43   23   24 1
  44   23   42 1
  45   23   43 1
  46   24   44 1
  47   24   45 1
  48   25   26 ar
