@<TRIPOS>MOLECULE
ZINC000100369621
  50   54    0    0    0
SMALL
USER_CHARGES
NO_NAME
@<TRIPOS>ATOM
    1 C1       -0.0187     1.5258     0.0104 C.3    1 <0>      -0.1500
    2 C2        0.0021    -0.0041     0.0020 C.3    1 <0>      -0.1400
    3 C3        0.7421    -0.5109     1.2415 C.3    1 <0>      -0.1000
    4 C4        0.7628    -2.0407     1.2331 C.3    1 <0>      -0.1500
    5 H5       -0.2673    -2.3875     1.1506 H      1 <0>       0.1400
    6 C6        1.5084    -2.4913    -0.0073 C.2    1 <0>       0.4400
    7 O7        1.1406    -2.1621    -1.1170 O.2    1 <0>      -0.4200
    8 C8        2.6501    -3.3099     0.1748 C.2    1 <0>      -0.1200
    9 C9        3.0618    -3.6796     1.4457 C.2    1 <0>       0.3000
   10 N10       4.1735    -4.4551     1.2737 N.pl3  1 <0>      -0.5600
   11 C11       4.4156    -4.5435    -0.0644 C.2    1 <0>       0.2400
   12 C12       5.5519    -5.3082    -0.6932 C.3    1 <0>       0.0000
   13 H13       5.8036    -4.8826    -1.6646 H      1 <0>       0.1200
   14 C14       6.7873    -5.2984     0.2359 C.3    1 <0>      -0.1200
   15 C15       7.0443    -6.8006     0.5657 C.3    1 <0>      -0.0900
   16 H16       7.6435    -6.9974     1.4547 H      1 <0>       0.1200
   17 C17       5.5739    -7.3491     0.5848 C.3    1 <0>      -0.1300
   18 C18       5.1777    -6.8147    -0.8402 C.3    1 <0>      -0.0800
   19 H19       4.1634    -7.0359    -1.1726 H      1 <0>       0.1200
   20 C20       6.3256    -7.4201    -1.7045 C.3    1 <0>      -0.0100
   21 H21       6.3726    -7.1510    -2.7597 H      1 <0>       0.1400
   22 O22       6.9119    -8.6398    -1.2454 O.3    1 <0>      -0.3400
   23 C23       7.5823    -7.4062    -0.7667 C.3    1 <0>      -0.0300
   24 H24       8.5865    -7.1580    -1.1102 H      1 <0>       0.1500
   25 N25       3.5170    -3.8678    -0.7150 N.2    1 <0>      -0.4000
   26 N26       2.4037    -3.2844     2.5877 N.am   1 <0>      -0.5200
   27 C27       2.9209    -3.7303     3.8838 C.3    1 <0>       0.0900
   28 C28       3.9332    -2.7095     4.4075 C.3    1 <0>      -0.1400
   29 C29       4.4734    -3.1753     5.7611 C.3    1 <0>      -0.1500
   30 C30       1.3072    -2.5075     2.5662 C.2    1 <0>       0.5500
   31 O31       0.7612    -2.1851     3.5999 O.2    1 <0>      -0.4800
   32 H32       1.0039     1.9031     0.0027 H      1 <0>       0.0500
   33 H33      -0.5459     1.8868    -0.8726 H      1 <0>       0.0600
   34 H34      -0.5289     1.8773     0.9072 H      1 <0>       0.0500
   35 H35      -1.0205    -0.3814     0.0098 H      1 <0>       0.0700
   36 H36       0.5123    -0.3556    -0.8948 H      1 <0>       0.0900
   37 H37       1.7647    -0.1336     1.2338 H      1 <0>       0.0700
   38 H38       0.2319    -0.1594     2.1383 H      1 <0>       0.0900
   39 H39       4.6970    -4.8683     1.9781 H      1 <0>       0.4200
   40 H40       7.6469    -4.8700    -0.2794 H      1 <0>       0.0900
   41 H41       6.5728    -4.7406     1.1475 H      1 <0>       0.0700
   42 H42       5.5443    -8.4375     0.6356 H      1 <0>       0.0900
   43 H43       4.9771    -6.8914     1.3736 H      1 <0>       0.0700
   44 H44       2.0973    -3.8214     4.5918 H      1 <0>       0.1100
   45 H45       3.4083    -4.6982     3.7669 H      1 <0>       0.0800
   46 H46       4.7569    -2.6185     3.6995 H      1 <0>       0.0600
   47 H47       3.4458    -1.7416     4.5244 H      1 <0>       0.0800
   48 H48       3.6497    -3.2664     6.4692 H      1 <0>       0.0600
   49 H49       4.9607    -4.1432     5.6442 H      1 <0>       0.0600
   50 H50       5.1945    -2.4481     6.1342 H      1 <0>       0.0600
@<TRIPOS>BOND
   1    1    2 1
   2    1   32 1
   3    1   33 1
   4    1   34 1
   5    2    3 1
   6    2   35 1
   7    2   36 1
   8    3    4 1
   9    3   37 1
  10    3   38 1
  11    4    5 1
  12    4   30 1
  13    4    6 1
  14    6    7 2
  15    6    8 1
  16    8   25 1
  17    8    9 2
  18    9   10 1
  19    9   26 1
  20   10   11 1
  21   10   39 1
  22   11   12 1
  23   11   25 2
  24   12   13 1
  25   12   18 1
  26   12   14 1
  27   14   15 1
  28   14   40 1
  29   14   41 1
  30   15   16 1
  31   15   23 1
  32   15   17 1
  33   17   18 1
  34   17   42 1
  35   17   43 1
  36   18   19 1
  37   18   20 1
  38   20   21 1
  39   20   23 1
  40   20   22 1
  41   22   23 1
  42   23   24 1
  43   26   27 1
  44   26   30 am
  45   27   28 1
  46   27   44 1
  47   27   45 1
  48   28   29 1
  49   28   46 1
  50   28   47 1
  51   29   48 1
  52   29   49 1
  53   29   50 1
  54   30   31 2
