@<TRIPOS>MOLECULE
ZINC000034587992
  21   22    0    0    0
SMALL
USER_CHARGES
NO_NAME
@<TRIPOS>ATOM
    1 N1       -0.0162     1.3436     0.0094 N.am   1 <0>      -0.8500
    2 C2        0.0021    -0.0041     0.0020 C.2    1 <0>       0.5700
    3 O3        1.0629    -0.5975    -0.0113 O.2    1 <0>      -0.5400
    4 C4       -1.2674    -0.7602     0.0101 C.ar   1 <0>      -0.2000
    5 C5       -2.4973    -0.0798     0.0196 C.ar   1 <0>       0.1600
    6 N6       -3.6358    -0.7241     0.0264 N.ar   1 <0>      -0.4700
    7 C7       -3.6875    -2.0610     0.0246 C.ar   1 <0>       0.1400
    8 C8       -4.9211    -2.7341     0.0315 C.ar   1 <0>      -0.1000
    9 C9       -4.9496    -4.0951     0.0292 C.ar   1 <0>      -0.0900
   10 C10      -3.7717    -4.8395     0.0205 C.ar   1 <0>      -0.1200
   11 C11      -2.5574    -4.2243     0.0136 C.ar   1 <0>      -0.0900
   12 C12      -2.4899    -2.8204     0.0153 C.ar   1 <0>      -0.1100
   13 C13      -1.2550    -2.1506     0.0025 C.ar   1 <0>       0.0200
   14 H14       0.8172     1.8399     0.0041 H      1 <0>       0.4100
   15 H15      -0.8627     1.8171     0.0160 H      1 <0>       0.4000
   16 H16      -2.5025     1.0002     0.0217 H      1 <0>       0.1600
   17 H17      -5.8440    -2.1731     0.0390 H      1 <0>       0.1400
   18 H18      -5.9009    -4.6063     0.0345 H      1 <0>       0.1400
   19 H19      -3.8229    -5.9183     0.0196 H      1 <0>       0.1300
   20 H20      -1.6510    -4.8115     0.0073 H      1 <0>       0.1400
   21 H21      -0.3246    -2.6988    -0.0089 H      1 <0>       0.1500
@<TRIPOS>BOND
   1    1    2 am
   2    1   14 1
   3    1   15 1
   4    2    3 2
   5    2    4 1
   6    4   13 ar
   7    4    5 ar
   8    5    6 ar
   9    5   16 1
  10    6    7 ar
  11    7   12 ar
  12    7    8 ar
  13    8    9 ar
  14    8   17 1
  15    9   10 ar
  16    9   18 1
  17   10   11 ar
  18   10   19 1
  19   11   12 ar
  20   11   20 1
  21   12   13 ar
  22   13   21 1
