@<TRIPOS>MOLECULE
ZINC000001677332
18    17    1     0     0
SMALL
USER_CHARGES
@<TRIPOS>ATOM
1      C1     -0.0187    1.5258    0.0104 C.3      1 ZINC000001677332   -0.1200
2      C2      0.0021   -0.0041    0.0020 C.3      1 ZINC000001677332   -0.1600
3      H3      0.5293   -0.3651    0.8851 H        1 ZINC000001677332    0.0800
4      C4      0.7074   -0.4901   -1.2379 C.2      1 ZINC000001677332    0.4800
5      O5      1.4615   -1.4461   -1.1751 O.co2    1 ZINC000001677332   -0.7000
6      O6      0.5241    0.0728   -2.3037 O.co2    1 ZINC000001677332   -0.6700
7      C7     -1.4333   -0.5336    0.0129 C.3      1 ZINC000001677332   -0.0300
8      H8     -1.9605   -0.1726   -0.8702 H        1 ZINC000001677332    0.1300
9      N9     -1.4134   -2.0025    0.0048 N.4      1 ZINC000001677332   -0.6100
10     H10    -0.9254   -2.3367    0.8222 H        1 ZINC000001677332    0.4300
11     H11    -2.3600   -2.3517    0.0120 H        1 ZINC000001677332    0.4200
12     H12    -0.9411   -2.3279   -0.8254 H        1 ZINC000001677332    0.4200
13     C13    -2.1387   -0.0476    1.2528 C.2      1 ZINC000001677332    0.5000
14     O14    -2.7455    1.0097    1.2340 O.co2    1 ZINC000001677332   -0.6500
15     O15    -2.1025   -0.7118    2.2746 O.co2    1 ZINC000001677332   -0.6800
16     H16     1.0039    1.9031    0.0027 H        1 ZINC000001677332    0.0500
17     H17    -0.5459    1.8868   -0.8726 H        1 ZINC000001677332    0.0600
18     H18    -0.5289    1.8773    0.9072 H        1 ZINC000001677332    0.0600
@<TRIPOS>BOND
1     1     2     1
2     1     16    1
3     1     17    1
4     1     18    1
5     2     3     1
6     2     4     1
7     2     7     1
8     4     5     ar
9     4     6     ar
10    7     8     1
11    7     9     1
12    7     13    1
13    9     10    1
14    9     11    1
15    9     12    1
16    13    14    ar
17    13    15    ar
@<TRIPOS>SUBSTRUCTURE
1   ZINC000001677332 1     RESIDUE    1   A     ZIN   1
