@<TRIPOS>MOLECULE
ZINC000001530218
40    42    1     0     0
SMALL
USER_CHARGES
@<TRIPOS>ATOM
1      C1     -0.0187    1.5258    0.0104 C.3      1 ZINC000001530218   -0.1200
2      C2      0.0021   -0.0041    0.0020 C.3      1 ZINC000001530218    0.0000
3      C3     -1.4129   -0.5757   -0.1079 C.3      1 ZINC000001530218   -0.1400
4      S4      1.0953   -0.6533   -1.3314 S.3      1 ZINC000001530218   -0.3100
5      C5      1.5454   -2.1898   -0.4344 C.3      1 ZINC000001530218    0.0900
6      H6      2.5750   -2.5116   -0.5910 H        1 ZINC000001530218    0.1400
7      C7      0.4986   -3.2953   -0.5604 C.3      1 ZINC000001530218    0.0900
8      H8     -0.3245   -3.0604   -1.2353 H        1 ZINC000001530218    0.1500
9      N9      1.0557   -4.6345   -0.7664 N.am     1 ZINC000001530218   -0.7100
10     C10     0.3197   -5.5838   -1.3778 C.2      1 ZINC000001530218    0.5200
11     O11    -0.8037   -5.3293   -1.7574 O.2      1 ZINC000001530218   -0.5200
12     C12     0.8927   -6.9614   -1.5896 C.3      1 ZINC000001530218   -0.1000
13     C13    -0.1240   -7.8262   -2.2892 C.ar     1 ZINC000001530218   -0.0700
14     C14    -1.0303   -8.5630   -1.5499 C.ar     1 ZINC000001530218   -0.1000
15     C15    -1.9630   -9.3563   -2.1915 C.ar     1 ZINC000001530218   -0.1200
16     C16    -1.9896   -9.4125   -3.5725 C.ar     1 ZINC000001530218   -0.1200
17     C17    -1.0838   -8.6750   -4.3118 C.ar     1 ZINC000001530218   -0.1200
18     C18    -0.1540   -7.8783   -3.6702 C.ar     1 ZINC000001530218   -0.1000
19     C19     0.2400   -2.9442    0.8803 C.2      1 ZINC000001530218    0.4700
20     O20    -0.5286   -3.4038    1.6983 O.2      1 ZINC000001530218   -0.3800
21     N21     1.1710   -1.9395    0.9646 N.am     1 ZINC000001530218   -0.4900
22     C22     0.7458   -0.5675    1.2462 C.3      1 ZINC000001530218    0.0200
23     H23     1.6167    0.0446    1.4803 H        1 ZINC000001530218    0.1100
24     C24    -0.2047   -0.5626    2.4156 C.2      1 ZINC000001530218    0.5000
25     O25    -0.4802   -1.6067    2.9817 O.co2    1 ZINC000001530218   -0.6400
26     O26    -0.6983    0.4855    2.7957 O.co2    1 ZINC000001530218   -0.6800
27     H27     1.0039    1.9031    0.0027 H        1 ZINC000001530218    0.0600
28     H28    -0.5459    1.8868   -0.8726 H        1 ZINC000001530218    0.0600
29     H29    -0.5289    1.8773    0.9072 H        1 ZINC000001530218    0.1000
30     H30    -1.8785   -0.2190   -1.0267 H        1 ZINC000001530218    0.0700
31     H31    -1.3646   -1.6645   -0.1240 H        1 ZINC000001530218    0.0500
32     H32    -2.0035   -0.2508    0.7486 H        1 ZINC000001530218    0.0900
33     H33     1.9541   -4.8380   -0.4627 H        1 ZINC000001530218    0.4100
34     H34     1.7921   -6.8907   -2.2014 H        1 ZINC000001530218    0.1100
35     H35     1.1433   -7.4030   -0.6251 H        1 ZINC000001530218    0.1100
36     H36    -1.0096   -8.5192   -0.4710 H        1 ZINC000001530218    0.1200
37     H37    -2.6706   -9.9326   -1.6139 H        1 ZINC000001530218    0.1200
38     H38    -2.7178  -10.0328   -4.0738 H        1 ZINC000001530218    0.1200
39     H39    -1.1044   -8.7191   -5.3907 H        1 ZINC000001530218    0.1200
40     H40     0.5537   -7.3021   -4.2478 H        1 ZINC000001530218    0.1200
@<TRIPOS>BOND
1     1     2     1
2     1     27    1
3     1     28    1
4     1     29    1
5     2     22    1
6     2     3     1
7     2     4     1
8     3     30    1
9     3     31    1
10    3     32    1
11    4     5     1
12    5     6     1
13    5     21    1
14    5     7     1
15    7     8     1
16    7     9     1
17    7     19    1
18    9     10    am
19    9     33    1
20    10    11    2
21    10    12    1
22    12    13    1
23    12    34    1
24    12    35    1
25    13    18    ar
26    13    14    ar
27    14    15    ar
28    14    36    1
29    15    16    ar
30    15    37    1
31    16    17    ar
32    16    38    1
33    17    18    ar
34    17    39    1
35    18    40    1
36    19    20    2
37    19    21    am
38    21    22    1
39    22    23    1
40    22    24    1
41    24    25    ar
42    24    26    ar
@<TRIPOS>SUBSTRUCTURE
1   ZINC000001530218 1     RESIDUE    1   A     ZIN   1
