@<TRIPOS>MOLECULE
ZINC000004098459
66    69    1     0     0
SMALL
USER_CHARGES
@<TRIPOS>ATOM
1      O1      0.0021   -0.0041    0.0020 O.2      1 ZINC000004098459   -0.4800
2      C2     -0.0144    1.2105    0.0087 C.2      1 ZINC000004098459    0.5100
3      O3      1.1429    1.8999    0.0013 O.3      1 ZINC000004098459   -0.3300
4      C4      2.3712    1.1257   -0.0145 C.3      1 ZINC000004098459    0.0800
5      H5      2.2099    0.1761    0.4956 H        1 ZINC000004098459    0.1200
6      C6      3.4786    1.9080    0.6982 C.3      1 ZINC000004098459    0.1300
7      H7      3.6054    2.8789    0.2193 H        1 ZINC000004098459    0.0800
8      O8      3.1251    2.0943    2.0702 O.3      1 ZINC000004098459   -0.5400
9      C9      4.7872    1.1170    0.6072 C.3      1 ZINC000004098459    0.0500
10     H10     4.6754    0.1667    1.1292 H        1 ZINC000004098459    0.0900
11     O11     5.8432    1.8700    1.2070 O.3      1 ZINC000004098459   -0.5500
12     C12     5.1154    0.8563   -0.8652 C.3      1 ZINC000004098459    0.0600
13     H13     5.2669    1.8064   -1.3776 H        1 ZINC000004098459    0.0900
14     C14     6.3897    0.0151   -0.9628 C.3      1 ZINC000004098459    0.0800
15     O15     6.7607   -0.1300   -2.3351 O.3      1 ZINC000004098459   -0.5600
16     O16     4.0318    0.1529   -1.4762 O.3      1 ZINC000004098459   -0.3700
17     C17     2.7919    0.8634   -1.4630 C.3      1 ZINC000004098459    0.2500
18     H18     2.9121    1.8138   -1.9829 H        1 ZINC000004098459    0.0800
19     O19     1.7894    0.0846   -2.1191 O.3      1 ZINC000004098459   -0.2800
20     C20     1.9604   -0.1489   -3.4469 C.ar     1 ZINC000004098459    0.1300
21     C21     3.0730    0.3561   -4.1035 C.ar     1 ZINC000004098459   -0.1800
22     C22     3.2448    0.1169   -5.4534 C.ar     1 ZINC000004098459   -0.0800
23     C23     2.3087   -0.6247   -6.1498 C.ar     1 ZINC000004098459   -0.1500
24     C24     1.1984   -1.1289   -5.4976 C.ar     1 ZINC000004098459   -0.0700
25     C25     1.0252   -0.8978   -4.1469 C.ar     1 ZINC000004098459   -0.1200
26     C26    -0.1847   -1.4479   -3.4367 C.3      1 ZINC000004098459    0.1300
27     O27    -1.0104   -2.1781   -4.3819 O.3      1 ZINC000004098459   -0.3500
28     C28    -2.1350   -2.7350   -3.9055 C.2      1 ZINC000004098459    0.4600
29     O29    -2.4200   -2.6163   -2.7374 O.2      1 ZINC000004098459   -0.4800
30     C30    -3.0420   -3.5083   -4.8276 C.3      1 ZINC000004098459    0.1400
31     O31    -3.0306   -2.9082   -6.1245 O.3      1 ZINC000004098459   -0.5200
32     C32    -2.5677   -4.9316   -4.9240 C.2      1 ZINC000004098459   -0.2000
33     C33    -3.1891   -5.9401   -4.4098 C.2      1 ZINC000004098459   -0.1000
34     C34    -4.4825   -5.8810   -3.6576 C.3      1 ZINC000004098459   -0.1000
35     C35    -4.7488   -4.4634   -3.1444 C.3      1 ZINC000004098459   -0.1600
36     C36    -4.4520   -3.4994   -4.2770 C.2      1 ZINC000004098459    0.3900
37     O37    -5.2993   -2.7604   -4.7178 O.2      1 ZINC000004098459   -0.4100
38     C38    -1.3036    1.9317    0.0187 C.ar     1 ZINC000004098459   -0.1200
39     C39    -1.3262    3.3278    0.0207 C.ar     1 ZINC000004098459   -0.0600
40     C40    -2.5336    3.9948    0.0301 C.ar     1 ZINC000004098459   -0.1300
41     C41    -3.7205    3.2836    0.0376 C.ar     1 ZINC000004098459   -0.0800
42     C42    -3.7054    1.9000    0.0358 C.ar     1 ZINC000004098459   -0.1300
43     C43    -2.5051    1.2203    0.0206 C.ar     1 ZINC000004098459   -0.0500
44     H44     3.7831    2.5835    2.5830 H        1 ZINC000004098459    0.3900
45     H45     6.7030    1.4282    1.1849 H        1 ZINC000004098459    0.3900
46     H46     7.1944    0.5103   -0.4193 H        1 ZINC000004098459    0.0700
47     H47     6.2098   -0.9685   -0.5290 H        1 ZINC000004098459    0.0600
48     H48     7.5621   -0.6534   -2.4726 H        1 ZINC000004098459    0.3900
49     H49     3.8042    0.9361   -3.5600 H        1 ZINC000004098459    0.1300
50     H50     4.1109    0.5099   -5.9651 H        1 ZINC000004098459    0.1300
51     H51     2.4446   -0.8102   -7.2050 H        1 ZINC000004098459    0.1300
52     H52     0.4683   -1.7076   -6.0439 H        1 ZINC000004098459    0.1400
53     H53     0.1357   -2.1192   -2.6399 H        1 ZINC000004098459    0.0900
54     H54    -0.7604   -0.6265   -3.0102 H        1 ZINC000004098459    0.0900
55     H55    -2.1573   -2.8841   -6.5391 H        1 ZINC000004098459    0.3900
56     H56    -1.6481   -5.1228   -5.4571 H        1 ZINC000004098459    0.1300
57     H57    -2.7354   -6.9124   -4.5329 H        1 ZINC000004098459    0.1300
58     H58    -5.2956   -6.1819   -4.3182 H        1 ZINC000004098459    0.0900
59     H59    -4.4368   -6.5662   -2.8111 H        1 ZINC000004098459    0.1000
60     H60    -5.7921   -4.3696   -2.8429 H        1 ZINC000004098459    0.1100
61     H61    -4.0978   -4.2489   -2.2969 H        1 ZINC000004098459    0.1200
62     H62    -0.4006    3.8841    0.0151 H        1 ZINC000004098459    0.1400
63     H63    -2.5526    5.0747    0.0319 H        1 ZINC000004098459    0.1300
64     H64    -4.6630    3.8109    0.0454 H        1 ZINC000004098459    0.1300
65     H65    -4.6354    1.3510    0.0417 H        1 ZINC000004098459    0.1300
66     H66    -2.4947    0.1403    0.0191 H        1 ZINC000004098459    0.1400
@<TRIPOS>BOND
1     1     2     2
2     2     3     1
3     2     38    1
4     3     4     1
5     4     5     1
6     4     17    1
7     4     6     1
8     6     7     1
9     6     8     1
10    6     9     1
11    8     44    1
12    9     10    1
13    9     11    1
14    9     12    1
15    11    45    1
16    12    13    1
17    12    14    1
18    12    16    1
19    14    15    1
20    14    46    1
21    14    47    1
22    15    48    1
23    16    17    1
24    17    18    1
25    17    19    1
26    19    20    1
27    20    25    ar
28    20    21    ar
29    21    22    ar
30    21    49    1
31    22    23    ar
32    22    50    1
33    23    24    ar
34    23    51    1
35    24    25    ar
36    24    52    1
37    25    26    1
38    26    27    1
39    26    53    1
40    26    54    1
41    27    28    1
42    28    29    2
43    28    30    1
44    30    36    1
45    30    31    1
46    30    32    1
47    31    55    1
48    32    33    2
49    32    56    1
50    33    34    1
51    33    57    1
52    34    35    1
53    34    58    1
54    34    59    1
55    35    36    1
56    35    60    1
57    35    61    1
58    36    37    2
59    38    43    ar
60    38    39    ar
61    39    40    ar
62    39    62    1
63    40    41    ar
64    40    63    1
65    41    42    ar
66    41    64    1
67    42    43    ar
68    42    65    1
69    43    66    1
@<TRIPOS>SUBSTRUCTURE
1   ZINC000004098459 1     RESIDUE    1   A     ZIN   1
