@<TRIPOS>MOLECULE
ZINC000000004088
43    45    1     0     0
SMALL
USER_CHARGES
@<TRIPOS>ATOM
1      C1     -4.5076    2.0572    0.0525 C.3      1 ZINC000000004088   -0.1500
2      C2     -4.8852    0.5746    0.0453 C.3      1 ZINC000000004088    0.0800
3      O3     -3.6780   -0.2322    0.0339 O.3      1 ZINC000000004088   -0.3700
4      C4     -3.8365   -1.5692    0.0264 C.2      1 ZINC000000004088    0.6400
5      O5     -4.9529   -2.0487    0.0293 O.2      1 ZINC000000004088   -0.5000
6      N6     -2.7567   -2.3757    0.0156 N.am     1 ZINC000000004088   -0.6300
7      C7     -2.9172   -3.7561    0.1149 C.ar     1 ZINC000000004088    0.4700
8      C8     -1.7939   -4.5696    0.2097 C.ar     1 ZINC000000004088   -0.3100
9      C9     -1.9696   -5.9389    0.3064 C.ar     1 ZINC000000004088    0.2800
10     C10    -3.2756   -6.4633    0.3004 C.ar     1 ZINC000000004088   -0.1300
11     N11    -3.4619   -7.8087    0.3800 N.2      1 ZINC000000004088   -0.4200
12     C12    -2.5041   -8.6087    0.7423 C.2      1 ZINC000000004088    0.1400
13     C13    -2.7570  -10.0588    0.7844 C.ar     1 ZINC000000004088   -0.0400
14     C14    -1.7430  -10.9377    1.1767 C.ar     1 ZINC000000004088   -0.1000
15     C15    -1.9876  -12.2943    1.2141 C.ar     1 ZINC000000004088   -0.1200
16     C16    -3.2330  -12.7864    0.8645 C.ar     1 ZINC000000004088   -0.1100
17     C17    -4.2416  -11.9227    0.4746 C.ar     1 ZINC000000004088   -0.1200
18     C18    -4.0139  -10.5631    0.4378 C.ar     1 ZINC000000004088   -0.0800
19     C19    -1.1412   -8.0894    1.1198 C.3      1 ZINC000000004088    0.1600
20     H20    -0.3816   -8.8170    0.8340 H        1 ZINC000000004088    0.1100
21     C21    -1.0830   -7.8554    2.6307 C.3      1 ZINC000000004088   -0.1600
22     N22    -0.8985   -6.8204    0.4135 N.pl3    1 ZINC000000004088   -0.7300
23     C23    -4.3557   -5.5763    0.2058 C.ar     1 ZINC000000004088    0.5000
24     N24    -5.6546   -6.0642    0.2045 N.pl3    1 ZINC000000004088   -0.8200
25     N25    -4.1392   -4.2714    0.1229 N.ar     1 ZINC000000004088   -0.5600
26     H26    -5.4138    2.6629    0.0611 H        1 ZINC000000004088    0.0800
27     H27    -3.9153    2.2770    0.9408 H        1 ZINC000000004088    0.0700
28     H28    -3.9247    2.2881   -0.8391 H        1 ZINC000000004088    0.0700
29     H29    -5.4681    0.3437    0.9369 H        1 ZINC000000004088    0.0700
30     H30    -5.4775    0.3548   -0.8430 H        1 ZINC000000004088    0.0700
31     H31    -1.8678   -1.9951   -0.0612 H        1 ZINC000000004088    0.4300
32     H32    -0.8026   -4.1411    0.2075 H        1 ZINC000000004088    0.1400
33     H33    -0.7706  -10.5552    1.4495 H        1 ZINC000000004088    0.1300
34     H34    -1.2052  -12.9746    1.5166 H        1 ZINC000000004088    0.1300
35     H35    -3.4185  -13.8499    0.8957 H        1 ZINC000000004088    0.1200
36     H36    -5.2107  -12.3142    0.2025 H        1 ZINC000000004088    0.1200
37     H37    -4.8021   -9.8902    0.1337 H        1 ZINC000000004088    0.1300
38     H38    -1.2703   -8.7945    3.1513 H        1 ZINC000000004088    0.0700
39     H39    -0.0966   -7.4797    2.9025 H        1 ZINC000000004088    0.0700
40     H40    -1.8408   -7.1252    2.9147 H        1 ZINC000000004088    0.0600
41     H41    -0.0295   -6.6084    0.0384 H        1 ZINC000000004088    0.4100
42     H42    -5.8141   -7.0189    0.2690 H        1 ZINC000000004088    0.4200
43     H43    -6.4031   -5.4508    0.1390 H        1 ZINC000000004088    0.4100
@<TRIPOS>BOND
1     1     2     1
2     1     26    1
3     1     27    1
4     1     28    1
5     2     3     1
6     2     29    1
7     2     30    1
8     3     4     1
9     4     5     2
10    4     6     am
11    6     7     1
12    6     31    1
13    7     25    ar
14    7     8     ar
15    8     9     ar
16    8     32    1
17    9     22    1
18    9     10    ar
19    10    11    1
20    10    23    ar
21    11    12    2
22    12    13    1
23    12    19    1
24    13    18    ar
25    13    14    ar
26    14    15    ar
27    14    33    1
28    15    16    ar
29    15    34    1
30    16    17    ar
31    16    35    1
32    17    18    ar
33    17    36    1
34    18    37    1
35    19    20    1
36    19    21    1
37    19    22    1
38    21    38    1
39    21    39    1
40    21    40    1
41    22    41    1
42    23    24    1
43    23    25    ar
44    24    42    1
45    24    43    1
@<TRIPOS>SUBSTRUCTURE
1   ZINC000000004088 1     RESIDUE    1   A     ZIN   1
