@<TRIPOS>MOLECULE
ZINC000001698833
20    19    1     0     0
SMALL
USER_CHARGES
@<TRIPOS>ATOM
1      N1     -0.0116    1.0048    0.0076 N.4      1 ZINC000001698833   -0.6200
2      H2      0.0021   -0.0041    0.0020 H        1 ZINC000001698833    0.4100
3      H3      0.9350    1.3541    0.0004 H        1 ZINC000001698833    0.4300
4      H4     -0.4996    1.3391   -0.8099 H        1 ZINC000001698833    0.4400
5      C5     -0.6992    1.4786    1.2162 C.3      1 ZINC000001698833   -0.0400
6      H6     -1.7218    1.1013    1.2239 H        1 ZINC000001698833    0.1400
7      C7      0.0408    0.9717    2.4557 C.3      1 ZINC000001698833   -0.1100
8      C8     -0.0459   -0.5547    2.5128 C.3      1 ZINC000001698833   -0.1200
9      S9      0.8315   -1.1557    3.9824 S.3      1 ZINC000001698833   -0.1300
10     C10     0.6204   -2.9542    3.8767 C.3      1 ZINC000001698833    0.4600
11     F11     1.1854   -3.4208    2.6849 F        1 ZINC000001698833   -0.1700
12     F12     1.2563   -3.5631    4.9639 F        1 ZINC000001698833   -0.1400
13     F13    -0.7432   -3.2659    3.8996 F        1 ZINC000001698833   -0.1700
14     C14    -0.7196    2.9854    1.2245 C.2      1 ZINC000001698833    0.4900
15     O15    -1.3988    3.5814    2.0431 O.co2    1 ZINC000001698833   -0.6300
16     O16    -0.0570    3.6085    0.4126 O.co2    1 ZINC000001698833   -0.6700
17     H17     1.0866    1.2746    2.4037 H        1 ZINC000001698833    0.1000
18     H18    -0.4161    1.3953    3.3501 H        1 ZINC000001698833    0.1300
19     H19    -1.0916   -0.8576    2.5648 H        1 ZINC000001698833    0.1100
20     H20     0.4110   -0.9783    1.6184 H        1 ZINC000001698833    0.0900
@<TRIPOS>BOND
1     1     2     1
2     1     3     1
3     1     4     1
4     1     5     1
5     5     6     1
6     5     7     1
7     5     14    1
8     7     8     1
9     7     17    1
10    7     18    1
11    8     9     1
12    8     19    1
13    8     20    1
14    9     10    1
15    10    11    1
16    10    12    1
17    10    13    1
18    14    15    ar
19    14    16    ar
@<TRIPOS>SUBSTRUCTURE
1   ZINC000001698833 1     RESIDUE    1   A     ZIN   1
