@<TRIPOS>MOLECULE
ZINC000001553331
54    57    1     0     0
SMALL
USER_CHARGES
@<TRIPOS>ATOM
1      C1     -0.0322    1.5020    0.0101 C.3      1 ZINC000001553331   -0.1300
2      C2     -0.0207   -0.0050    0.0019 C.ar     1 ZINC000001553331   -0.0400
3      C3     -0.0261   -0.6897   -1.1969 C.ar     1 ZINC000001553331   -0.0700
4      C4     -0.0435    0.0707   -2.4978 C.3      1 ZINC000001553331   -0.0600
5      S5      1.6560    0.3882   -3.0338 S.3      1 ZINC000001553331    0.0000
6      C6      1.3460    1.2629   -4.5316 C.2      1 ZINC000001553331    0.2600
7      N7      0.1578    1.5446   -5.0071 N.2      1 ZINC000001553331   -0.4900
8      C8      0.2838    2.2263   -6.1757 C.ar     1 ZINC000001553331    0.0600
9      C9     -0.6381    2.7578   -7.0807 C.ar     1 ZINC000001553331   -0.0700
10     C10    -0.1914    3.4134   -8.2065 C.ar     1 ZINC000001553331   -0.1200
11     C11     1.1670    3.5498   -8.4490 C.ar     1 ZINC000001553331   -0.1000
12     C12     2.0906    3.0304   -7.5646 C.ar     1 ZINC000001553331   -0.1100
13     C13     1.6590    2.3678   -6.4262 C.ar     1 ZINC000001553331    0.0600
14     N14     2.3087    1.7540   -5.3677 N.pl3    1 ZINC000001553331   -0.5800
15     C15    -0.0152   -2.0729   -1.2053 C.ar     1 ZINC000001553331   -0.1000
16     C16     0.0003   -2.7748   -0.0140 C.ar     1 ZINC000001553331   -0.1000
17     C17     0.0053   -2.0966    1.1890 C.ar     1 ZINC000001553331   -0.1200
18     C18     0.0010   -0.7071    1.2013 C.ar     1 ZINC000001553331   -0.0900
19     S19     0.0074    0.1625    2.7337 S.3      1 ZINC000001553331   -0.0700
20     C20     0.0189   -1.1733    3.9609 C.3      1 ZINC000001553331   -0.1300
21     C21     0.0253   -0.5730    5.3682 C.3      1 ZINC000001553331    0.1100
22     O22     0.0345   -1.6423    6.3505 O.3      1 ZINC000001553331   -0.3600
23     C23     0.0411   -1.2808    7.6475 C.2      1 ZINC000001553331    0.6500
24     O24     0.0392   -0.1040    7.9503 O.2      1 ZINC000001553331   -0.5500
25     N25     0.0497   -2.2242    8.6100 N.am     1 ZINC000001553331   -0.6500
26     C26     0.1543   -1.8509    9.9548 C.ar     1 ZINC000001553331    0.1500
27     C27     0.8642   -2.6465   10.8445 C.ar     1 ZINC000001553331   -0.1400
28     C28     0.9656   -2.2754   12.1710 C.ar     1 ZINC000001553331   -0.1000
29     C29     0.3607   -1.1134   12.6135 C.ar     1 ZINC000001553331   -0.1300
30     C30    -0.3473   -0.3193   11.7302 C.ar     1 ZINC000001553331   -0.1000
31     C31    -0.4467   -0.6814   10.4011 C.ar     1 ZINC000001553331   -0.1200
32     H32     0.9926    1.8732   -0.0020 H        1 ZINC000001553331    0.0800
33     H33    -0.5609    1.8660   -0.8708 H        1 ZINC000001553331    0.0800
34     H34    -0.5366    1.8566    0.9089 H        1 ZINC000001553331    0.0800
35     H35    -0.5596   -0.5182   -3.2561 H        1 ZINC000001553331    0.1100
36     H36    -0.5633    1.0185   -2.3578 H        1 ZINC000001553331    0.1100
37     H37    -1.6976    2.6545   -6.8983 H        1 ZINC000001553331    0.1300
38     H38    -0.9045    3.8242   -8.9059 H        1 ZINC000001553331    0.1300
39     H39     1.5045    4.0655   -9.3358 H        1 ZINC000001553331    0.1300
40     H40     3.1472    3.1396   -7.7594 H        1 ZINC000001553331    0.1200
41     H41     3.2683    1.6846   -5.2438 H        1 ZINC000001553331    0.4300
42     H42    -0.0191   -2.6059   -2.1446 H        1 ZINC000001553331    0.1300
43     H43     0.0081   -3.8548   -0.0244 H        1 ZINC000001553331    0.1300
44     H44     0.0170   -2.6455    2.1190 H        1 ZINC000001553331    0.1300
45     H45    -0.8700   -1.7913    3.8336 H        1 ZINC000001553331    0.1000
46     H46     0.9099   -1.7858    3.8231 H        1 ZINC000001553331    0.1000
47     H47     0.9142    0.0450    5.4955 H        1 ZINC000001553331    0.0900
48     H48    -0.8658    0.0394    5.5061 H        1 ZINC000001553331    0.0900
49     H49    -0.0166   -3.1618    8.3707 H        1 ZINC000001553331    0.4200
50     H50     1.3363   -3.5546   10.4996 H        1 ZINC000001553331    0.1300
51     H51     1.5176   -2.8937   12.8634 H        1 ZINC000001553331    0.1300
52     H52     0.4411   -0.8256   13.6514 H        1 ZINC000001553331    0.1300
53     H53    -0.8192    0.5874   12.0791 H        1 ZINC000001553331    0.1300
54     H54    -0.9998   -0.0607    9.7116 H        1 ZINC000001553331    0.1400
@<TRIPOS>BOND
1     1     2     1
2     1     32    1
3     1     33    1
4     1     34    1
5     2     18    ar
6     2     3     ar
7     3     4     1
8     3     15    ar
9     4     5     1
10    4     35    1
11    4     36    1
12    5     6     1
13    6     14    1
14    6     7     2
15    7     8     1
16    8     13    ar
17    8     9     ar
18    9     10    ar
19    9     37    1
20    10    11    ar
21    10    38    1
22    11    12    ar
23    11    39    1
24    12    13    ar
25    12    40    1
26    13    14    1
27    14    41    1
28    15    16    ar
29    15    42    1
30    16    17    ar
31    16    43    1
32    17    18    ar
33    17    44    1
34    18    19    1
35    19    20    1
36    20    21    1
37    20    45    1
38    20    46    1
39    21    22    1
40    21    47    1
41    21    48    1
42    22    23    1
43    23    24    2
44    23    25    am
45    25    26    1
46    25    49    1
47    26    31    ar
48    26    27    ar
49    27    28    ar
50    27    50    1
51    28    29    ar
52    28    51    1
53    29    30    ar
54    29    52    1
55    30    31    ar
56    30    53    1
57    31    54    1
@<TRIPOS>SUBSTRUCTURE
1   ZINC000001553331 1     RESIDUE    1   A     ZIN   1
