@<TRIPOS>MOLECULE
ZINC000084727380
77    81    1     0     0
SMALL
USER_CHARGES
@<TRIPOS>ATOM
1      C1      2.7896    1.6325    0.3280 C.3      1 ZINC000084727380   -0.1500
2      C2      2.0932    0.2903    0.5612 C.3      1 ZINC000084727380   -0.1300
3      C3      1.8786   -0.4128   -0.7806 C.3      1 ZINC000084727380   -0.1000
4      H4      2.8271   -0.4747   -1.3141 H        1 ZINC000084727380    0.0900
5      C5      0.8735    0.3811   -1.6175 C.3      1 ZINC000084727380   -0.1600
6      C6      1.3378   -1.8231   -0.5366 C.3      1 ZINC000084727380    0.1300
7      H7      0.3309   -1.7529   -0.1251 H        1 ZINC000084727380    0.1200
8      C8      2.2231   -2.5246    0.4490 C.2      1 ZINC000084727380    0.5200
9      O9      2.0936   -2.2735    1.6284 O.2      1 ZINC000084727380   -0.5100
10     N10     3.1490   -3.4158    0.0816 N.am     1 ZINC000084727380   -0.7100
11     C11     3.3834   -3.7844   -1.3080 C.3      1 ZINC000084727380    0.1400
12     H12     3.5619   -4.8581   -1.3672 H        1 ZINC000084727380    0.1300
13     C13     4.6188   -3.0423   -1.8217 C.3      1 ZINC000084727380   -0.0900
14     C14     5.8692   -3.4254   -1.0019 C.3      1 ZINC000084727380   -0.0700
15     C15     6.4890   -4.5893   -1.7451 C.ar     1 ZINC000084727380   -0.1100
16     C16     7.4191   -5.5266   -1.3291 C.ar     1 ZINC000084727380   -0.1000
17     C17     7.8459   -6.5145   -2.1953 C.ar     1 ZINC000084727380   -0.1200
18     C18     7.3432   -6.5682   -3.4816 C.ar     1 ZINC000084727380   -0.1200
19     C19     6.4150   -5.6339   -3.8986 C.ar     1 ZINC000084727380   -0.1100
20     C20     5.9861   -4.6430   -3.0320 C.ar     1 ZINC000084727380   -0.1000
21     C21     4.9943   -3.5188   -3.2409 C.3      1 ZINC000084727380   -0.0800
22     C22     2.2080   -3.4340   -2.1699 C.2      1 ZINC000084727380    0.5300
23     O23     2.0897   -3.9851   -3.2437 O.2      1 ZINC000084727380   -0.5000
24     N24     1.2863   -2.5400   -1.8035 N.am     1 ZINC000084727380   -0.5900
25     C25     0.1728   -2.2676   -2.7157 C.3      1 ZINC000084727380    0.1700
26     H26    -0.5140   -1.5610   -2.2498 H        1 ZINC000084727380    0.1400
27     C27     0.7054   -1.6799   -3.9971 C.2      1 ZINC000084727380    0.5100
28     O28     1.8990   -1.6747   -4.2118 O.2      1 ZINC000084727380   -0.4800
29     N29    -0.1448   -1.1600   -4.9045 N.am     1 ZINC000084727380   -0.6200
30     C30    -1.5877   -1.0747   -4.6288 C.3      1 ZINC000084727380    0.0700
31     C31    -2.0518    0.3570   -4.9203 C.3      1 ZINC000084727380    0.0500
32     O32    -1.6338    0.7287   -6.2359 O.3      1 ZINC000084727380   -0.3700
33     C33    -0.2156    0.7510   -6.4149 C.3      1 ZINC000084727380    0.0500
34     C34     0.3433   -0.6553   -6.1977 C.3      1 ZINC000084727380    0.0800
35     C35    -0.5557   -3.5520   -3.0168 C.ar     1 ZINC000084727380   -0.1200
36     C36    -0.4038   -4.1733   -4.2467 C.ar     1 ZINC000084727380    0.0600
37     C37    -1.0932   -5.3538   -4.4794 C.ar     1 ZINC000084727380   -0.1300
38     C38    -1.9029   -5.8680   -3.4847 C.ar     1 ZINC000084727380    0.1800
39     C39    -2.6563   -7.1506   -3.7264 C.3      1 ZINC000084727380   -0.1500
40     N40    -2.0235   -5.2496   -2.3261 N.ar     1 ZINC000084727380   -0.4500
41     H41    -2.5981   -5.6318   -1.6443 H        1 ZINC000084727380    0.4500
42     C42    -1.3792   -4.1285   -2.0681 C.ar     1 ZINC000084727380    0.1800
43     C43    -1.5519   -3.4617   -0.7277 C.3      1 ZINC000084727380   -0.1500
44     H44     3.7774    1.4599   -0.0991 H        1 ZINC000084727380    0.0500
45     H45     2.1964    2.2349   -0.3600 H        1 ZINC000084727380    0.0600
46     H46     2.8910    2.1589    1.2771 H        1 ZINC000084727380    0.0600
47     H47     2.7139   -0.3343    1.2036 H        1 ZINC000084727380    0.0800
48     H48     1.1291    0.4597    1.0409 H        1 ZINC000084727380    0.0700
49     H49     1.1860    1.4241   -1.6676 H        1 ZINC000084727380    0.0800
50     H50     0.8308   -0.0342   -2.6243 H        1 ZINC000084727380    0.0500
51     H51    -0.1123    0.3189   -1.1567 H        1 ZINC000084727380    0.0600
52     H52     3.6886   -3.8350    0.7701 H        1 ZINC000084727380    0.4200
53     H53     4.4561   -1.9647   -1.8052 H        1 ZINC000084727380    0.0900
54     H54     6.5660   -2.5882   -0.9616 H        1 ZINC000084727380    0.0900
55     H55     5.5829   -3.7290    0.0050 H        1 ZINC000084727380    0.0800
56     H56     7.8127   -5.4850   -0.3242 H        1 ZINC000084727380    0.1200
57     H57     8.5718   -7.2440   -1.8677 H        1 ZINC000084727380    0.1300
58     H58     7.6760   -7.3397   -4.1602 H        1 ZINC000084727380    0.1300
59     H59     6.0227   -5.6765   -4.9039 H        1 ZINC000084727380    0.1200
60     H60     4.1106   -3.8862   -3.7628 H        1 ZINC000084727380    0.1000
61     H61     5.4559   -2.7067   -3.8026 H        1 ZINC000084727380    0.0900
62     H62    -2.1259   -1.7727   -5.2701 H        1 ZINC000084727380    0.0800
63     H63    -1.7765   -1.3160   -3.5828 H        1 ZINC000084727380    0.0800
64     H64    -3.1387    0.4076   -4.8557 H        1 ZINC000084727380    0.1100
65     H65    -1.6110    1.0379   -4.1922 H        1 ZINC000084727380    0.0600
66     H66     0.0186    1.0852   -7.4256 H        1 ZINC000084727380    0.1200
67     H67     0.2319    1.4334   -5.6922 H        1 ZINC000084727380    0.0600
68     H68     1.4328   -0.6206   -6.1924 H        1 ZINC000084727380    0.1100
69     H69     0.0004   -1.3139   -6.9957 H        1 ZINC000084727380    0.0800
70     H70     0.2359   -3.7479   -5.0058 H        1 ZINC000084727380    0.1700
71     H71    -0.9988   -5.8647   -5.4262 H        1 ZINC000084727380    0.1900
72     H72    -2.0432   -7.9963   -3.4151 H        1 ZINC000084727380    0.1200
73     H73    -3.5823   -7.1419   -3.1513 H        1 ZINC000084727380    0.1000
74     H74    -2.8885   -7.2411   -4.7875 H        1 ZINC000084727380    0.1200
75     H75    -0.7427   -3.7657   -0.0637 H        1 ZINC000084727380    0.1200
76     H76    -1.5304   -2.3794   -0.8549 H        1 ZINC000084727380    0.1100
77     H77    -2.5075   -3.7579   -0.2951 H        1 ZINC000084727380    0.1100
@<TRIPOS>BOND
1     1     2     1
2     1     44    1
3     1     45    1
4     1     46    1
5     2     3     1
6     2     47    1
7     2     48    1
8     3     4     1
9     3     5     1
10    3     6     1
11    5     49    1
12    5     50    1
13    5     51    1
14    6     7     1
15    6     24    1
16    6     8     1
17    8     9     2
18    8     10    am
19    10    11    1
20    10    52    1
21    11    12    1
22    11    13    1
23    11    22    1
24    13    21    1
25    13    14    1
26    13    53    1
27    14    15    1
28    14    54    1
29    14    55    1
30    15    20    ar
31    15    16    ar
32    16    17    ar
33    16    56    1
34    17    18    ar
35    17    57    1
36    18    19    ar
37    18    58    1
38    19    20    ar
39    19    59    1
40    20    21    1
41    21    60    1
42    21    61    1
43    22    23    2
44    22    24    am
45    24    25    1
46    25    26    1
47    25    27    1
48    25    35    1
49    27    28    2
50    27    29    am
51    29    34    1
52    29    30    1
53    30    31    1
54    30    62    1
55    30    63    1
56    31    32    1
57    31    64    1
58    31    65    1
59    32    33    1
60    33    34    1
61    33    66    1
62    33    67    1
63    34    68    1
64    34    69    1
65    35    42    ar
66    35    36    ar
67    36    37    ar
68    36    70    1
69    37    38    ar
70    37    71    1
71    38    39    1
72    38    40    ar
73    39    72    1
74    39    73    1
75    39    74    1
76    40    41    1
77    40    42    ar
78    42    43    1
79    43    75    1
80    43    76    1
81    43    77    1
@<TRIPOS>SUBSTRUCTURE
1   ZINC000084727380 1     RESIDUE    1   A     ZIN   1
