@<TRIPOS>MOLECULE
ZINC000003939175
75    75    1     0     0
SMALL
USER_CHARGES
@<TRIPOS>ATOM
1      C1      0.3108    1.1515    1.0601 C.3      1 ZINC000003939175    0.0900
2      N2      0.1076   -0.2887    0.8847 N.am     1 ZINC000003939175   -0.7300
3      C3     -0.9447   -0.7391    0.1731 C.2      1 ZINC000003939175    0.5200
4      O4     -1.7707    0.0425   -0.2487 O.2      1 ZINC000003939175   -0.5300
5      C5     -1.0950   -2.2138   -0.0984 C.3      1 ZINC000003939175    0.1400
6      H6     -0.7009   -2.7806    0.7451 H        1 ZINC000003939175    0.1100
7      N7     -2.5126   -2.5344   -0.2826 N.am     1 ZINC000003939175   -0.7100
8      C8     -2.9584   -3.7827   -0.0385 C.2      1 ZINC000003939175    0.5200
9      O9     -2.1860   -4.6405    0.3336 O.2      1 ZINC000003939175   -0.5200
10     C10    -4.4166   -4.1125   -0.2279 C.3      1 ZINC000003939175    0.1300
11     H11    -4.6986   -3.9303   -1.2649 H        1 ZINC000003939175    0.1200
12     C12    -5.2627   -3.2311    0.6931 C.3      1 ZINC000003939175   -0.1200
13     C13    -6.7465   -3.4766    0.4122 C.3      1 ZINC000003939175   -0.0900
14     C14    -7.5924   -2.6903    1.4157 C.3      1 ZINC000003939175   -0.1500
15     C15    -7.0799   -3.0152   -1.0080 C.3      1 ZINC000003939175   -0.1400
16     N16    -4.6451   -5.5220    0.0998 N.am     1 ZINC000003939175   -0.7000
17     C17    -5.6886   -6.1795   -0.4434 C.2      1 ZINC000003939175    0.5200
18     O18    -6.4386   -5.6044   -1.2035 O.2      1 ZINC000003939175   -0.5200
19     C19    -5.9236   -7.6294   -0.1062 C.3      1 ZINC000003939175   -0.0600
20     H20    -4.9822   -8.0900    0.1933 H        1 ZINC000003939175    0.1400
21     S21    -7.1153   -7.7480    1.2563 S.3      1 ZINC000003939175   -0.1900
22     C22    -6.4785   -8.3550   -1.3337 C.3      1 ZINC000003939175   -0.1200
23     C23    -6.5998   -9.8498   -1.0309 C.3      1 ZINC000003939175    0.1100
24     N24    -7.1311  -10.5445   -2.2062 N.am     1 ZINC000003939175   -0.5800
25     C25    -8.4343  -10.7370   -2.4402 C.2      1 ZINC000003939175    0.7000
26     O26    -9.3176  -10.3543   -1.6983 O.2      1 ZINC000003939175   -0.5400
27     N27    -8.6576  -11.4014   -3.5884 N.am     1 ZINC000003939175   -0.6200
28     C28    -9.9605  -11.7762   -4.1437 C.3      1 ZINC000003939175    0.1200
29     C29    -7.3367  -11.6780   -4.1789 C.3      1 ZINC000003939175    0.1200
30     C30    -7.1060  -13.1857   -4.2996 C.3      1 ZINC000003939175   -0.1500
31     C31    -7.2065  -11.0040   -5.5463 C.3      1 ZINC000003939175   -0.1500
32     C32    -6.3678  -11.0636   -3.1881 C.2      1 ZINC000003939175    0.5300
33     O33    -5.1578  -11.0477   -3.2610 O.2      1 ZINC000003939175   -0.4600
34     C34    -0.3204   -2.5805   -1.3658 C.3      1 ZINC000003939175   -0.0700
35     C35     1.1351   -2.1312   -1.2219 C.3      1 ZINC000003939175   -0.1500
36     C36    -0.3683   -4.0958   -1.5723 C.3      1 ZINC000003939175   -0.1300
37     C37    -0.9532   -1.8813   -2.5706 C.3      1 ZINC000003939175   -0.1400
38     H38     1.2054    1.3219    1.6591 H        1 ZINC000003939175    0.0800
39     H39     0.4313    1.6229    0.0847 H        1 ZINC000003939175    0.0600
40     H40    -0.5532    1.5812    1.5671 H        1 ZINC000003939175    0.0600
41     H41     0.7304   -0.9182    1.2807 H        1 ZINC000003939175    0.4000
42     H42    -3.1303   -1.8483   -0.5802 H        1 ZINC000003939175    0.4100
43     H43    -5.0441   -3.4766    1.7324 H        1 ZINC000003939175    0.0700
44     H44    -5.0269   -2.1828    0.5101 H        1 ZINC000003939175    0.0800
45     H45    -6.9634   -4.5404    0.5089 H        1 ZINC000003939175    0.0800
46     H46    -7.3755   -1.6265    1.3189 H        1 ZINC000003939175    0.0500
47     H47    -8.6495   -2.8652    1.2156 H        1 ZINC000003939175    0.0500
48     H48    -7.3549   -3.0190    2.4274 H        1 ZINC000003939175    0.0500
49     H49    -6.8629   -1.9514   -1.1047 H        1 ZINC000003939175    0.0400
50     H50    -6.4772   -3.5754   -1.7229 H        1 ZINC000003939175    0.0700
51     H51    -8.1370   -3.1901   -1.2081 H        1 ZINC000003939175    0.0500
52     H52    -4.0453   -5.9819    0.7077 H        1 ZINC000003939175    0.4100
53     H53    -8.2102   -7.1501    0.7535 H        1 ZINC000003939175    0.1000
54     H54    -7.4614   -7.9532   -1.5797 H        1 ZINC000003939175    0.0800
55     H55    -5.8045   -8.2087   -2.1777 H        1 ZINC000003939175    0.0900
56     H56    -5.6169  -10.2516   -0.7849 H        1 ZINC000003939175    0.1000
57     H57    -7.2738   -9.9961   -0.1869 H        1 ZINC000003939175    0.1200
58     H58   -10.7518  -11.4324   -3.4776 H        1 ZINC000003939175    0.0900
59     H59   -10.0842  -11.3147   -5.1234 H        1 ZINC000003939175    0.0700
60     H60   -10.0148  -12.8602   -4.2433 H        1 ZINC000003939175    0.0700
61     H61    -7.8758  -13.6212   -4.9366 H        1 ZINC000003939175    0.0800
62     H62    -6.1250  -13.3692   -4.7379 H        1 ZINC000003939175    0.0900
63     H63    -7.1528  -13.6407   -3.3102 H        1 ZINC000003939175    0.0700
64     H64    -7.3240   -9.9263   -5.4328 H        1 ZINC000003939175    0.0700
65     H65    -6.2240  -11.2202   -5.9659 H        1 ZINC000003939175    0.0900
66     H66    -7.9788  -11.3853   -6.2143 H        1 ZINC000003939175    0.0800
67     H67     1.5550   -2.5475   -0.3063 H        1 ZINC000003939175    0.0600
68     H68     1.7103   -2.4832   -2.0783 H        1 ZINC000003939175    0.0700
69     H69     1.1768   -1.0429   -1.1788 H        1 ZINC000003939175    0.0600
70     H70    -1.4052   -4.4159   -1.6749 H        1 ZINC000003939175    0.0600
71     H71     0.1836   -4.3571   -2.4753 H        1 ZINC000003939175    0.0500
72     H72     0.0825   -4.5939   -0.7140 H        1 ZINC000003939175    0.0600
73     H73    -0.9190   -0.8019   -2.4235 H        1 ZINC000003939175    0.0600
74     H74    -0.4013   -2.1426   -3.4736 H        1 ZINC000003939175    0.0600
75     H75    -1.9901   -2.2014   -2.6732 H        1 ZINC000003939175    0.0600
@<TRIPOS>BOND
1     1     2     1
2     1     38    1
3     1     39    1
4     1     40    1
5     2     3     am
6     2     41    1
7     3     4     2
8     3     5     1
9     5     6     1
10    5     7     1
11    5     34    1
12    7     8     am
13    7     42    1
14    8     9     2
15    8     10    1
16    10    11    1
17    10    12    1
18    10    16    1
19    12    13    1
20    12    43    1
21    12    44    1
22    13    14    1
23    13    15    1
24    13    45    1
25    14    46    1
26    14    47    1
27    14    48    1
28    15    49    1
29    15    50    1
30    15    51    1
31    16    17    am
32    16    52    1
33    17    18    2
34    17    19    1
35    19    20    1
36    19    21    1
37    19    22    1
38    21    53    1
39    22    23    1
40    22    54    1
41    22    55    1
42    23    24    1
43    23    56    1
44    23    57    1
45    24    32    am
46    24    25    am
47    25    26    2
48    25    27    am
49    27    28    1
50    27    29    1
51    28    58    1
52    28    59    1
53    28    60    1
54    29    30    1
55    29    31    1
56    29    32    1
57    30    61    1
58    30    62    1
59    30    63    1
60    31    64    1
61    31    65    1
62    31    66    1
63    32    33    2
64    34    35    1
65    34    36    1
66    34    37    1
67    35    67    1
68    35    68    1
69    35    69    1
70    36    70    1
71    36    71    1
72    36    72    1
73    37    73    1
74    37    74    1
75    37    75    1
@<TRIPOS>SUBSTRUCTURE
1   ZINC000003939175 1     RESIDUE    1   A     ZIN   1
