@<TRIPOS>MOLECULE
ZINC000003826463
62    65    1     0     0
SMALL
USER_CHARGES
@<TRIPOS>ATOM
1      C1     -4.8469   -7.0563    1.6464 C.3      1 ZINC000003826463   -0.1600
2      C2     -5.2684   -6.0716    0.5539 C.3      1 ZINC000003826463    0.1000
3      O3     -4.4633   -4.8939    0.6377 O.3      1 ZINC000003826463   -0.7400
4      P4     -4.6328   -3.6429   -0.3615 P.3      1 ZINC000003826463    2.3800
5      O5     -6.0362   -3.1741   -0.3314 O.2      1 ZINC000003826463   -1.0100
6      C6     -3.5289   -2.2909    0.1648 C.3      1 ZINC000003826463   -0.6700
7      C7     -3.9643   -1.7840    1.5156 C.ar     1 ZINC000003826463   -0.1000
8      C8     -4.8894   -0.7600    1.6029 C.ar     1 ZINC000003826463   -0.0800
9      C9     -5.2904   -0.2932    2.8393 C.ar     1 ZINC000003826463   -0.1100
10     C10    -4.7638   -0.8537    3.9956 C.ar     1 ZINC000003826463    0.1400
11     N11    -5.1684   -0.3834    5.2498 N.am     1 ZINC000003826463   -0.6600
12     C12    -5.4441    0.9246    5.4222 C.2      1 ZINC000003826463    0.5400
13     O13    -5.4231    1.6790    4.4728 O.2      1 ZINC000003826463   -0.5000
14     C14    -5.7784    1.4496    6.7947 C.3      1 ZINC000003826463   -0.1000
15     H15    -5.2654    0.8525    7.5486 H        1 ZINC000003826463    0.1200
16     C16    -5.3326    2.9090    6.9071 C.3      1 ZINC000003826463   -0.0700
17     C17    -4.8544    3.2462    8.2975 C.ar     1 ZINC000003826463   -0.0300
18     C18    -3.8503    4.2026    8.3812 C.ar     1 ZINC000003826463   -0.1100
19     C19    -3.3049    4.5647    9.6018 C.ar     1 ZINC000003826463    0.0700
20     C20    -3.7605    3.9631   10.7770 C.ar     1 ZINC000003826463    0.0300
21     C21    -4.7650    3.0224   10.7122 C.ar     1 ZINC000003826463   -0.0500
22     C22    -5.3280    2.6732    9.4741 C.ar     1 ZINC000003826463   -0.1500
23     C23    -6.4544    1.7403    9.4596 C.2      1 ZINC000003826463    0.4000
24     O24    -6.3700    0.6817   10.0457 O.2      1 ZINC000003826463   -0.4100
25     C25    -7.7203    2.0902    8.7188 C.3      1 ZINC000003826463   -0.1100
26     H26    -7.8178    3.1729    8.6394 H        1 ZINC000003826463    0.1300
27     C27    -8.9316    1.5094    9.4512 C.3      1 ZINC000003826463   -0.1300
28     S28    -7.5838    1.3539    7.0630 S.3      1 ZINC000003826463   -0.1500
29     O29    -3.0593    4.4748   11.8301 O.3      1 ZINC000003826463   -0.3000
30     C30    -1.8987    5.0997   11.2510 C.3      1 ZINC000003826463    0.2100
31     O31    -2.3292    5.4610    9.9257 O.3      1 ZINC000003826463   -0.3000
32     C32    -3.8353   -1.8823    3.9046 C.ar     1 ZINC000003826463   -0.1400
33     C33    -3.4420   -2.3479    2.6651 C.ar     1 ZINC000003826463   -0.1000
34     O34    -4.2504   -4.0961   -1.8584 O.3      1 ZINC000003826463   -0.7500
35     C35    -4.9999   -5.0655   -2.5935 C.3      1 ZINC000003826463    0.1000
36     C36    -4.3675   -5.2600   -3.9731 C.3      1 ZINC000003826463   -0.1600
37     H37    -5.4610   -7.9545    1.5825 H        1 ZINC000003826463    0.0800
38     H38    -3.7986   -7.3224    1.5109 H        1 ZINC000003826463    0.0700
39     H39    -4.9808   -6.5934    2.6241 H        1 ZINC000003826463    0.0700
40     H40    -5.1345   -6.5344   -0.4238 H        1 ZINC000003826463    0.0600
41     H41    -6.3167   -5.8054    0.6894 H        1 ZINC000003826463    0.0800
42     H42    -2.5057   -2.6611    0.2281 H        1 ZINC000003826463    0.1100
43     H43    -3.5774   -1.4790   -0.5609 H        1 ZINC000003826463    0.1200
44     H44    -5.2985   -0.3245    0.7032 H        1 ZINC000003826463    0.1300
45     H45    -6.0124    0.5071    2.9068 H        1 ZINC000003826463    0.1500
46     H46    -5.2504   -0.9987    5.9952 H        1 ZINC000003826463    0.4200
47     H47    -4.5225    3.0880    6.2002 H        1 ZINC000003826463    0.1100
48     H48    -6.1719    3.5568    6.6539 H        1 ZINC000003826463    0.1100
49     H49    -3.4883    4.6719    7.4784 H        1 ZINC000003826463    0.1500
50     H50    -5.1206    2.5518   11.6168 H        1 ZINC000003826463    0.1500
51     H51    -8.9794    1.9226   10.4587 H        1 ZINC000003826463    0.0800
52     H52    -9.8416    1.7669    8.9094 H        1 ZINC000003826463    0.0800
53     H53    -8.8366    0.4250    9.5074 H        1 ZINC000003826463    0.0800
54     H54    -1.6188    5.9876   11.8181 H        1 ZINC000003826463    0.1400
55     H55    -1.0676    4.3959   11.2051 H        1 ZINC000003826463    0.0900
56     H56    -3.4239   -2.3203    4.8020 H        1 ZINC000003826463    0.1300
57     H57    -2.7199   -3.1478    2.5936 H        1 ZINC000003826463    0.1300
58     H58    -4.9953   -6.0131   -2.0549 H        1 ZINC000003826463    0.0600
59     H59    -6.0267   -4.7188   -2.7101 H        1 ZINC000003826463    0.0800
60     H60    -3.3407   -5.6068   -3.8565 H        1 ZINC000003826463    0.0700
61     H61    -4.9392   -5.9995   -4.5338 H        1 ZINC000003826463    0.0800
62     H62    -4.3721   -4.3125   -4.5118 H        1 ZINC000003826463    0.0700
@<TRIPOS>BOND
1     1     2     1
2     1     37    1
3     1     38    1
4     1     39    1
5     2     3     1
6     2     40    1
7     2     41    1
8     3     4     1
9     4     5     2
10    4     6     1
11    4     34    1
12    6     7     1
13    6     42    1
14    6     43    1
15    7     33    ar
16    7     8     ar
17    8     9     ar
18    8     44    1
19    9     10    ar
20    9     45    1
21    10    11    1
22    10    32    ar
23    11    12    am
24    11    46    1
25    12    13    2
26    12    14    1
27    14    15    1
28    14    28    1
29    14    16    1
30    16    17    1
31    16    47    1
32    16    48    1
33    17    22    ar
34    17    18    ar
35    18    19    ar
36    18    49    1
37    19    31    1
38    19    20    ar
39    20    21    ar
40    20    29    1
41    21    22    ar
42    21    50    1
43    22    23    1
44    23    24    2
45    23    25    1
46    25    26    1
47    25    27    1
48    25    28    1
49    27    51    1
50    27    52    1
51    27    53    1
52    29    30    1
53    30    31    1
54    30    54    1
55    30    55    1
56    32    33    ar
57    32    56    1
58    33    57    1
59    34    35    1
60    35    36    1
61    35    58    1
62    35    59    1
63    36    60    1
64    36    61    1
65    36    62    1
@<TRIPOS>SUBSTRUCTURE
1   ZINC000003826463 1     RESIDUE    1   A     ZIN   1
