@<TRIPOS>MOLECULE
ZINC000049573657
53    56    1     0     0
SMALL
USER_CHARGES
@<TRIPOS>ATOM
1      C1     -0.0173    1.4248    0.0099 C.3      1 ZINC000049573657    0.0400
2      O2      0.0021   -0.0041    0.0020 O.3      1 ZINC000049573657   -0.3600
3      C3      0.6518   -0.5703   -1.1379 C.3      1 ZINC000049573657    0.0300
4      H4      1.4313    0.1075   -1.4857 H        1 ZINC000049573657    0.0500
5      C5      1.2773   -1.9127   -0.7538 C.3      1 ZINC000049573657   -0.0600
6      C6      2.3716   -1.6861    0.2572 C.ar     1 ZINC000049573657   -0.0600
7      C7      2.0546   -1.6013    1.6173 C.ar     1 ZINC000049573657   -0.0900
8      S8      0.5024   -1.7185    2.4372 S.3      1 ZINC000049573657    0.1500
9      C9      1.2397   -1.4848    4.0103 C.2      1 ZINC000049573657   -0.2200
10     C10     2.5450   -1.3328    3.9116 C.2      1 ZINC000049573657   -0.1100
11     C11     3.0671   -1.3913    2.5558 C.ar     1 ZINC000049573657   -0.1000
12     C12     4.4024   -1.2672    2.1030 C.ar     1 ZINC000049573657    0.1600
13     O13     5.4043   -1.0626    2.9977 O.3      1 ZINC000049573657   -0.3100
14     C14     6.7286   -0.9463    2.4735 C.3      1 ZINC000049573657    0.0700
15     C15     7.7139   -0.7208    3.6221 C.3      1 ZINC000049573657   -0.0300
16     C16     9.1104   -0.5982    3.0692 C.2      1 ZINC000049573657   -0.0100
17     C17     9.9756   -1.6093    2.8706 C.2      1 ZINC000049573657   -0.0300
18     C18     9.7275   -3.0674    3.1598 C.3      1 ZINC000049573657   -0.0700
19     O19    11.1053   -1.0759    2.3650 O.3      1 ZINC000049573657   -0.1900
20     C20    10.9191    0.2513    2.2603 C.2      1 ZINC000049573657    0.2300
21     C21    11.9083    1.2241    1.7499 C.ar     1 ZINC000049573657   -0.0200
22     C22    11.5924    2.5825    1.6968 C.ar     1 ZINC000049573657   -0.0700
23     C23    12.5203    3.4852    1.2198 C.ar     1 ZINC000049573657   -0.1200
24     C24    13.7617    3.0464    0.7947 C.ar     1 ZINC000049573657   -0.1000
25     C25    14.0812    1.7012    0.8447 C.ar     1 ZINC000049573657   -0.1200
26     C26    13.1643    0.7888    1.3245 C.ar     1 ZINC000049573657   -0.0900
27     N27     9.7100    0.5378    2.6821 N.2      1 ZINC000049573657   -0.4600
28     C28     4.6898   -1.3536    0.7596 C.ar     1 ZINC000049573657   -0.2100
29     C29     3.6755   -1.5698   -0.1624 C.ar     1 ZINC000049573657   -0.0700
30     C30    -0.3569   -0.7822   -2.2373 C.2      1 ZINC000049573657    0.4800
31     O31    -1.5240   -0.4768   -2.0610 O.co2    1 ZINC000049573657   -0.6800
32     O32    -0.0058   -1.2592   -3.3030 O.co2    1 ZINC000049573657   -0.7000
33     H33     1.0053    1.8021    0.0021 H        1 ZINC000049573657    0.0200
34     H34    -0.5445    1.7859   -0.8732 H        1 ZINC000049573657    0.0400
35     H35    -0.5275    1.7763    0.9067 H        1 ZINC000049573657    0.0700
36     H36     0.5131   -2.5597   -0.3232 H        1 ZINC000049573657    0.0700
37     H37     1.6957   -2.3860   -1.6422 H        1 ZINC000049573657    0.0900
38     H38     0.6936   -1.4674    4.9420 H        1 ZINC000049573657    0.1600
39     H39     3.1787   -1.1762    4.7720 H        1 ZINC000049573657    0.1400
40     H40     6.9914   -1.8621    1.9439 H        1 ZINC000049573657    0.0600
41     H41     6.7740   -0.1026    1.7849 H        1 ZINC000049573657    0.0700
42     H42     7.4511    0.1949    4.1517 H        1 ZINC000049573657    0.0900
43     H43     7.6685   -1.5646    4.3107 H        1 ZINC000049573657    0.0900
44     H44     9.3014   -3.5454    2.2777 H        1 ZINC000049573657    0.0900
45     H45    10.6694   -3.5522    3.4166 H        1 ZINC000049573657    0.0800
46     H46     9.0323   -3.1591    3.9943 H        1 ZINC000049573657    0.1000
47     H47    10.6236    2.9262    2.0280 H        1 ZINC000049573657    0.1400
48     H48    12.2770    4.5366    1.1778 H        1 ZINC000049573657    0.1300
49     H49    14.4844    3.7571    0.4218 H        1 ZINC000049573657    0.1300
50     H50    15.0518    1.3652    0.5110 H        1 ZINC000049573657    0.1300
51     H51    13.4150   -0.2610    1.3633 H        1 ZINC000049573657    0.1300
52     H52     5.7111   -1.2582    0.4219 H        1 ZINC000049573657    0.1300
53     H53     3.9101   -1.6365   -1.2145 H        1 ZINC000049573657    0.1300
@<TRIPOS>BOND
1     1     2     1
2     1     33    1
3     1     34    1
4     1     35    1
5     2     3     1
6     3     4     1
7     3     5     1
8     3     30    1
9     5     6     1
10    5     36    1
11    5     37    1
12    6     29    ar
13    6     7     ar
14    7     11    ar
15    7     8     1
16    8     9     1
17    9     10    2
18    9     38    1
19    10    11    1
20    10    39    1
21    11    12    ar
22    12    13    1
23    12    28    ar
24    13    14    1
25    14    15    1
26    14    40    1
27    14    41    1
28    15    16    1
29    15    42    1
30    15    43    1
31    16    27    1
32    16    17    2
33    17    18    1
34    17    19    1
35    18    44    1
36    18    45    1
37    18    46    1
38    19    20    1
39    20    21    1
40    20    27    2
41    21    26    ar
42    21    22    ar
43    22    23    ar
44    22    47    1
45    23    24    ar
46    23    48    1
47    24    25    ar
48    24    49    1
49    25    26    ar
50    25    50    1
51    26    51    1
52    28    29    ar
53    28    52    1
54    29    53    1
55    30    31    ar
56    30    32    ar
@<TRIPOS>SUBSTRUCTURE
1   ZINC000049573657 1     RESIDUE    1   A     ZIN   1
