@<TRIPOS>MOLECULE
ZINC000001686938
37    37    1     0     0
SMALL
USER_CHARGES
@<TRIPOS>ATOM
1      C1     -0.8059    0.7821   -1.8904 C.3      1 ZINC000001686938   -0.1600
2      C2     -0.8260   -0.5263   -1.0975 C.3      1 ZINC000001686938   -0.0700
3      C3     -0.3474   -0.2638    0.3319 C.3      1 ZINC000001686938   -0.1600
4      C4     -2.2516   -1.0807   -1.0643 C.3      1 ZINC000001686938   -0.1400
5      C5      0.1011   -1.5427   -1.7671 C.3      1 ZINC000001686938   -0.1100
6      C6      1.5480   -1.0550   -1.6695 C.3      1 ZINC000001686938   -0.0200
7      C7      1.5856    0.4659   -1.8310 C.3      1 ZINC000001686938   -0.1700
8      C8      2.1240   -1.4373   -0.3046 C.3      1 ZINC000001686938   -0.1500
9      C9      2.3688   -1.6963   -2.7586 C.ar     1 ZINC000001686938   -0.0700
10     C10     1.7724   -2.5709   -3.6481 C.ar     1 ZINC000001686938   -0.1100
11     C11     2.5226   -3.1600   -4.6473 C.ar     1 ZINC000001686938   -0.1400
12     C12     3.8754   -2.8732   -4.7581 C.ar     1 ZINC000001686938    0.1000
13     O13     4.6155   -3.4511   -5.7406 O.3      1 ZINC000001686938   -0.5000
14     C14     4.4713   -1.9950   -3.8647 C.ar     1 ZINC000001686938   -0.1400
15     C15     3.7157   -1.4047   -2.8701 C.ar     1 ZINC000001686938   -0.1000
16     H16    -0.0218    1.4312   -1.5005 H        1 ZINC000001686938    0.0800
17     H17    -0.6108    0.5673   -2.9410 H        1 ZINC000001686938    0.0600
18     H18    -1.7708    1.2799   -1.7944 H        1 ZINC000001686938    0.0400
19     H19    -1.1970    0.0194    0.9532 H        1 ZINC000001686938    0.0500
20     H20     0.1110   -1.1676    0.7333 H        1 ZINC000001686938    0.0600
21     H21     0.3847    0.5438    0.3274 H        1 ZINC000001686938    0.0600
22     H22    -2.5925   -1.2677   -2.0826 H        1 ZINC000001686938    0.0500
23     H23    -2.2659   -2.0128   -0.4994 H        1 ZINC000001686938    0.0500
24     H24    -2.9120   -0.3566   -0.5872 H        1 ZINC000001686938    0.0600
25     H25     0.0075   -2.5056   -1.2651 H        1 ZINC000001686938    0.0700
26     H26    -0.1758   -1.6512   -2.8158 H        1 ZINC000001686938    0.0700
27     H27     1.2523    0.9378   -0.9067 H        1 ZINC000001686938    0.0800
28     H28     2.6045    0.7826   -2.0538 H        1 ZINC000001686938    0.0500
29     H29     0.9267    0.7610   -2.6477 H        1 ZINC000001686938    0.0800
30     H30     1.7346   -2.4105   -0.0055 H        1 ZINC000001686938    0.0600
31     H31     3.2110   -1.4853   -0.3695 H        1 ZINC000001686938    0.0500
32     H32     1.8368   -0.6885    0.4336 H        1 ZINC000001686938    0.0700
33     H33     0.7192   -2.7938   -3.5614 H        1 ZINC000001686938    0.1300
34     H34     2.0564   -3.8436   -5.3414 H        1 ZINC000001686938    0.1300
35     H35     4.6424   -2.9433   -6.5631 H        1 ZINC000001686938    0.3900
36     H36     5.5244   -1.7703   -3.9487 H        1 ZINC000001686938    0.1300
37     H37     4.1791   -0.7207   -2.1746 H        1 ZINC000001686938    0.1300
@<TRIPOS>BOND
1     1     2     1
2     1     16    1
3     1     17    1
4     1     18    1
5     2     3     1
6     2     4     1
7     2     5     1
8     3     19    1
9     3     20    1
10    3     21    1
11    4     22    1
12    4     23    1
13    4     24    1
14    5     6     1
15    5     25    1
16    5     26    1
17    6     7     1
18    6     8     1
19    6     9     1
20    7     27    1
21    7     28    1
22    7     29    1
23    8     30    1
24    8     31    1
25    8     32    1
26    9     15    ar
27    9     10    ar
28    10    11    ar
29    10    33    1
30    11    12    ar
31    11    34    1
32    12    13    1
33    12    14    ar
34    13    35    1
35    14    15    ar
36    14    36    1
37    15    37    1
@<TRIPOS>SUBSTRUCTURE
1   ZINC000001686938 1     RESIDUE    1   A     ZIN   1
