@<TRIPOS>MOLECULE
ZINC000001571940
36    37    1     0     0
SMALL
USER_CHARGES
@<TRIPOS>ATOM
1      O1      0.0021   -0.0041    0.0020 O.2      1 ZINC000001571940   -0.1600
2      N2     -0.0144    1.2138    0.0087 N.pl3    1 ZINC000001571940    0.0700
3      O3      1.0320    1.8371    0.0021 O.2      1 ZINC000001571940   -0.0900
4      C4     -1.3063    1.9364    0.0188 C.2      1 ZINC000001571940    0.2200
5      N5     -1.4524    3.2332    0.0208 N.2      1 ZINC000001571940   -0.4000
6      C6     -2.7602    3.5310    0.0299 C.2      1 ZINC000001571940   -0.0100
7      C7     -3.4507    2.3748    0.0336 C.2      1 ZINC000001571940    0.0300
8      N8     -2.5289    1.3630    0.0215 N.pl3    1 ZINC000001571940   -0.4100
9      C9     -2.8152   -0.0738    0.0203 C.3      1 ZINC000001571940    0.0500
10     C10    -2.7765   -0.6027    1.4555 C.3      1 ZINC000001571940    0.0900
11     H11    -1.8183   -0.3508    1.9098 H        1 ZINC000001571940    0.1100
12     O12    -3.8331   -0.0073    2.2112 O.3      1 ZINC000001571940   -0.5400
13     C13    -2.9516   -2.1226    1.4438 C.3      1 ZINC000001571940    0.0300
14     N14    -2.9144   -2.6304    2.8217 N.3      1 ZINC000001571940   -0.5300
15     C15    -1.8026   -2.0335    3.5727 C.3      1 ZINC000001571940    0.0500
16     C16    -1.8812   -2.4712    5.0370 C.3      1 ZINC000001571940   -0.1200
17     C17    -1.8108   -3.9989    5.1125 C.3      1 ZINC000001571940   -0.1200
18     C18    -2.9508   -4.5962    4.2828 C.3      1 ZINC000001571940   -0.1200
19     C19    -2.8411   -4.0969    2.8403 C.3      1 ZINC000001571940    0.0500
20     H20    -3.1850    4.5240    0.0338 H        1 ZINC000001571940    0.2000
21     H21    -4.5253    2.2668    0.0407 H        1 ZINC000001571940    0.2000
22     H22    -3.8041   -0.2469   -0.4042 H        1 ZINC000001571940    0.1100
23     H23    -2.0669   -0.5929   -0.5785 H        1 ZINC000001571940    0.1200
24     H24    -4.7167   -0.1900    1.8635 H        1 ZINC000001571940    0.3800
25     H25    -3.9099   -2.3744    0.9894 H        1 ZINC000001571940    0.0900
26     H26    -2.1456   -2.5767    0.8673 H        1 ZINC000001571940    0.0500
27     H27    -0.8563   -2.3647    3.1450 H        1 ZINC000001571940    0.0300
28     H28    -1.8668   -0.9470    3.5145 H        1 ZINC000001571940    0.0800
29     H29    -1.0470   -2.0407    5.5909 H        1 ZINC000001571940    0.0700
30     H30    -2.8213   -2.1285    5.4693 H        1 ZINC000001571940    0.0700
31     H31    -0.8544   -4.3396    4.7159 H        1 ZINC000001571940    0.0600
32     H32    -1.9101   -4.3173    6.1502 H        1 ZINC000001571940    0.0700
33     H33    -2.8806   -5.6838    4.2977 H        1 ZINC000001571940    0.0700
34     H34    -3.9077   -4.2868    4.7032 H        1 ZINC000001571940    0.0700
35     H35    -3.6597   -4.5090    2.2502 H        1 ZINC000001571940    0.0700
36     H36    -1.8900   -4.4184    2.4160 H        1 ZINC000001571940    0.0400
@<TRIPOS>BOND
1     1     2     2
2     2     3     2
3     2     4     1
4     4     8     1
5     4     5     2
6     5     6     1
7     6     7     2
8     6     20    1
9     7     8     1
10    7     21    1
11    8     9     1
12    9     10    1
13    9     22    1
14    9     23    1
15    10    11    1
16    10    12    1
17    10    13    1
18    12    24    1
19    13    14    1
20    13    25    1
21    13    26    1
22    14    19    1
23    14    15    1
24    15    16    1
25    15    27    1
26    15    28    1
27    16    17    1
28    16    29    1
29    16    30    1
30    17    18    1
31    17    31    1
32    17    32    1
33    18    19    1
34    18    33    1
35    18    34    1
36    19    35    1
37    19    36    1
@<TRIPOS>SUBSTRUCTURE
1   ZINC000001571940 1     RESIDUE    1   A     ZIN   1
