@<TRIPOS>MOLECULE
ZINC000095550396
107   112   1     0     0
SMALL
USER_CHARGES
@<TRIPOS>ATOM
1      C1      1.9115   -1.2943   -0.8887 C.3      1 ZINC000095550396    0.0200
2      O2      1.3746   -2.5500   -0.4681 O.3      1 ZINC000095550396   -0.3100
3      C3      0.0281   -2.6197   -0.2991 C.ar     1 ZINC000095550396    0.1500
4      C4     -0.7573   -1.4891   -0.5434 C.ar     1 ZINC000095550396   -0.2000
5      C5     -2.1075   -1.5278   -0.3831 C.ar     1 ZINC000095550396   -0.0500
6      C6     -2.7261   -2.7191    0.0334 C.ar     1 ZINC000095550396   -0.1000
7      C7     -4.1185   -2.7943    0.2085 C.ar     1 ZINC000095550396    0.0500
8      C8     -4.6844   -3.9642    0.6125 C.ar     1 ZINC000095550396   -0.6600
9      S9     -6.4307   -4.0537    0.8301 S.o2     1 ZINC000095550396    2.6900
10     O10    -6.6678   -5.1205    1.7383 O.2      1 ZINC000095550396   -0.9400
11     O11    -6.8750   -2.7237    1.0603 O.2      1 ZINC000095550396   -0.9700
12     N12    -7.0820   -4.5200   -0.6193 N.am     1 ZINC000095550396   -1.1000
13     C13    -6.7837   -5.8472   -1.1632 C.3      1 ZINC000095550396    0.2200
14     H14    -5.8321   -6.1981   -0.7639 H        1 ZINC000095550396    0.1100
15     C15    -6.6978   -5.7656   -2.6886 C.3      1 ZINC000095550396   -0.1400
16     C16    -5.5267   -4.9019   -3.0803 C.2      1 ZINC000095550396    0.5200
17     O17    -4.8294   -4.4008   -2.2238 O.2      1 ZINC000095550396   -0.5100
18     N18    -5.2541   -4.6862   -4.3825 N.am     1 ZINC000095550396   -0.7100
19     C19    -4.1156   -3.8465   -4.7633 C.3      1 ZINC000095550396    0.1400
20     H20    -4.0007   -3.0400   -4.0391 H        1 ZINC000095550396    0.1200
21     C21    -4.3611   -3.2537   -6.1522 C.3      1 ZINC000095550396   -0.1000
22     C22    -5.5208   -2.2932   -6.0907 C.ar     1 ZINC000095550396   -0.0400
23     C23    -6.8080   -2.7492   -6.3056 C.ar     1 ZINC000095550396   -0.1000
24     C24    -7.8717   -1.8682   -6.2491 C.ar     1 ZINC000095550396   -0.0900
25     C25    -7.6483   -0.5313   -5.9773 C.ar     1 ZINC000095550396   -0.1600
26     C26    -8.8079    0.4292   -5.9162 C.3      1 ZINC000095550396    0.0300
27     N27    -9.4280    0.3685   -4.5756 N.4      1 ZINC000095550396   -0.3600
28     H28    -9.5437   -0.6298   -4.3597 H        1 ZINC000095550396    0.4200
29     C29   -10.7537    0.9586   -4.6439 C.3      1 ZINC000095550396    0.0200
30     H30   -11.4101    0.2259   -5.1636 H        1 ZINC000095550396    0.1300
31     C31   -10.7694    2.2300   -5.4920 C.3      1 ZINC000095550396   -0.1800
32     C32   -11.3783    1.2192   -3.2802 C.3      1 ZINC000095550396   -0.1300
33     C33   -10.4116    2.0025   -2.3919 C.3      1 ZINC000095550396   -0.1400
34     C34    -9.1272    1.1872   -2.2413 C.3      1 ZINC000095550396   -0.1300
35     C35    -8.5016    0.9230   -3.6037 C.3      1 ZINC000095550396    0.0200
36     H36    -7.7014    0.1655   -3.4482 H        1 ZINC000095550396    0.1300
37     C37    -7.8092    2.1806   -4.1283 C.3      1 ZINC000095550396   -0.1900
38     C38    -6.3612   -0.0757   -5.7610 C.ar     1 ZINC000095550396   -0.0900
39     C39    -5.2979   -0.9574   -5.8137 C.ar     1 ZINC000095550396   -0.1100
40     C40    -2.8615   -4.6817   -4.7881 C.2      1 ZINC000095550396    0.5000
41     O41    -2.9365   -5.8904   -4.7215 O.2      1 ZINC000095550396   -0.5200
42     N42    -1.6566   -4.0856   -4.8843 N.am     1 ZINC000095550396   -0.6100
43     C43    -0.4448   -4.8991   -5.0107 C.3      1 ZINC000095550396    0.0800
44     C44    -1.5587   -2.6240   -4.8625 C.3      1 ZINC000095550396    0.1300
45     C45    -0.6989   -2.1881   -3.6744 C.3      1 ZINC000095550396   -0.1700
46     C46    -0.9165   -2.1365   -6.1628 C.3      1 ZINC000095550396   -0.1700
47     C47    -7.8773   -6.8076   -0.7723 C.ar     1 ZINC000095550396   -0.1000
48     C48    -9.1968   -6.3969   -0.7962 C.ar     1 ZINC000095550396   -0.0900
49     C49   -10.2038   -7.2745   -0.4384 C.ar     1 ZINC000095550396   -0.1000
50     C50    -9.8918   -8.5682   -0.0545 C.ar     1 ZINC000095550396    0.0400
51     O51   -10.6801   -9.6108    0.3389 O.3      1 ZINC000095550396   -0.3100
52     C52    -9.8568  -10.7850    0.2108 C.3      1 ZINC000095550396    0.2100
53     O53    -8.5174  -10.2838    0.3780 O.3      1 ZINC000095550396   -0.3000
54     C54    -8.5618   -8.9821   -0.0304 C.ar     1 ZINC000095550396    0.0400
55     C55    -7.5589   -8.0995   -0.3960 C.ar     1 ZINC000095550396   -0.0800
56     C56    -3.9037   -5.0928    0.8564 C.ar     1 ZINC000095550396   -0.0300
57     C57    -2.5526   -5.0577    0.6976 C.ar     1 ZINC000095550396   -0.1200
58     C58    -1.9319   -3.8669    0.2814 C.ar     1 ZINC000095550396    0.0300
59     C59    -0.5411   -3.7950    0.1018 C.ar     1 ZINC000095550396   -0.1700
60     H60     2.9942   -1.3760   -0.9850 H        1 ZINC000095550396    0.1000
61     H61     1.4809   -1.0191   -1.8514 H        1 ZINC000095550396    0.0600
62     H62     1.6691   -0.5299   -0.1504 H        1 ZINC000095550396    0.0600
63     H63    -0.2852   -0.5720   -0.8636 H        1 ZINC000095550396    0.1300
64     H64    -2.7016   -0.6465   -0.5748 H        1 ZINC000095550396    0.1300
65     H65    -4.7363   -1.9279    0.0237 H        1 ZINC000095550396    0.1300
66     H66    -7.6609   -3.9144   -1.1081 H        1 ZINC000095550396    0.4100
67     H67    -6.5644   -6.7666   -3.0990 H        1 ZINC000095550396    0.1200
68     H68    -7.6171   -5.3314   -3.0817 H        1 ZINC000095550396    0.1000
69     H69    -5.8118   -5.0869   -5.0676 H        1 ZINC000095550396    0.4000
70     H70    -3.4681   -2.7243   -6.4843 H        1 ZINC000095550396    0.1000
71     H71    -4.5903   -4.0555   -6.8542 H        1 ZINC000095550396    0.1000
72     H72    -6.9825   -3.7936   -6.5180 H        1 ZINC000095550396    0.1300
73     H73    -8.8773   -2.2242   -6.4177 H        1 ZINC000095550396    0.1300
74     H74    -8.4515    1.4416   -6.1062 H        1 ZINC000095550396    0.1400
75     H75    -9.5459    0.1563   -6.6706 H        1 ZINC000095550396    0.1400
76     H76   -10.5368    1.9794   -6.5270 H        1 ZINC000095550396    0.0800
77     H77   -11.7574    2.6877   -5.4422 H        1 ZINC000095550396    0.1000
78     H78   -10.0253    2.9297   -5.1116 H        1 ZINC000095550396    0.0800
79     H79   -12.3010    1.7922   -3.4025 H        1 ZINC000095550396    0.1100
80     H80   -11.6199    0.2676   -2.7995 H        1 ZINC000095550396    0.0900
81     H81   -10.1975    2.9750   -2.8259 H        1 ZINC000095550396    0.0800
82     H82   -10.8645    2.1450   -1.4063 H        1 ZINC000095550396    0.0900
83     H83    -8.4215    1.7390   -1.6145 H        1 ZINC000095550396    0.1100
84     H84    -9.3578    0.2369   -1.7526 H        1 ZINC000095550396    0.0900
85     H85    -7.0065    2.4642   -3.4476 H        1 ZINC000095550396    0.1000
86     H86    -7.3943    1.9815   -5.1164 H        1 ZINC000095550396    0.0900
87     H87    -8.5330    2.9928   -4.1951 H        1 ZINC000095550396    0.0800
88     H88    -6.1867    0.9687   -5.5483 H        1 ZINC000095550396    0.1400
89     H89    -4.2923   -0.6014   -5.6447 H        1 ZINC000095550396    0.1300
90     H90    -0.1902   -5.0105   -6.0647 H        1 ZINC000095550396    0.0600
91     H91     0.3773   -4.4101   -4.4881 H        1 ZINC000095550396    0.0700
92     H92    -0.6199   -5.8821   -4.5734 H        1 ZINC000095550396    0.0800
93     H93    -2.5558   -2.1945   -4.7664 H        1 ZINC000095550396    0.0900
94     H94    -0.6260   -1.1007   -3.6581 H        1 ZINC000095550396    0.0700
95     H95    -1.1564   -2.5355   -2.7480 H        1 ZINC000095550396    0.0700
96     H96     0.2983   -2.6177   -3.7705 H        1 ZINC000095550396    0.0600
97     H97    -1.5290   -2.4470   -7.0093 H        1 ZINC000095550396    0.0600
98     H98    -0.8436   -1.0490   -6.1466 H        1 ZINC000095550396    0.0700
99     H99     0.0807   -2.5660   -6.2589 H        1 ZINC000095550396    0.0700
100    H100   -9.4418   -5.3883   -1.0946 H        1 ZINC000095550396    0.1300
101    H101  -11.2339   -6.9509   -0.4581 H        1 ZINC000095550396    0.1400
102    H102  -10.0957  -11.5073    0.9914 H        1 ZINC000095550396    0.1400
103    H103   -9.9780  -11.2320   -0.7759 H        1 ZINC000095550396    0.0900
104    H104   -6.5274   -8.4196   -0.3840 H        1 ZINC000095550396    0.1400
105    H105   -4.3781   -6.0087    1.1766 H        1 ZINC000095550396    0.1300
106    H106   -1.9603   -5.9400    0.8902 H        1 ZINC000095550396    0.1300
107    H107    0.0755   -4.6629    0.2832 H        1 ZINC000095550396    0.1400
@<TRIPOS>BOND
1     1     2     1
2     1     60    1
3     1     61    1
4     1     62    1
5     2     3     1
6     3     59    ar
7     3     4     ar
8     4     5     ar
9     4     63    1
10    5     6     ar
11    5     64    1
12    6     58    ar
13    6     7     ar
14    7     8     ar
15    7     65    1
16    8     9     1
17    8     56    ar
18    9     10    2
19    9     11    2
20    9     12    am
21    12    13    1
22    12    66    1
23    13    14    1
24    13    15    1
25    13    47    1
26    15    16    1
27    15    67    1
28    15    68    1
29    16    17    2
30    16    18    am
31    18    19    1
32    18    69    1
33    19    20    1
34    19    21    1
35    19    40    1
36    21    22    1
37    21    70    1
38    21    71    1
39    22    39    ar
40    22    23    ar
41    23    24    ar
42    23    72    1
43    24    25    ar
44    24    73    1
45    25    26    1
46    25    38    ar
47    26    27    1
48    26    74    1
49    26    75    1
50    27    28    1
51    27    35    1
52    27    29    1
53    29    30    1
54    29    31    1
55    29    32    1
56    31    76    1
57    31    77    1
58    31    78    1
59    32    33    1
60    32    79    1
61    32    80    1
62    33    34    1
63    33    81    1
64    33    82    1
65    34    35    1
66    34    83    1
67    34    84    1
68    35    36    1
69    35    37    1
70    37    85    1
71    37    86    1
72    37    87    1
73    38    39    ar
74    38    88    1
75    39    89    1
76    40    41    2
77    40    42    am
78    42    43    1
79    42    44    1
80    43    90    1
81    43    91    1
82    43    92    1
83    44    45    1
84    44    46    1
85    44    93    1
86    45    94    1
87    45    95    1
88    45    96    1
89    46    97    1
90    46    98    1
91    46    99    1
92    47    55    ar
93    47    48    ar
94    48    49    ar
95    48    100   1
96    49    50    ar
97    49    101   1
98    50    54    ar
99    50    51    1
100   51    52    1
101   52    53    1
102   52    102   1
103   52    103   1
104   53    54    1
105   54    55    ar
106   55    104   1
107   56    57    ar
108   56    105   1
109   57    58    ar
110   57    106   1
111   58    59    ar
112   59    107   1
@<TRIPOS>SUBSTRUCTURE
1   ZINC000095550396 1     RESIDUE    1   A     ZIN   1
