@<TRIPOS>MOLECULE
ZINC000003941698
  56   60    0    0    0
SMALL
USER_CHARGES
NO_NAME
@<TRIPOS>ATOM
    1 O1        0.0021    -0.0041     0.0020 O.2    1 <0>      -0.5100
    2 C2       -0.0144     1.2110     0.0087 C.2    1 <0>       0.5200
    3 O3        1.1434     1.9006     0.0013 O.3    1 <0>      -0.3500
    4 C4        2.3717     1.1264    -0.0145 C.3    1 <0>       0.1400
    5 C5        2.4066     0.2511    -1.2689 C.3    1 <0>      -0.1400
    6 C6        3.7009    -0.5647    -1.2856 C.3    1 <0>      -0.0800
    7 C7        3.7597    -1.4535    -0.0416 C.3    1 <0>      -0.1100
    8 C8        3.7248    -0.5781     1.2127 C.3    1 <0>      -0.0800
    9 C9        4.9253     0.3703     1.2063 C.3    1 <0>      -0.1100
   10 C10       4.8665     1.2591    -0.0376 C.3    1 <0>      -0.0800
   11 C11       4.9015     0.3838    -1.2920 C.3    1 <0>      -0.1100
   12 C12       3.5722     2.0749    -0.0209 C.3    1 <0>      -0.1000
   13 C13       2.4305     0.2376     1.2294 C.3    1 <0>      -0.1400
   14 C14      -1.3006     1.9305     0.0187 C.ar   1 <0>      -0.1900
   15 C15      -1.3214     3.3289     0.0206 C.ar   1 <0>      -0.0100
   16 C16      -2.5197     3.9951     0.0294 C.ar   1 <0>      -0.2100
   17 C17      -3.7151     3.2810     0.0365 C.ar   1 <0>       0.2500
   18 N18      -4.9282     3.9597     0.0450 N.pl3  1 <0>      -0.7300
   19 C19      -6.1869     3.2100     0.0526 C.3    1 <0>       0.1700
   20 C20      -7.3455     4.1736     0.0610 C.ar   1 <0>      -0.1200
   21 C21      -7.9979     4.4588     1.2444 C.ar   1 <0>      -0.1100
   22 C22      -9.0644     5.3458     1.2521 C.ar   1 <0>       0.1000
   23 O23      -9.7068     5.6266     2.4173 O.3    1 <0>      -0.5000
   24 C24      -9.4752     5.9466     0.0716 C.ar   1 <0>      -0.1200
   25 C25      -8.8223     5.6616    -1.1121 C.ar   1 <0>      -0.1300
   26 C26      -7.7530     4.7786    -1.1190 C.ar   1 <0>       0.1200
   27 O27      -7.1104     4.4981    -2.2841 O.3    1 <0>      -0.4900
   28 C28      -3.6979     1.8888     0.0347 C.ar   1 <0>      -0.2100
   29 C29      -2.5031     1.2163     0.0205 C.ar   1 <0>       0.0000
   30 H30       1.5513    -0.4246    -1.2643 H      1 <0>       0.0900
   31 H31       2.3647     0.8843    -2.1551 H      1 <0>       0.0700
   32 H32       3.7258    -1.1883    -2.1792 H      1 <0>       0.0700
   33 H33       2.9044    -2.1292    -0.0371 H      1 <0>       0.0700
   34 H34       4.6818    -2.0346    -0.0536 H      1 <0>       0.0600
   35 H35       3.7666    -1.2113     2.0989 H      1 <0>       0.0700
   36 H36       4.9004     0.9940     2.1000 H      1 <0>       0.0600
   37 H37       5.8474    -0.2108     1.1944 H      1 <0>       0.0700
   38 H38       5.7218     1.9348    -0.0422 H      1 <0>       0.0800
   39 H39       5.8235    -0.1974    -1.3039 H      1 <0>       0.0700
   40 H40       4.8596     1.0169    -2.1782 H      1 <0>       0.0600
   41 H41       3.5304     2.7081    -0.9071 H      1 <0>       0.0700
   42 H42       3.5473     2.6985     0.8727 H      1 <0>       0.0700
   43 H43       2.4056     0.8613     2.1231 H      1 <0>       0.0700
   44 H44       1.5752    -0.4380     1.2340 H      1 <0>       0.0900
   45 H45      -0.3946     3.8833     0.0154 H      1 <0>       0.1400
   46 H46      -2.5365     5.0750     0.0312 H      1 <0>       0.1300
   47 H47      -4.9414     4.9296     0.0460 H      1 <0>       0.4000
   48 H48      -6.2419     2.5834    -0.8377 H      1 <0>       0.0800
   49 H49      -6.2303     2.5818     0.9423 H      1 <0>       0.0700
   50 H50      -7.6780     3.9910     2.1637 H      1 <0>       0.1400
   51 H51      -9.3348     6.3771     2.9005 H      1 <0>       0.3900
   52 H52     -10.3058     6.6369     0.0776 H      1 <0>       0.1400
   53 H53      -9.1424     6.1292    -2.0314 H      1 <0>       0.1400
   54 H54      -6.3690     5.0885    -2.4763 H      1 <0>       0.3900
   55 H55      -4.6269     1.3379     0.0406 H      1 <0>       0.1300
   56 H56      -2.4905     0.1364     0.0191 H      1 <0>       0.1400
@<TRIPOS>BOND
   1    1    2 2
   2    2    3 1
   3    2   14 1
   4    3    4 1
   5    4   12 1
   6    4   13 1
   7    4    5 1
   8    5    6 1
   9    5   30 1
  10    5   31 1
  11    6   11 1
  12    6    7 1
  13    6   32 1
  14    7    8 1
  15    7   33 1
  16    7   34 1
  17    8    9 1
  18    8   13 1
  19    8   35 1
  20    9   10 1
  21    9   36 1
  22    9   37 1
  23   10   11 1
  24   10   12 1
  25   10   38 1
  26   11   39 1
  27   11   40 1
  28   12   41 1
  29   12   42 1
  30   13   43 1
  31   13   44 1
  32   14   29 ar
  33   14   15 ar
  34   15   16 ar
  35   15   45 1
  36   16   17 ar
  37   16   46 1
  38   17   18 1
  39   17   28 ar
  40   18   19 1
  41   18   47 1
  42   19   20 1
  43   19   48 1
  44   19   49 1
  45   20   26 ar
  46   20   21 ar
  47   21   22 ar
  48   21   50 1
  49   22   23 1
  50   22   24 ar
  51   23   51 1
  52   24   25 ar
  53   24   52 1
  54   25   26 ar
  55   25   53 1
  56   26   27 1
  57   27   54 1
  58   28   29 ar
  59   28   55 1
  60   29   56 1
