@<TRIPOS>MOLECULE
ZINC000095616598
  68   71    0    0    0
SMALL
USER_CHARGES
NO_NAME
@<TRIPOS>ATOM
    1 C1       -0.0173     1.4248     0.0099 C.3    1 <0>       0.0300
    2 O2        0.0021    -0.0041     0.0020 O.3    1 <0>      -0.3100
    3 C3        0.6058    -0.6071    -1.0557 C.ar   1 <0>       0.1700
    4 C4        0.6556    -1.9919    -1.1300 C.ar   1 <0>      -0.1900
    5 C5        1.2692    -2.6057    -2.2051 C.ar   1 <0>      -0.0100
    6 C6        1.3223    -4.1097    -2.2831 C.3    1 <0>      -0.0700
    7 C7        0.0856    -4.6261    -3.0213 C.3    1 <0>      -0.0500
    8 C8        0.1387    -6.1301    -3.0992 C.2    1 <0>       0.1100
    9 C9        0.7902    -6.8564    -4.0357 C.2    1 <0>      -0.2600
   10 C10       0.5874    -8.2152    -3.7452 C.2    1 <0>       0.3000
   11 N11       1.0952    -9.2975    -4.4754 N.am   1 <0>      -0.6300
   12 C12       1.8547    -9.0771    -5.5668 C.2    1 <0>       0.5700
   13 O13       2.0993    -7.9387    -5.9176 O.2    1 <0>      -0.5000
   14 C14       2.3893   -10.2167    -6.3356 C.ar   1 <0>      -0.1400
   15 C15       2.1043   -11.5261    -5.9369 C.ar   1 <0>      -0.0600
   16 C16       2.6046   -12.5871    -6.6563 C.ar   1 <0>      -0.1400
   17 C17       3.3941   -12.3578    -7.7798 C.ar   1 <0>       0.1200
   18 N18       3.8985   -13.4321    -8.5043 N.3    1 <0>      -0.4900
   19 C19       2.8160   -14.3187    -8.9541 C.3    1 <0>       0.0300
   20 C20       3.4159   -15.5163    -9.6941 C.3    1 <0>       0.0300
   21 H21       4.0683   -16.0707    -9.0194 H      1 <0>       0.1500
   22 C22       2.2902   -16.4310   -10.1810 C.3    1 <0>      -0.1800
   23 N23       4.1933   -15.0410   -10.8462 N.4    1 <0>      -0.5100
   24 H24       4.5784   -15.8314   -11.3410 H      1 <0>       0.4300
   25 H25       3.5918   -14.5177   -11.4647 H      1 <0>       0.4200
   26 C26       5.2853   -14.1767   -10.3792 C.3    1 <0>       0.0300
   27 H27       5.9281   -14.7379    -9.7010 H      1 <0>       0.1500
   28 C28       6.1048   -13.6973   -11.5789 C.3    1 <0>      -0.1800
   29 C29       4.7009   -12.9680    -9.6448 C.3    1 <0>       0.0200
   30 C30       3.6794   -11.0551    -8.1797 C.ar   1 <0>      -0.1700
   31 C31       3.1773    -9.9898    -7.4679 C.ar   1 <0>      -0.0200
   32 N32      -0.1608    -8.2938    -2.6700 N.2    1 <0>      -0.3200
   33 N33      -0.4506    -6.9915    -2.2434 N.pl3  1 <0>      -0.4600
   34 C34       1.8339    -1.8426    -3.2092 C.ar   1 <0>      -0.1800
   35 C35       1.7867    -0.4574    -3.1395 C.ar   1 <0>       0.1700
   36 O36       2.3423     0.2925    -4.1273 O.3    1 <0>      -0.3100
   37 C37       2.2567     1.7123    -3.9901 C.3    1 <0>       0.0300
   38 C38       1.1674     0.1607    -2.0642 C.ar   1 <0>      -0.3000
   39 H39       1.0053     1.8021     0.0021 H      1 <0>       0.0600
   40 H40      -0.5445     1.7859    -0.8732 H      1 <0>       0.0600
   41 H41      -0.5275     1.7763     0.9067 H      1 <0>       0.1000
   42 H42       0.2146    -2.5905    -0.3466 H      1 <0>       0.1300
   43 H43       2.2201    -4.4142    -2.8210 H      1 <0>       0.0900
   44 H44       1.3439    -4.5252    -1.2756 H      1 <0>       0.0800
   45 H45      -0.8121    -4.3216    -2.4834 H      1 <0>       0.0800
   46 H46       0.0640    -4.2106    -4.0288 H      1 <0>       0.1000
   47 H47       1.3641    -6.4614    -4.8609 H      1 <0>       0.1700
   48 H48       0.9001   -10.2056    -4.1956 H      1 <0>       0.4100
   49 H49       1.4924   -11.7046    -5.0650 H      1 <0>       0.1400
   50 H50       2.3848   -13.5988    -6.3488 H      1 <0>       0.1400
   51 H51       2.2515   -14.6704    -8.0906 H      1 <0>       0.1300
   52 H52       2.1529   -13.7719    -9.6245 H      1 <0>       0.0700
   53 H53       1.6377   -15.8767   -10.8556 H      1 <0>       0.0800
   54 H54       2.7174   -17.2840   -10.7081 H      1 <0>       0.0900
   55 H55       1.7133   -16.7839    -9.3261 H      1 <0>       0.1100
   56 H56       5.4620   -13.1361   -12.2571 H      1 <0>       0.0800
   57 H57       6.9152   -13.0559   -11.2323 H      1 <0>       0.1100
   58 H58       6.5212   -14.5582   -12.1019 H      1 <0>       0.0900
   59 H59       4.0689   -12.3989   -10.3266 H      1 <0>       0.0800
   60 H60       5.5115   -12.3341    -9.2853 H      1 <0>       0.1300
   61 H61       4.2922   -10.8805    -9.0517 H      1 <0>       0.1400
   62 H62       3.3989    -8.9795    -7.7786 H      1 <0>       0.1500
   63 H63      -0.9863    -6.7507    -1.4713 H      1 <0>       0.4400
   64 H64       2.3127    -2.3246    -4.0488 H      1 <0>       0.1300
   65 H65       1.2091     2.0109    -3.9497 H      1 <0>       0.0600
   66 H66       2.7577     2.0195    -3.0722 H      1 <0>       0.0600
   67 H67       2.7378     2.1895    -4.8439 H      1 <0>       0.1000
   68 H68       1.1296     1.2385    -2.0082 H      1 <0>       0.1300
@<TRIPOS>BOND
   1    1    2 1
   2    1   39 1
   3    1   40 1
   4    1   41 1
   5    2    3 1
   6    3   38 ar
   7    3    4 ar
   8    4    5 ar
   9    4   42 1
  10    5    6 1
  11    5   34 ar
  12    6    7 1
  13    6   43 1
  14    6   44 1
  15    7    8 1
  16    7   45 1
  17    7   46 1
  18    8   33 1
  19    8    9 2
  20    9   10 1
  21    9   47 1
  22   10   11 1
  23   10   32 2
  24   11   12 am
  25   11   48 1
  26   12   13 2
  27   12   14 1
  28   14   31 ar
  29   14   15 ar
  30   15   16 ar
  31   15   49 1
  32   16   17 ar
  33   16   50 1
  34   17   18 1
  35   17   30 ar
  36   18   29 1
  37   18   19 1
  38   19   20 1
  39   19   51 1
  40   19   52 1
  41   20   21 1
  42   20   22 1
  43   20   23 1
  44   22   53 1
  45   22   54 1
  46   22   55 1
  47   23   24 1
  48   23   25 1
  49   23   26 1
  50   26   27 1
  51   26   28 1
  52   26   29 1
  53   28   56 1
  54   28   57 1
  55   28   58 1
  56   29   59 1
  57   29   60 1
  58   30   31 ar
  59   30   61 1
  60   31   62 1
  61   32   33 1
  62   33   63 1
  63   34   35 ar
  64   34   64 1
  65   35   36 1
  66   35   38 ar
  67   36   37 1
  68   37   65 1
  69   37   66 1
  70   37   67 1
  71   38   68 1
