@<TRIPOS>MOLECULE
ZINC000000004689
33    34    1     0     0
SMALL
USER_CHARGES
@<TRIPOS>ATOM
1      C1      1.3981    1.5203    0.0609 C.3      1 ZINC000000004689   -0.1500
2      C2      0.7312    0.1514   -0.0881 C.3      1 ZINC000000004689   -0.0900
3      H3     -0.3149    0.2857   -0.3630 H        1 ZINC000000004689    0.1000
4      C4      1.4462   -0.6472   -1.1801 C.3      1 ZINC000000004689   -0.1400
5      C5      1.0040   -2.0878   -1.1094 C.2      1 ZINC000000004689    0.4900
6      O6      0.8788   -2.7381   -2.1258 O.2      1 ZINC000000004689   -0.5200
7      N7      0.7494   -2.6480    0.0884 N.am     1 ZINC000000004689   -0.5600
8      N8      0.8066   -1.8830    1.2565 N.2      1 ZINC000000004689   -0.2400
9      C9      0.8144   -0.5913    1.2192 C.2      1 ZINC000000004689    0.1600
10     C10     0.9040    0.1689    2.4785 C.ar     1 ZINC000000004689   -0.0600
11     C11     0.1593    1.3404    2.6442 C.ar     1 ZINC000000004689   -0.0600
12     C12     0.2455    2.0483    3.8221 C.ar     1 ZINC000000004689   -0.1500
13     C13     1.0731    1.5990    4.8470 C.ar     1 ZINC000000004689    0.1700
14     N14     1.1579    2.3175    6.0372 N.pl3    1 ZINC000000004689   -0.4700
15     N15     1.9245    1.9024    6.9880 N.2      1 ZINC000000004689   -0.0900
16     C16     2.0046    2.5813    8.1127 C.2      1 ZINC000000004689    0.1600
17     C17     2.8556    2.1205    9.1682 C.1      1 ZINC000000004689    0.2800
18     N18     3.5308    1.7549   10.0055 N.1      1 ZINC000000004689   -0.3600
19     C19     1.2408    3.7809    8.2809 C.1      1 ZINC000000004689    0.2200
20     N20     0.6348    4.7324    8.4144 N.1      1 ZINC000000004689   -0.3600
21     C21     1.8159    0.4331    4.6853 C.ar     1 ZINC000000004689   -0.1300
22     C22     1.7296   -0.2830    3.5123 C.ar     1 ZINC000000004689   -0.0500
23     H23     2.4000    1.3937    0.4711 H        1 ZINC000000004689    0.0700
24     H24     1.4633    2.0009   -0.9153 H        1 ZINC000000004689    0.0700
25     H25     0.8062    2.1417    0.7329 H        1 ZINC000000004689    0.0800
26     H26     1.1929   -0.2359   -2.1572 H        1 ZINC000000004689    0.1200
27     H27     2.5239   -0.5890   -1.0275 H        1 ZINC000000004689    0.1100
28     H28     0.5242   -3.5900    0.1409 H        1 ZINC000000004689    0.4300
29     H29    -0.4825    1.6899    1.8490 H        1 ZINC000000004689    0.1400
30     H30    -0.3296    2.9534    3.9508 H        1 ZINC000000004689    0.1400
31     H31     0.6405    3.1300    6.1512 H        1 ZINC000000004689    0.4000
32     H32     2.4571    0.0872    5.4825 H        1 ZINC000000004689    0.1500
33     H33     2.3060   -1.1878    3.3876 H        1 ZINC000000004689    0.1400
@<TRIPOS>BOND
1     1     2     1
2     1     23    1
3     1     24    1
4     1     25    1
5     2     3     1
6     2     9     1
7     2     4     1
8     4     5     1
9     4     26    1
10    4     27    1
11    5     6     2
12    5     7     am
13    7     8     1
14    7     28    1
15    8     9     2
16    9     10    1
17    10    22    ar
18    10    11    ar
19    11    12    ar
20    11    29    1
21    12    13    ar
22    12    30    1
23    13    14    1
24    13    21    ar
25    14    15    1
26    14    31    1
27    15    16    2
28    16    17    1
29    16    19    1
30    17    18    3
31    19    20    3
32    21    22    ar
33    21    32    1
34    22    33    1
@<TRIPOS>SUBSTRUCTURE
1   ZINC000000004689 1     RESIDUE    1   A     ZIN   1
