@<TRIPOS>MOLECULE
ZINC000000598193
  49   52    0    0    0
SMALL
USER_CHARGES
NO_NAME
@<TRIPOS>ATOM
    1 O1        0.0021    -0.0041     0.0020 O.co2  1 <0>      -0.7000
    2 C2       -0.0145     1.2150     0.0087 C.2    1 <0>       0.5100
    3 O3        1.0330     1.8389     0.0021 O.co2  1 <0>      -0.6900
    4 C4       -1.3296     1.9507     0.0190 C.3    1 <0>      -0.1100
    5 H5       -2.1484     1.2312     0.0189 H      1 <0>       0.0700
    6 C6       -1.4154     2.8092     1.2545 C.ar   1 <0>      -0.0700
    7 C7       -0.4793     3.8037     1.4703 C.ar   1 <0>      -0.0600
    8 C8       -0.5557     4.5920     2.6021 C.ar   1 <0>      -0.1500
    9 C9       -1.5730     4.3856     3.5224 C.ar   1 <0>       0.1000
   10 O10      -1.6506     5.1601     4.6364 O.3    1 <0>      -0.3200
   11 C11      -2.7243     4.8910     5.5402 C.3    1 <0>       0.1100
   12 C12      -2.6488     5.8415     6.7072 C.ar   1 <0>       0.1700
   13 C13      -1.6270     6.7872     6.7462 C.ar   1 <0>      -0.1500
   14 C14      -1.5431     7.6573     7.7960 C.ar   1 <0>      -0.0600
   15 C15      -2.5090     7.5632     8.8152 C.ar   1 <0>      -0.1100
   16 C16      -2.4874     8.4236     9.9249 C.ar   1 <0>      -0.0900
   17 C17      -3.4399     8.3009    10.8898 C.ar   1 <0>      -0.1200
   18 C18      -4.4370     7.3323    10.7914 C.ar   1 <0>      -0.1000
   19 C19      -4.4880     6.4822     9.7301 C.ar   1 <0>      -0.0900
   20 C20      -3.5220     6.5775     8.7129 C.ar   1 <0>       0.1300
   21 N21      -3.5499     5.7598     7.6560 N.ar   1 <0>      -0.4700
   22 C22      -2.5113     3.3874     3.3034 C.ar   1 <0>      -0.2100
   23 C23      -2.4333     2.6049     2.1676 C.ar   1 <0>      -0.0900
   24 C24      -1.4285     2.8359    -1.2250 C.3    1 <0>      -0.0600
   25 C25      -1.4748     1.9670    -2.5064 C.3    1 <0>      -0.1200
   26 C26      -2.1634     2.9037    -3.5299 C.3    1 <0>      -0.1200
   27 C27      -3.2353     3.6440    -2.7037 C.3    1 <0>      -0.1200
   28 C28      -2.7681     3.6009    -1.2382 C.3    1 <0>      -0.1200
   29 H29       0.3125     3.9640     0.7535 H      1 <0>       0.1400
   30 H30       0.1761     5.3682     2.7705 H      1 <0>       0.1200
   31 H31      -3.6753     5.0237     5.0244 H      1 <0>       0.0900
   32 H32      -2.6469     3.8655     5.9013 H      1 <0>       0.0900
   33 H33      -0.9014     6.8323     5.9475 H      1 <0>       0.1500
   34 H34      -0.7573     8.3967     7.8427 H      1 <0>       0.1400
   35 H35      -1.7195     9.1779    10.0125 H      1 <0>       0.1300
   36 H36      -3.4223     8.9628    11.7431 H      1 <0>       0.1300
   37 H37      -5.1812     7.2548    11.5703 H      1 <0>       0.1300
   38 H38      -5.2674     5.7370     9.6695 H      1 <0>       0.1400
   39 H39      -3.3041     3.2245     4.0186 H      1 <0>       0.1200
   40 H40      -3.1637     1.8280     1.9965 H      1 <0>       0.1200
   41 H41      -0.5910     3.5325    -1.2640 H      1 <0>       0.0800
   42 H42      -0.4679     1.7094    -2.8350 H      1 <0>       0.0700
   43 H43      -2.0705     1.0690    -2.3429 H      1 <0>       0.0600
   44 H44      -1.4446     3.6110    -3.9435 H      1 <0>       0.0600
   45 H45      -2.6292     2.3224    -4.3257 H      1 <0>       0.0600
   46 H46      -3.3173     4.6778    -3.0392 H      1 <0>       0.0600
   47 H47      -4.1972     3.1412    -2.8038 H      1 <0>       0.0600
   48 H48      -3.5032     3.0772    -0.6272 H      1 <0>       0.0600
   49 H49      -2.6233     4.6139    -0.8625 H      1 <0>       0.0600
@<TRIPOS>BOND
   1    1    2 ar
   2    2    3 ar
   3    2    4 1
   4    4    5 1
   5    4    6 1
   6    4   24 1
   7    6   23 ar
   8    6    7 ar
   9    7    8 ar
  10    7   29 1
  11    8    9 ar
  12    8   30 1
  13    9   10 1
  14    9   22 ar
  15   10   11 1
  16   11   12 1
  17   11   31 1
  18   11   32 1
  19   12   21 ar
  20   12   13 ar
  21   13   14 ar
  22   13   33 1
  23   14   15 ar
  24   14   34 1
  25   15   20 ar
  26   15   16 ar
  27   16   17 ar
  28   16   35 1
  29   17   18 ar
  30   17   36 1
  31   18   19 ar
  32   18   37 1
  33   19   20 ar
  34   19   38 1
  35   20   21 ar
  36   22   23 ar
  37   22   39 1
  38   23   40 1
  39   24   28 1
  40   24   25 1
  41   24   41 1
  42   25   26 1
  43   25   42 1
  44   25   43 1
  45   26   27 1
  46   26   44 1
  47   26   45 1
  48   27   28 1
  49   27   46 1
  50   27   47 1
  51   28   48 1
  52   28   49 1
