@<TRIPOS>MOLECULE
ZINC000006482036
  48   50    0    0    0
SMALL
USER_CHARGES
NO_NAME
@<TRIPOS>ATOM
    1 C1       -0.0173     1.4248     0.0099 C.3    1 <0>       0.0500
    2 O2        0.0021    -0.0041     0.0020 O.3    1 <0>      -0.2500
    3 N3        0.6459    -0.5651    -1.1275 N.2    1 <0>      -0.4200
    4 C4        0.7303    -1.8578    -1.2531 C.2    1 <0>       0.4100
    5 N5        0.1904    -2.6847    -0.2818 N.pl3  1 <0>      -0.8700
    6 C6        1.4027    -2.4438    -2.4326 C.ar   1 <0>      -0.0300
    7 C7        1.9521    -1.6095    -3.4089 C.ar   1 <0>      -0.0700
    8 C8        2.5756    -2.1519    -4.5028 C.ar   1 <0>      -0.1000
    9 C9        2.6619    -3.5407    -4.6408 C.ar   1 <0>      -0.0200
   10 C10       3.3329    -4.1251    -5.8171 C.2    1 <0>       0.0700
   11 C11       3.4793    -5.4567    -6.0726 C.2    1 <0>      -0.1900
   12 C12       4.1718    -5.5665    -7.2869 C.2    1 <0>      -0.1400
   13 C13       4.4183    -4.2972    -7.7204 C.2    1 <0>      -0.0200
   14 C14       5.1260    -3.9314    -8.9617 C.ar   1 <0>       0.0700
   15 C15       5.6058    -4.9308    -9.8139 C.ar   1 <0>      -0.1000
   16 C16       6.2636    -4.5899   -10.9675 C.ar   1 <0>      -0.0400
   17 C17       6.4548    -3.2447   -11.2915 C.ar   1 <0>      -0.1600
   18 C18       7.1643    -2.8779   -12.5360 C.cat  1 <0>       0.6000
   19 N19       7.0986    -3.7097   -13.6415 N.pl3  1 <0>      -0.7800
   20 N20       7.8506    -1.7734   -12.5925 N.pl3  1 <0>      -0.4900
   21 H21       7.8966    -1.1909   -11.8182 H      1 <0>       0.4500
   22 O22       8.5300    -1.4222   -13.7841 O.3    1 <0>      -0.1400
   23 C23       9.2420    -0.1858   -13.7044 C.3    1 <0>      -0.0100
   24 C24       5.9758    -2.2457   -10.4407 C.ar   1 <0>      -0.0600
   25 C25       5.3124    -2.5849    -9.2898 C.ar   1 <0>      -0.1100
   26 O26       3.9004    -3.4344    -6.8248 O.3    1 <0>      -0.1600
   27 C27       2.1120    -4.3752    -3.6627 C.ar   1 <0>      -0.0900
   28 C28       1.4931    -3.8312    -2.5670 C.ar   1 <0>      -0.0900
   29 H29       1.0053     1.8021     0.0021 H      1 <0>       0.0500
   30 H30      -0.5445     1.7859    -0.8732 H      1 <0>       0.0500
   31 H31      -0.5275     1.7763     0.9067 H      1 <0>       0.0900
   32 H32      -0.2506    -2.3004     0.4919 H      1 <0>       0.4100
   33 H33       0.2534    -3.6482    -0.3754 H      1 <0>       0.4000
   34 H34       1.8854    -0.5368    -3.3022 H      1 <0>       0.1500
   35 H35       2.9997    -1.5067    -5.2580 H      1 <0>       0.1400
   36 H36       3.1288    -6.2717    -5.4566 H      1 <0>       0.1600
   37 H37       4.4562    -6.4821    -7.7841 H      1 <0>       0.1600
   38 H38       5.4587    -5.9709    -9.5632 H      1 <0>       0.1500
   39 H39       6.6342    -5.3617   -11.6258 H      1 <0>       0.1500
   40 H40       6.5872    -4.5329   -13.5994 H      1 <0>       0.4400
   41 H41       7.5640    -3.4691   -14.4578 H      1 <0>       0.4400
   42 H42       8.5443     0.6216   -13.4821 H      1 <0>       0.0800
   43 H43       9.9900    -0.2476   -12.9140 H      1 <0>       0.0800
   44 H44       9.7348     0.0117   -14.6564 H      1 <0>       0.1500
   45 H45       6.1244    -1.2058   -10.6917 H      1 <0>       0.1400
   46 H46       4.9421    -1.8125    -8.6322 H      1 <0>       0.1500
   47 H47       2.1782    -5.4480    -3.7686 H      1 <0>       0.1400
   48 H48       1.0687    -4.4755    -1.8113 H      1 <0>       0.1400
@<TRIPOS>BOND
   1    1    2 1
   2    1   29 1
   3    1   30 1
   4    1   31 1
   5    2    3 1
   6    3    4 2
   7    4    5 1
   8    4    6 1
   9    5   32 1
  10    5   33 1
  11    6   28 ar
  12    6    7 ar
  13    7    8 ar
  14    7   34 1
  15    8    9 ar
  16    8   35 1
  17    9   10 1
  18    9   27 ar
  19   10   26 1
  20   10   11 2
  21   11   12 1
  22   11   36 1
  23   12   13 2
  24   12   37 1
  25   13   14 1
  26   13   26 1
  27   14   25 ar
  28   14   15 ar
  29   15   16 ar
  30   15   38 1
  31   16   17 ar
  32   16   39 1
  33   17   18 1
  34   17   24 ar
  35   18   19 ar
  36   18   20 ar
  37   19   40 1
  38   19   41 1
  39   20   21 1
  40   20   22 1
  41   22   23 1
  42   23   42 1
  43   23   43 1
  44   23   44 1
  45   24   25 ar
  46   24   45 1
  47   25   46 1
  48   27   28 ar
  49   27   47 1
  50   28   48 1
