@<TRIPOS>MOLECULE
ZINC000033969753
44    45    1     0     0
SMALL
USER_CHARGES
@<TRIPOS>ATOM
1      C1     -0.0173    1.4248    0.0099 C.3      1 ZINC000033969753    0.0200
2      O2      0.0021   -0.0041    0.0020 O.3      1 ZINC000033969753   -0.3100
3      C3      0.6062   -0.6076   -1.0565 C.ar     1 ZINC000033969753    0.0900
4      C4      1.1722    0.1601   -2.0609 C.ar     1 ZINC000033969753   -0.1800
5      C5      1.7895   -0.4472   -3.1417 C.ar     1 ZINC000033969753   -0.0900
6      C6      1.8466   -1.8213   -3.2289 C.ar     1 ZINC000033969753   -0.1100
7      C7      1.2800   -2.6095   -2.2231 C.ar     1 ZINC000033969753   -0.0700
8      C8      1.3394   -4.0796   -2.3123 C.2      1 ZINC000033969753    0.1800
9      N9      0.8137   -4.8063   -1.3792 N.2      1 ZINC000033969753   -0.4800
10     C10     0.8727   -6.2674   -1.4679 C.3      1 ZINC000033969753    0.0400
11     C11     1.7299   -6.8136   -0.3244 C.3      1 ZINC000033969753    0.0400
12     N12     1.7889   -8.2747   -0.4131 N.2      1 ZINC000033969753   -0.4800
13     C13     2.9162   -8.8635   -0.6532 C.2      1 ZINC000033969753    0.1800
14     C14     2.9755  -10.3335   -0.7424 C.ar     1 ZINC000033969753   -0.0700
15     C15     4.1922  -10.9733   -0.9960 C.ar     1 ZINC000033969753   -0.1100
16     C16     4.2436  -12.3479   -1.0787 C.ar     1 ZINC000033969753   -0.1000
17     C17     3.0941  -13.1022   -0.9123 C.ar     1 ZINC000033969753   -0.1800
18     C18     1.8811  -12.4826   -0.6610 C.ar     1 ZINC000033969753    0.0900
19     O19     0.7565  -13.2300   -0.4988 O.3      1 ZINC000033969753   -0.3100
20     C20     0.8998  -14.6481   -0.6004 C.3      1 ZINC000033969753    0.0200
21     C21     1.8144  -11.0964   -0.5680 C.ar     1 ZINC000033969753    0.1200
22     O22     0.6270  -10.4854   -0.3217 O.3      1 ZINC000033969753   -0.4600
23     C23     0.6609   -1.9955   -1.1275 C.ar     1 ZINC000033969753    0.1200
24     O24     0.1072   -2.7515   -0.1446 O.3      1 ZINC000033969753   -0.4600
25     H25     1.0053    1.8021    0.0021 H        1 ZINC000033969753    0.0600
26     H26    -0.5445    1.7859   -0.8732 H        1 ZINC000033969753    0.0600
27     H27    -0.5275    1.7763    0.9067 H        1 ZINC000033969753    0.1000
28     H28     1.1315    1.2376   -2.0012 H        1 ZINC000033969753    0.1300
29     H29     2.2281    0.1593   -3.9203 H        1 ZINC000033969753    0.1300
30     H30     2.3288   -2.2892   -4.0745 H        1 ZINC000033969753    0.1300
31     H31     1.8215   -4.5503   -3.1563 H        1 ZINC000033969753    0.1000
32     H32    -0.1348   -6.6768   -1.3943 H        1 ZINC000033969753    0.1000
33     H33     1.3133   -6.5560   -2.4222 H        1 ZINC000033969753    0.0400
34     H34     2.7374   -6.4041   -0.3980 H        1 ZINC000033969753    0.0400
35     H35     1.2893   -6.5250    0.6299 H        1 ZINC000033969753    0.1000
36     H36     3.8134   -8.2776   -0.7882 H        1 ZINC000033969753    0.1000
37     H37     5.0918  -10.3904   -1.1273 H        1 ZINC000033969753    0.1300
38     H38     5.1851  -12.8395   -1.2747 H        1 ZINC000033969753    0.1300
39     H39     3.1437  -14.1790   -0.9792 H        1 ZINC000033969753    0.1300
40     H40    -0.0700  -15.1229   -0.4514 H        1 ZINC000033969753    0.1000
41     H41     1.2820  -14.9048   -1.5884 H        1 ZINC000033969753    0.0600
42     H42     1.5966  -14.9984    0.1610 H        1 ZINC000033969753    0.0600
43     H43     0.4370  -10.3592    0.6180 H        1 ZINC000033969753    0.3900
44     H44     0.7161   -2.9694    0.5743 H        1 ZINC000033969753    0.3900
@<TRIPOS>BOND
1     1     2     1
2     1     25    1
3     1     26    1
4     1     27    1
5     2     3     1
6     3     23    ar
7     3     4     ar
8     4     5     ar
9     4     28    1
10    5     6     ar
11    5     29    1
12    6     7     ar
13    6     30    1
14    7     8     1
15    7     23    ar
16    8     9     2
17    8     31    1
18    9     10    1
19    10    11    1
20    10    32    1
21    10    33    1
22    11    12    1
23    11    34    1
24    11    35    1
25    12    13    2
26    13    14    1
27    13    36    1
28    14    21    ar
29    14    15    ar
30    15    16    ar
31    15    37    1
32    16    17    ar
33    16    38    1
34    17    18    ar
35    17    39    1
36    18    19    1
37    18    21    ar
38    19    20    1
39    20    40    1
40    20    41    1
41    20    42    1
42    21    22    1
43    22    43    1
44    23    24    1
45    24    44    1
@<TRIPOS>SUBSTRUCTURE
1   ZINC000033969753 1     RESIDUE    1   A     ZIN   1
