@<TRIPOS>MOLECULE
ZINC000001536591
51    53    1     0     0
SMALL
USER_CHARGES
@<TRIPOS>ATOM
1      O1     -2.2013    2.5624   -2.1025 O.co2    1 ZINC000001536591   -0.6800
2      C2     -1.2641    2.7180   -1.3383 C.2      1 ZINC000001536591    0.4900
3      O3     -0.4043    3.5454   -1.5885 O.co2    1 ZINC000001536591   -0.7000
4      C4     -1.1717    1.8918   -0.0813 C.3      1 ZINC000001536591   -0.2100
5      C5     -2.4397    1.0490    0.0694 C.3      1 ZINC000001536591    0.1700
6      H6     -2.3725    0.4508    0.9781 H        1 ZINC000001536591    0.0900
7      N7     -2.5779    0.1633   -1.0893 N.am     1 ZINC000001536591   -1.0700
8      S8     -2.0150   -1.3923   -1.0142 S.o2     1 ZINC000001536591    2.6900
9      O9     -2.3275   -1.9929   -2.2636 O.2      1 ZINC000001536591   -0.9600
10     O10    -0.6935   -1.3163   -0.4974 O.2      1 ZINC000001536591   -0.9500
11     C11    -2.9755   -2.2366    0.1979 C.ar     1 ZINC000001536591   -0.6700
12     C12    -2.5598   -2.2324    1.5278 C.ar     1 ZINC000001536591   -0.0400
13     C13    -3.2787   -2.8748    2.4888 C.ar     1 ZINC000001536591   -0.1200
14     C14    -4.4579   -3.5532    2.1379 C.ar     1 ZINC000001536591   -0.0100
15     C15    -5.2268   -4.2272    3.1022 C.ar     1 ZINC000001536591   -0.1200
16     C16    -6.3638   -4.8733    2.7253 C.ar     1 ZINC000001536591   -0.1000
17     C17    -6.7795   -4.8776    1.3950 C.ar     1 ZINC000001536591   -0.1300
18     C18    -6.0606   -4.2359    0.4341 C.ar     1 ZINC000001536591   -0.0900
19     C19    -4.8808   -3.5575    0.7850 C.ar     1 ZINC000001536591   -0.0800
20     C20    -4.1155   -2.8786   -0.1781 C.ar     1 ZINC000001536591    0.0200
21     C21    -3.6395    1.9571    0.1534 C.2      1 ZINC000001536591    0.5300
22     O22    -4.5229    1.8727   -0.6732 O.2      1 ZINC000001536591   -0.5100
23     N23    -3.7306    2.8630    1.1471 N.am     1 ZINC000001536591   -0.7400
24     C24    -4.8969    3.7458    1.2288 C.3      1 ZINC000001536591    0.1300
25     C25    -4.7526    4.6708    2.4389 C.3      1 ZINC000001536591   -0.0900
26     C26    -5.9523    5.5789    2.5230 C.ar     1 ZINC000001536591   -0.0800
27     C27    -5.9424    6.7992    1.8735 C.ar     1 ZINC000001536591   -0.1100
28     C28    -7.0429    7.6322    1.9506 C.ar     1 ZINC000001536591   -0.1200
29     C29    -8.1535    7.2447    2.6768 C.ar     1 ZINC000001536591   -0.1300
30     C30    -8.1638    6.0241    3.3255 C.ar     1 ZINC000001536591   -0.1200
31     C31    -7.0649    5.1892    3.2449 C.ar     1 ZINC000001536591   -0.1200
32     H32    -0.3039    1.2350   -0.1411 H        1 ZINC000001536591    0.0900
33     H33    -1.0694    2.5515    0.7804 H        1 ZINC000001536591    0.0700
34     H34    -2.9992    0.4880   -1.9005 H        1 ZINC000001536591    0.4400
35     H35    -1.6535   -1.7120    1.8001 H        1 ZINC000001536591    0.1400
36     H36    -2.9440   -2.8634    3.5156 H        1 ZINC000001536591    0.1300
37     H37    -4.9169   -4.2327    4.1367 H        1 ZINC000001536591    0.1300
38     H38    -6.9526   -5.3908    3.4682 H        1 ZINC000001536591    0.1200
39     H39    -7.6856   -5.3984    1.1226 H        1 ZINC000001536591    0.1300
40     H40    -6.3948   -4.2480   -0.5928 H        1 ZINC000001536591    0.1300
41     H41    -4.4279   -2.8694   -1.2118 H        1 ZINC000001536591    0.1500
42     H42    -3.0240    2.9305    1.8083 H        1 ZINC000001536591    0.4000
43     H43    -4.9641    4.3440    0.3202 H        1 ZINC000001536591    0.0700
44     H44    -5.8003    3.1454    1.3362 H        1 ZINC000001536591    0.0600
45     H45    -4.6854    4.0726    3.3476 H        1 ZINC000001536591    0.0800
46     H46    -3.8492    5.2713    2.3316 H        1 ZINC000001536591    0.0800
47     H47    -5.0747    7.1019    1.3062 H        1 ZINC000001536591    0.1300
48     H48    -7.0348    8.5858    1.4437 H        1 ZINC000001536591    0.1200
49     H49    -9.0130    7.8958    2.7376 H        1 ZINC000001536591    0.1200
50     H50    -9.0313    5.7215    3.8931 H        1 ZINC000001536591    0.1200
51     H51    -7.0730    4.2356    3.7517 H        1 ZINC000001536591    0.1200
@<TRIPOS>BOND
1     1     2     ar
2     2     3     ar
3     2     4     1
4     4     5     1
5     4     32    1
6     4     33    1
7     5     6     1
8     5     7     1
9     5     21    1
10    7     8     am
11    7     34    1
12    8     9     2
13    8     10    2
14    8     11    1
15    11    20    ar
16    11    12    ar
17    12    13    ar
18    12    35    1
19    13    14    ar
20    13    36    1
21    14    19    ar
22    14    15    ar
23    15    16    ar
24    15    37    1
25    16    17    ar
26    16    38    1
27    17    18    ar
28    17    39    1
29    18    19    ar
30    18    40    1
31    19    20    ar
32    20    41    1
33    21    22    2
34    21    23    am
35    23    24    1
36    23    42    1
37    24    25    1
38    24    43    1
39    24    44    1
40    25    26    1
41    25    45    1
42    25    46    1
43    26    31    ar
44    26    27    ar
45    27    28    ar
46    27    47    1
47    28    29    ar
48    28    48    1
49    29    30    ar
50    29    49    1
51    30    31    ar
52    30    50    1
53    31    51    1
@<TRIPOS>SUBSTRUCTURE
1   ZINC000001536591 1     RESIDUE    1   A     ZIN   1
