@<TRIPOS>MOLECULE
ZINC000004392972
49    52    1     0     0
SMALL
USER_CHARGES
@<TRIPOS>ATOM
1      O1      0.7600    1.7472   -1.2847 O.co2    1 ZINC000004392972   -0.6700
2      C2     -0.0216    1.2950   -0.4594 C.2      1 ZINC000004392972    0.5200
3      O3      0.2638    0.2806    0.1617 O.co2    1 ZINC000004392972   -0.6800
4      C4     -1.3036    1.9755   -0.2092 C.ar     1 ZINC000004392972   -0.0600
5      C5     -2.5045    1.2693   -0.3038 C.ar     1 ZINC000004392972   -0.1000
6      C6     -3.7018    1.9121   -0.0684 C.ar     1 ZINC000004392972   -0.0800
7      C7     -3.7227    3.2572    0.2617 C.ar     1 ZINC000004392972   -0.2000
8      C8     -5.0393    3.9449    0.5158 C.3      1 ZINC000004392972    0.5100
9      F9     -6.0830    3.0264    0.3596 F        1 ZINC000004392972   -0.1800
10     F10    -5.0562    4.4527    1.8193 F        1 ZINC000004392972   -0.1800
11     F11    -5.2011    4.9939   -0.3955 F        1 ZINC000004392972   -0.1800
12     C12    -2.5455    3.9723    0.3599 C.ar     1 ZINC000004392972   -0.0600
13     C13    -1.3263    3.3413    0.1325 C.ar     1 ZINC000004392972   -0.0400
14     C14    -0.0608    4.1047    0.2374 C.ar     1 ZINC000004392972    0.0200
15     C15     0.9494    3.6722    1.0960 C.ar     1 ZINC000004392972   -0.1100
16     C16     2.1252    4.3865    1.1869 C.ar     1 ZINC000004392972   -0.0800
17     C17     2.3115    5.5340    0.4322 C.ar     1 ZINC000004392972   -0.2000
18     C18     1.3118    5.9729   -0.4209 C.ar     1 ZINC000004392972    0.1400
19     C19     0.1280    5.2543   -0.5251 C.ar     1 ZINC000004392972   -0.1300
20     O20     1.4521    7.0988   -1.1684 O.3      1 ZINC000004392972   -0.3100
21     C21     2.7695    7.6185   -1.3525 C.3      1 ZINC000004392972    0.0700
22     C22     3.4527    7.7017    0.0185 C.3      1 ZINC000004392972   -0.1100
23     H23     2.8366    8.2871    0.7010 H        1 ZINC000004392972    0.0900
24     C24     4.8263    8.3592   -0.1289 C.3      1 ZINC000004392972   -0.0700
25     C25     4.6539    9.7890   -0.5729 C.ar     1 ZINC000004392972   -0.0800
26     C26     4.6138   10.0942   -1.9205 C.ar     1 ZINC000004392972   -0.1200
27     C27     4.4556   11.4056   -2.3278 C.ar     1 ZINC000004392972   -0.1200
28     C28     4.3370   12.4119   -1.3874 C.ar     1 ZINC000004392972   -0.1300
29     C29     4.3761   12.1066   -0.0397 C.ar     1 ZINC000004392972   -0.1200
30     C30     4.5300   10.7946    0.3675 C.ar     1 ZINC000004392972   -0.1100
31     C31     3.6158    6.2800    0.5614 C.3      1 ZINC000004392972    0.1600
32     H32     4.3881    5.7613   -0.0066 H        1 ZINC000004392972    0.0700
33     O33     3.9955    6.3373    1.9378 O.3      1 ZINC000004392972   -0.5600
34     H34    -2.4958    0.2205   -0.5614 H        1 ZINC000004392972    0.1300
35     H35    -4.6290    1.3633   -0.1422 H        1 ZINC000004392972    0.1300
36     H36    -2.5708    5.0207    0.6178 H        1 ZINC000004392972    0.1300
37     H37     0.8109    2.7800    1.6886 H        1 ZINC000004392972    0.1300
38     H38     2.9068    4.0496    1.8516 H        1 ZINC000004392972    0.1200
39     H39    -0.6511    5.5927   -1.1921 H        1 ZINC000004392972    0.1300
40     H40     3.3374    6.9562   -2.0060 H        1 ZINC000004392972    0.0700
41     H41     2.7134    8.6127   -1.7956 H        1 ZINC000004392972    0.1100
42     H42     5.3448    8.3364    0.8297 H        1 ZINC000004392972    0.0900
43     H43     5.4112    7.8163   -0.8713 H        1 ZINC000004392972    0.0800
44     H44     4.7065    9.3080   -2.6552 H        1 ZINC000004392972    0.1200
45     H45     4.4250   11.6442   -3.3806 H        1 ZINC000004392972    0.1200
46     H46     4.2141   13.4366   -1.7055 H        1 ZINC000004392972    0.1200
47     H47     4.2838   12.8927    0.6950 H        1 ZINC000004392972    0.1200
48     H48     4.5606   10.5560    1.4204 H        1 ZINC000004392972    0.1200
49     H49     4.1171    5.4704    2.3487 H        1 ZINC000004392972    0.3800
@<TRIPOS>BOND
1     1     2     ar
2     2     3     ar
3     2     4     1
4     4     13    ar
5     4     5     ar
6     5     6     ar
7     5     34    1
8     6     7     ar
9     6     35    1
10    7     8     1
11    7     12    ar
12    8     9     1
13    8     10    1
14    8     11    1
15    12    13    ar
16    12    36    1
17    13    14    1
18    14    19    ar
19    14    15    ar
20    15    16    ar
21    15    37    1
22    16    17    ar
23    16    38    1
24    17    31    1
25    17    18    ar
26    18    19    ar
27    18    20    1
28    19    39    1
29    20    21    1
30    21    22    1
31    21    40    1
32    21    41    1
33    22    23    1
34    22    24    1
35    22    31    1
36    24    25    1
37    24    42    1
38    24    43    1
39    25    30    ar
40    25    26    ar
41    26    27    ar
42    26    44    1
43    27    28    ar
44    27    45    1
45    28    29    ar
46    28    46    1
47    29    30    ar
48    29    47    1
49    30    48    1
50    31    32    1
51    31    33    1
52    33    49    1
@<TRIPOS>SUBSTRUCTURE
1   ZINC000004392972 1     RESIDUE    1   A     ZIN   1
