@<TRIPOS>MOLECULE
ZINC000002020190
  30   29    0    0    0
SMALL
USER_CHARGES
NO_NAME
@<TRIPOS>ATOM
    1 C1       -2.3985    -2.9256     1.8747 C.3    1 <0>      -0.1700
    2 C2       -1.2002    -2.5724     1.0318 C.2    1 <0>       0.5200
    3 O3       -0.1206    -2.3970     1.5558 O.2    1 <0>      -0.5400
    4 N4       -1.3284    -2.4514    -0.3044 N.am   1 <0>      -0.7200
    5 C5       -0.1636    -2.1081    -1.1239 C.3    1 <0>       0.0500
    6 H6        0.7282    -2.5690    -0.6990 H      1 <0>       0.1300
    7 C7        0.0086    -0.6112    -1.1500 C.2    1 <0>       0.3300
    8 O8       -0.7193     0.0919    -0.4912 O.2    1 <0>      -0.4400
    9 C9       -0.3735    -2.6223    -2.5495 C.3    1 <0>       0.0900
   10 H10      -1.2501    -2.1416    -2.9837 H      1 <0>       0.1200
   11 O11       0.7773    -2.3178    -3.3400 O.3    1 <0>      -0.5400
   12 C12      -0.5851    -4.1373    -2.5193 C.3    1 <0>       0.0500
   13 H13      -1.4859    -4.3670    -1.9502 H      1 <0>       0.1100
   14 O14       0.5412    -4.7633    -1.9014 O.3    1 <0>      -0.5400
   15 C15      -0.7381    -4.6595    -3.9492 C.3    1 <0>       0.0800
   16 H16       0.1628    -4.4298    -4.5182 H      1 <0>       0.1200
   17 O17      -1.8643    -4.0335    -4.5670 O.3    1 <0>      -0.5400
   18 C18      -0.9497    -6.1745    -3.9189 C.3    1 <0>       0.0500
   19 O19      -0.9761    -6.6786    -5.2558 O.3    1 <0>      -0.5600
   20 H20      -2.9035    -2.0122     2.1891 H      1 <0>       0.1000
   21 H21      -3.0855    -3.5382     1.2910 H      1 <0>       0.0800
   22 H22      -2.0730    -3.4818     2.7538 H      1 <0>       0.1000
   23 H23      -2.1919    -2.5917    -0.7235 H      1 <0>       0.4000
   24 H24       0.7830    -0.1672    -1.7580 H      1 <0>       0.1100
   25 H25       1.5961    -2.7137    -3.0116 H      1 <0>       0.3800
   26 H26       1.3794    -4.6013    -2.3556 H      1 <0>       0.3800
   27 H27      -2.7025    -4.1955    -4.1129 H      1 <0>       0.3700
   28 H28      -0.1339    -6.6444    -3.3696 H      1 <0>       0.0600
   29 H29      -1.8960    -6.3995    -3.4270 H      1 <0>       0.0500
   30 H30      -1.1072    -7.6349    -5.3131 H      1 <0>       0.3800
@<TRIPOS>BOND
   1    1    2 1
   2    1   20 1
   3    1   21 1
   4    1   22 1
   5    2    3 2
   6    2    4 am
   7    4    5 1
   8    4   23 1
   9    5    6 1
  10    5    7 1
  11    5    9 1
  12    7    8 2
  13    7   24 1
  14    9   10 1
  15    9   11 1
  16    9   12 1
  17   11   25 1
  18   12   13 1
  19   12   14 1
  20   12   15 1
  21   14   26 1
  22   15   16 1
  23   15   17 1
  24   15   18 1
  25   17   27 1
  26   18   19 1
  27   18   28 1
  28   18   29 1
  29   19   30 1
