@<TRIPOS>MOLECULE
ZINC000014960644
43    45    1     0     0
SMALL
USER_CHARGES
@<TRIPOS>ATOM
1      C1      0.0695    1.3999    0.1331 C.3      1 ZINC000014960644    0.0300
2      O2      0.0749   -0.0290    0.1121 O.3      1 ZINC000014960644   -0.3200
3      C3     -1.1336   -0.6503    0.0913 C.ar     1 ZINC000014960644    0.1300
4      C4     -2.3003    0.1015    0.0854 C.ar     1 ZINC000014960644   -0.2100
5      C5     -3.5320   -0.5262    0.0642 C.ar     1 ZINC000014960644   -0.0800
6      C6     -3.6083   -1.9042    0.0488 C.ar     1 ZINC000014960644   -0.1500
7      C7     -2.4412   -2.6668    0.0546 C.ar     1 ZINC000014960644    0.0100
8      C8     -2.5204   -4.1480    0.0375 C.ar     1 ZINC000014960644   -0.0600
9      C9     -1.3529   -4.9092    0.0491 C.ar     1 ZINC000014960644   -0.0900
10     C10    -1.4274   -6.2862    0.0338 C.ar     1 ZINC000014960644   -0.1000
11     C11    -2.6655   -6.9161    0.0063 C.ar     1 ZINC000014960644    0.1500
12     N12    -2.7384   -8.3113   -0.0097 N.am     1 ZINC000014960644   -0.6600
13     C13    -1.8021   -9.0276   -0.6630 C.2      1 ZINC000014960644    0.6100
14     O14    -0.8544   -8.4650   -1.1754 O.2      1 ZINC000014960644   -0.5200
15     C15    -1.9278  -10.4971   -0.7564 C.2      1 ZINC000014960644   -0.2000
16     C16    -2.6597  -11.1441   -1.6739 C.2      1 ZINC000014960644   -0.1000
17     C17    -3.4515  -10.4895   -2.7305 C.2      1 ZINC000014960644    0.5200
18     O18    -3.5463   -9.2706   -2.7571 O.co2    1 ZINC000014960644   -0.6700
19     O19    -4.0138  -11.1653   -3.5806 O.co2    1 ZINC000014960644   -0.6800
20     C20    -2.5590  -12.6387   -1.4743 C.3      1 ZINC000014960644   -0.0900
21     C21    -1.3232  -12.8365   -0.5677 C.3      1 ZINC000014960644   -0.1200
22     C22    -1.2439  -11.4801    0.1653 C.3      1 ZINC000014960644   -0.0700
23     C23    -3.8339   -6.1584   -0.0049 C.ar     1 ZINC000014960644    0.0700
24     F24    -5.0370   -6.7725   -0.0308 F        1 ZINC000014960644   -0.1300
25     C25    -3.7629   -4.7803    0.0157 C.ar     1 ZINC000014960644   -0.1200
26     C26    -1.2008   -2.0339    0.0702 C.ar     1 ZINC000014960644   -0.1500
27     H27     1.0957    1.7669    0.1485 H        1 ZINC000014960644    0.1000
28     H28    -0.4371    1.7744   -0.7563 H        1 ZINC000014960644    0.0500
29     H29    -0.4543    1.7481    1.0234 H        1 ZINC000014960644    0.0500
30     H30    -2.2459    1.1801    0.0978 H        1 ZINC000014960644    0.1300
31     H31    -4.4369    0.0633    0.0601 H        1 ZINC000014960644    0.1300
32     H32    -4.5719   -2.3916    0.0326 H        1 ZINC000014960644    0.1300
33     H33    -0.3899   -4.4207    0.0698 H        1 ZINC000014960644    0.1300
34     H34    -0.5224   -6.8755    0.0428 H        1 ZINC000014960644    0.1500
35     H35    -3.4629   -8.7644    0.4494 H        1 ZINC000014960644    0.4100
36     H36    -3.4549  -13.0165   -0.9816 H        1 ZINC000014960644    0.0800
37     H37    -2.4115  -13.1398   -2.4309 H        1 ZINC000014960644    0.0800
38     H38    -1.4827  -13.6536    0.1358 H        1 ZINC000014960644    0.0700
39     H39    -0.4262  -13.0065   -1.1633 H        1 ZINC000014960644    0.0700
40     H40    -0.2038  -11.1957    0.3248 H        1 ZINC000014960644    0.0700
41     H41    -1.7738  -11.5317    1.1164 H        1 ZINC000014960644    0.0700
42     H42    -4.6687   -4.1922    0.0074 H        1 ZINC000014960644    0.1400
43     H43    -0.2938   -2.6201    0.0747 H        1 ZINC000014960644    0.1400
@<TRIPOS>BOND
1     1     2     1
2     1     27    1
3     1     28    1
4     1     29    1
5     2     3     1
6     3     26    ar
7     3     4     ar
8     4     5     ar
9     4     30    1
10    5     6     ar
11    5     31    1
12    6     7     ar
13    6     32    1
14    7     8     1
15    7     26    ar
16    8     25    ar
17    8     9     ar
18    9     10    ar
19    9     33    1
20    10    11    ar
21    10    34    1
22    11    12    1
23    11    23    ar
24    12    13    am
25    12    35    1
26    13    14    2
27    13    15    1
28    15    22    1
29    15    16    2
30    16    17    1
31    16    20    1
32    17    18    ar
33    17    19    ar
34    20    21    1
35    20    36    1
36    20    37    1
37    21    22    1
38    21    38    1
39    21    39    1
40    22    40    1
41    22    41    1
42    23    24    1
43    23    25    ar
44    25    42    1
45    26    43    1
@<TRIPOS>SUBSTRUCTURE
1   ZINC000014960644 1     RESIDUE    1   A     ZIN   1
