@<TRIPOS>MOLECULE
ZINC000003972138
46    47    1     0     0
SMALL
USER_CHARGES
@<TRIPOS>ATOM
1      O1      0.0021   -0.0041    0.0020 O.co2    1 ZINC000003972138   -0.6800
2      C2     -0.0145    1.2150    0.0087 C.2      1 ZINC000003972138    0.5000
3      O3      1.0330    1.8389    0.0021 O.co2    1 ZINC000003972138   -0.7000
4      C4     -1.3296    1.9507    0.0190 C.3      1 ZINC000003972138    0.0700
5      H5     -1.2142    2.9090    0.5253 H        1 ZINC000003972138    0.0600
6      C6     -1.8158    2.1769   -1.4281 C.3      1 ZINC000003972138   -0.1100
7      C7     -3.3483    1.9609   -1.3176 C.3      1 ZINC000003972138   -0.1300
8      C8     -3.4280    0.8346   -0.2571 C.3      1 ZINC000003972138    0.1000
9      N9     -2.3492    1.1428    0.7041 N.am     1 ZINC000003972138   -0.5900
10     C10    -2.3071    0.7461    1.9915 C.2      1 ZINC000003972138    0.5300
11     O11    -1.3677    1.0586    2.6920 O.2      1 ZINC000003972138   -0.5400
12     C12    -3.4274   -0.0859    2.5605 C.3      1 ZINC000003972138   -0.1300
13     C13    -3.1355   -0.3980    4.0296 C.3      1 ZINC000003972138   -0.1000
14     C14    -4.2729   -1.2427    4.6073 C.3      1 ZINC000003972138   -0.1000
15     C15    -3.9810   -1.5548    6.0764 C.3      1 ZINC000003972138   -0.1300
16     C16    -5.1013   -2.3867    6.6455 C.2      1 ZINC000003972138    0.5300
17     O17    -6.0407   -2.6993    5.9449 O.2      1 ZINC000003972138   -0.5300
18     N18    -5.0593   -2.7835    7.9328 N.am     1 ZINC000003972138   -0.6000
19     C19    -3.9856   -2.4710    8.8936 C.3      1 ZINC000003972138    0.1000
20     C20    -4.6555   -2.5802   10.2861 C.3      1 ZINC000003972138   -0.1300
21     C21    -5.6197   -3.7772   10.0749 C.3      1 ZINC000003972138   -0.1100
22     C22    -6.0796   -3.5943    8.6133 C.3      1 ZINC000003972138    0.0700
23     H23    -7.0425   -3.0842    8.5888 H        1 ZINC000003972138    0.0600
24     C24    -6.1942   -4.9377    7.9401 C.2      1 ZINC000003972138    0.5000
25     O25    -7.0986   -5.6967    8.2442 O.co2    1 ZINC000003972138   -0.7100
26     O26    -5.3826   -5.2655    7.0914 O.co2    1 ZINC000003972138   -0.6800
27     H27    -1.5920    3.1920   -1.7559 H        1 ZINC000003972138    0.0700
28     H28    -1.3710    1.4457   -2.1031 H        1 ZINC000003972138    0.0700
29     H29    -3.8458    2.8647   -0.9659 H        1 ZINC000003972138    0.0700
30     H30    -3.7661    1.6320   -2.2691 H        1 ZINC000003972138    0.0800
31     H31    -4.3963    0.8522    0.2430 H        1 ZINC000003972138    0.0700
32     H32    -3.2577   -0.1366   -0.7217 H        1 ZINC000003972138    0.0700
33     H33    -4.3643    0.4662    2.4856 H        1 ZINC000003972138    0.0800
34     H34    -3.5089   -1.0174    2.0004 H        1 ZINC000003972138    0.0900
35     H35    -2.1987   -0.9501    4.1045 H        1 ZINC000003972138    0.0700
36     H36    -3.0540    0.5335    4.5897 H        1 ZINC000003972138    0.0700
37     H37    -5.2097   -0.6906    4.5324 H        1 ZINC000003972138    0.0700
38     H38    -4.3544   -2.1742    4.0472 H        1 ZINC000003972138    0.0700
39     H39    -3.0441   -2.1069    6.1514 H        1 ZINC000003972138    0.0900
40     H40    -3.8995   -0.6233    6.6365 H        1 ZINC000003972138    0.0800
41     H41    -3.1749   -3.1941    8.8049 H        1 ZINC000003972138    0.0600
42     H42    -3.6128   -1.4598    8.7302 H        1 ZINC000003972138    0.0700
43     H43    -3.9186   -2.8034   11.0577 H        1 ZINC000003972138    0.0800
44     H44    -5.2075   -1.6715   10.5264 H        1 ZINC000003972138    0.0700
45     H45    -5.0935   -4.7233   10.2019 H        1 ZINC000003972138    0.0700
46     H46    -6.4691   -3.7129   10.7550 H        1 ZINC000003972138    0.0700
@<TRIPOS>BOND
1     1     2     ar
2     2     3     ar
3     2     4     1
4     4     5     1
5     4     9     1
6     4     6     1
7     6     7     1
8     6     27    1
9     6     28    1
10    7     8     1
11    7     29    1
12    7     30    1
13    8     9     1
14    8     31    1
15    8     32    1
16    9     10    am
17    10    11    2
18    10    12    1
19    12    13    1
20    12    33    1
21    12    34    1
22    13    14    1
23    13    35    1
24    13    36    1
25    14    15    1
26    14    37    1
27    14    38    1
28    15    16    1
29    15    39    1
30    15    40    1
31    16    17    2
32    16    18    am
33    18    22    1
34    18    19    1
35    19    20    1
36    19    41    1
37    19    42    1
38    20    21    1
39    20    43    1
40    20    44    1
41    21    22    1
42    21    45    1
43    21    46    1
44    22    23    1
45    22    24    1
46    24    25    ar
47    24    26    ar
@<TRIPOS>SUBSTRUCTURE
1   ZINC000003972138 1     RESIDUE    1   A     ZIN   1
