@<TRIPOS>MOLECULE
ZINC000003948997
60    64    1     0     0
SMALL
USER_CHARGES
@<TRIPOS>ATOM
1      C1     -0.1507    0.4127    2.2060 C.3      1 ZINC000003948997   -0.1500
2      C2     -0.1215   -1.0019    1.6238 C.3      1 ZINC000003948997    0.0400
3      N3      0.7943   -1.0401    0.4759 N.3      1 ZINC000003948997   -0.6700
4      C4      0.9418   -2.4097   -0.0345 C.3      1 ZINC000003948997    0.0900
5      C5      1.4539   -3.3044    1.0648 C.2      1 ZINC000003948997    0.5300
6      N6      2.3937   -2.8525    1.9186 N.am     1 ZINC000003948997   -0.8400
7      O7      1.0204   -4.4310    1.1811 O.2      1 ZINC000003948997   -0.5400
8      C8     -0.4157   -2.9227   -0.5229 C.3      1 ZINC000003948997   -0.1300
9      C9     -0.2444   -4.3260   -1.1090 C.3      1 ZINC000003948997    0.0400
10     N10     0.7110   -4.2792   -2.2232 N.3      1 ZINC000003948997   -0.4600
11     C11     0.7911   -5.5054   -2.8596 C.ar     1 ZINC000003948997    0.4400
12     C12     1.6525   -5.6924   -3.9558 C.ar     1 ZINC000003948997   -0.0600
13     N13     2.5191   -4.8996   -4.6254 N.2      1 ZINC000003948997   -0.4200
14     C14     3.0824   -5.5848   -5.5908 C.2      1 ZINC000003948997    0.3200
15     C15     4.0866   -5.0551   -6.5376 C.ar     1 ZINC000003948997   -0.0200
16     C16     5.2436   -5.7848   -6.8131 C.ar     1 ZINC000003948997   -0.0800
17     C17     6.1767   -5.2851   -7.6982 C.ar     1 ZINC000003948997   -0.1100
18     C18     5.9680   -4.0630   -8.3121 C.ar     1 ZINC000003948997   -0.0800
19     C19     4.8238   -3.3333   -8.0439 C.ar     1 ZINC000003948997   -0.1100
20     C20     3.8787   -3.8244   -7.1650 C.ar     1 ZINC000003948997    0.0000
21     Cl21    2.4431   -2.9079   -6.8292 Cl       1 ZINC000003948997   -0.0400
22     N22     2.5978   -6.8700   -5.5882 N.pl3    1 ZINC000003948997   -0.4200
23     C23     2.9616   -7.8968   -6.4697 C.ar     1 ZINC000003948997    0.1200
24     C24     2.6231   -7.8121   -7.8136 C.ar     1 ZINC000003948997   -0.0900
25     C25     2.9831   -8.8252   -8.6804 C.ar     1 ZINC000003948997   -0.0900
26     C26     3.6804   -9.9243   -8.2105 C.ar     1 ZINC000003948997   -0.0200
27     Cl27    4.1315  -11.1961   -9.3026 Cl       1 ZINC000003948997   -0.0500
28     C28     4.0190  -10.0111   -6.8715 C.ar     1 ZINC000003948997   -0.1000
29     C29     3.6662   -8.9979   -6.0018 C.ar     1 ZINC000003948997   -0.0800
30     C30     1.6899   -6.9619   -4.5604 C.ar     1 ZINC000003948997    0.3000
31     N31     0.9171   -7.9293   -4.0789 N.ar     1 ZINC000003948997   -0.5400
32     C32     0.1257   -7.7074   -3.0503 C.ar     1 ZINC000003948997    0.3500
33     N33     0.0600   -6.5352   -2.4460 N.ar     1 ZINC000003948997   -0.5600
34     C34     2.0349   -3.8345   -1.7691 C.3      1 ZINC000003948997    0.0600
35     C35     1.9316   -2.4166   -1.2027 C.3      1 ZINC000003948997   -0.1000
36     H36     0.8513    0.6926    2.5312 H        1 ZINC000003948997    0.0600
37     H37    -0.4940    1.1123    1.4439 H        1 ZINC000003948997    0.0600
38     H38    -0.8303    0.4411    3.0578 H        1 ZINC000003948997    0.0600
39     H39     0.2218   -1.7014    2.3860 H        1 ZINC000003948997    0.0700
40     H40    -1.1235   -1.2817    1.2987 H        1 ZINC000003948997    0.0400
41     H41     0.4869   -0.4138   -0.2530 H        1 ZINC000003948997    0.3500
42     H42     2.7895   -1.9770    1.7851 H        1 ZINC000003948997    0.4100
43     H43     2.6743   -3.4027    2.6666 H        1 ZINC000003948997    0.4000
44     H44    -1.1130   -2.9605    0.3140 H        1 ZINC000003948997    0.0800
45     H45    -0.8033   -2.2526   -1.2903 H        1 ZINC000003948997    0.0800
46     H46     0.1301   -4.9986   -0.3374 H        1 ZINC000003948997    0.1000
47     H47    -1.2066   -4.6884   -1.4707 H        1 ZINC000003948997    0.0900
48     H48     5.4085   -6.7387   -6.3343 H        1 ZINC000003948997    0.1300
49     H49     7.0724   -5.8493   -7.9119 H        1 ZINC000003948997    0.1400
50     H50     6.7021   -3.6766   -9.0038 H        1 ZINC000003948997    0.1400
51     H51     4.6673   -2.3796   -8.5260 H        1 ZINC000003948997    0.1400
52     H52     2.0783   -6.9548   -8.1806 H        1 ZINC000003948997    0.1400
53     H53     2.7200   -8.7597   -9.7258 H        1 ZINC000003948997    0.1500
54     H54     4.5628  -10.8701   -6.5071 H        1 ZINC000003948997    0.1500
55     H55     3.9310   -9.0660   -4.9569 H        1 ZINC000003948997    0.1400
56     H56    -0.4895   -8.5160   -2.6840 H        1 ZINC000003948997    0.2100
57     H57     2.3987   -4.5095   -0.9944 H        1 ZINC000003948997    0.0500
58     H58     2.7281   -3.8400   -2.6103 H        1 ZINC000003948997    0.1100
59     H59     1.5810   -1.7386   -1.9808 H        1 ZINC000003948997    0.0900
60     H60     2.9114   -2.0928   -0.8515 H        1 ZINC000003948997    0.0900
@<TRIPOS>BOND
1     1     2     1
2     1     36    1
3     1     37    1
4     1     38    1
5     2     3     1
6     2     39    1
7     2     40    1
8     3     4     1
9     3     41    1
10    4     35    1
11    4     5     1
12    4     8     1
13    5     6     am
14    5     7     2
15    6     42    1
16    6     43    1
17    8     9     1
18    8     44    1
19    8     45    1
20    9     10    1
21    9     46    1
22    9     47    1
23    10    11    1
24    10    34    1
25    11    33    ar
26    11    12    ar
27    12    30    ar
28    12    13    1
29    13    14    2
30    14    15    1
31    14    22    1
32    15    20    ar
33    15    16    ar
34    16    17    ar
35    16    48    1
36    17    18    ar
37    17    49    1
38    18    19    ar
39    18    50    1
40    19    20    ar
41    19    51    1
42    20    21    1
43    22    23    1
44    22    30    1
45    23    29    ar
46    23    24    ar
47    24    25    ar
48    24    52    1
49    25    26    ar
50    25    53    1
51    26    27    1
52    26    28    ar
53    28    29    ar
54    28    54    1
55    29    55    1
56    30    31    ar
57    31    32    ar
58    32    33    ar
59    32    56    1
60    34    35    1
61    34    57    1
62    34    58    1
63    35    59    1
64    35    60    1
@<TRIPOS>SUBSTRUCTURE
1   ZINC000003948997 1     RESIDUE    1   A     ZIN   1
