@<TRIPOS>MOLECULE
ZINC000053261548
85    89    1     0     0
SMALL
USER_CHARGES
@<TRIPOS>ATOM
1      C1    -10.2475    5.0521    7.7801 C.3      1 ZINC000053261548   -0.1000
2      C2     -9.9304    5.2427    9.2409 C.ar     1 ZINC000053261548    0.1500
3      C3    -10.3394    6.4126    9.8766 C.ar     1 ZINC000053261548   -0.1600
4      C4    -10.0609    6.6020   11.2005 C.ar     1 ZINC000053261548   -0.0300
5      C5    -10.4932    7.8588   11.9109 C.3      1 ZINC000053261548   -0.1200
6      C6     -9.3595    5.5904   11.8828 C.ar     1 ZINC000053261548   -0.0700
7      C7     -9.0381    5.7144   13.2444 C.ar     1 ZINC000053261548   -0.1300
8      C8     -8.3587    4.7147   13.8716 C.ar     1 ZINC000053261548   -0.0700
9      C9     -7.9759    3.5671   13.1822 C.ar     1 ZINC000053261548   -0.2100
10     C10    -8.2701    3.4109   11.8578 C.ar     1 ZINC000053261548    0.1600
11     O11    -7.8877    2.2847   11.2015 O.3      1 ZINC000053261548   -0.2800
12     C12    -7.1793    1.3014   11.9587 C.3      1 ZINC000053261548    0.0900
13     C13    -6.8403    0.1319   11.0708 C.ar     1 ZINC000053261548   -0.1000
14     C14    -7.7245   -0.9248   10.9508 C.ar     1 ZINC000053261548    0.0500
15     Cl15   -9.2256   -0.9040   11.8226 Cl       1 ZINC000053261548   -0.0300
16     C16    -7.4126   -1.9985   10.1354 C.ar     1 ZINC000053261548   -0.1300
17     C17    -6.2177   -2.0152    9.4413 C.ar     1 ZINC000053261548    0.0100
18     C18    -5.3333   -0.9595    9.5611 C.ar     1 ZINC000053261548   -0.6800
19     S19    -3.8098   -0.9820    8.6763 S.o2     1 ZINC000053261548    2.7100
20     O20    -2.8004   -0.6122    9.6057 O.2      1 ZINC000053261548   -0.9300
21     O21    -3.7866   -2.2021    7.9482 O.2      1 ZINC000053261548   -0.9300
22     N22    -3.8778    0.2321    7.5522 N.am     1 ZINC000053261548   -0.9900
23     C23    -3.3248    1.5886    7.7180 C.3      1 ZINC000053261548    0.1100
24     C24    -3.0793    2.0959    6.2751 C.3      1 ZINC000053261548   -0.1300
25     C25    -4.2961    1.4955    5.5226 C.3      1 ZINC000053261548   -0.1100
26     C26    -4.4942    0.1338    6.2210 C.3      1 ZINC000053261548    0.1300
27     H27    -5.5583   -0.0779    6.3255 H        1 ZINC000053261548    0.1000
28     C28    -3.8316   -0.9555    5.4176 C.2      1 ZINC000053261548    0.5000
29     O29    -2.6855   -1.2729    5.6557 O.2      1 ZINC000053261548   -0.5100
30     N30    -4.5126   -1.5769    4.4345 N.am     1 ZINC000053261548   -0.7300
31     C31    -3.8685   -2.6358    3.6535 C.3      1 ZINC000053261548    0.1200
32     C32    -4.8521   -3.1705    2.6106 C.3      1 ZINC000053261548   -0.1400
33     C33    -4.1794   -4.2764    1.7949 C.3      1 ZINC000053261548    0.1200
34     N34    -5.1211   -4.7884    0.7963 N.am     1 ZINC000053261548   -0.7200
35     C35    -4.7447   -5.7745   -0.0418 C.2      1 ZINC000053261548    0.5500
36     O36    -3.6241   -6.2390    0.0309 O.2      1 ZINC000053261548   -0.5100
37     C37    -5.6962   -6.2917   -1.0506 C.ar     1 ZINC000053261548   -0.0600
38     C38    -6.9813   -5.7544   -1.1380 C.ar     1 ZINC000053261548   -0.0900
39     C39    -7.8669   -6.2358   -2.0778 C.ar     1 ZINC000053261548   -0.0700
40     C40    -7.4791   -7.2606   -2.9415 C.ar     1 ZINC000053261548   -0.1400
41     C41    -8.4314   -7.7782   -3.9512 C.cat    1 ZINC000053261548    0.6000
42     N42    -7.9792   -8.2650   -5.1042 N.pl3    1 ZINC000053261548   -0.7500
43     N43    -9.7390   -7.7564   -3.7053 N.pl3    1 ZINC000053261548   -0.7600
44     H44   -10.3626   -8.0954   -4.3665 H        1 ZINC000053261548    0.4300
45     H45   -10.0686   -7.4016   -2.8648 H        1 ZINC000053261548    0.4500
46     C46    -6.1944   -7.7976   -2.8546 C.ar     1 ZINC000053261548   -0.0600
47     C47    -5.3066   -7.3129   -1.9185 C.ar     1 ZINC000053261548   -0.0600
48     C48    -5.6469    0.1174   10.3709 C.ar     1 ZINC000053261548    0.0900
49     Cl49   -4.5364    1.4433   10.5208 Cl       1 ZINC000053261548   -0.0100
50     C50    -8.9734    4.4257   11.1750 C.ar     1 ZINC000053261548    0.1200
51     N51    -9.2814    4.3005    9.8814 N.ar     1 ZINC000053261548   -0.4600
52     H52   -11.2162    4.5626    7.6794 H        1 ZINC000053261548    0.0800
53     H53   -10.2778    6.0228    7.2852 H        1 ZINC000053261548    0.0800
54     H54    -9.4780    4.4330    7.3189 H        1 ZINC000053261548    0.0800
55     H55   -10.8758    7.1693    9.3234 H        1 ZINC000053261548    0.1400
56     H56   -11.4874    7.7137   12.3334 H        1 ZINC000053261548    0.0800
57     H57    -9.7879    8.0850   12.7106 H        1 ZINC000053261548    0.0800
58     H58   -10.5168    8.6868   11.2023 H        1 ZINC000053261548    0.0800
59     H59    -9.3283    6.5990   13.7917 H        1 ZINC000053261548    0.1300
60     H60    -8.1129    4.8136   14.9186 H        1 ZINC000053261548    0.1300
61     H61    -7.4377    2.7887   13.7027 H        1 ZINC000053261548    0.1300
62     H62    -6.2608    1.7376   12.3515 H        1 ZINC000053261548    0.0900
63     H63    -7.8026    0.9611   12.7856 H        1 ZINC000053261548    0.0900
64     H64    -8.1030   -2.8237   10.0416 H        1 ZINC000053261548    0.1600
65     H65    -5.9746   -2.8535    8.8053 H        1 ZINC000053261548    0.1600
66     H66    -4.0420    2.2308    8.2291 H        1 ZINC000053261548    0.0800
67     H67    -2.3865    1.5507    8.2715 H        1 ZINC000053261548    0.0900
68     H68    -3.0944    3.1851    6.2360 H        1 ZINC000053261548    0.0900
69     H69    -2.1425    1.7052    5.8776 H        1 ZINC000053261548    0.0800
70     H70    -5.1756    2.1276    5.6453 H        1 ZINC000053261548    0.0900
71     H71    -4.0653    1.3547    4.4666 H        1 ZINC000053261548    0.0900
72     H72    -5.4292   -1.3230    4.2440 H        1 ZINC000053261548    0.4000
73     H73    -2.9893   -2.2329    3.1507 H        1 ZINC000053261548    0.0700
74     H74    -3.5677   -3.4457    4.3181 H        1 ZINC000053261548    0.0800
75     H75    -5.7313   -3.5734    3.1133 H        1 ZINC000053261548    0.0800
76     H76    -5.1528   -2.3606    1.9460 H        1 ZINC000053261548    0.0800
77     H77    -3.3001   -3.8735    1.2922 H        1 ZINC000053261548    0.0800
78     H78    -3.8786   -5.0863    2.4595 H        1 ZINC000053261548    0.0800
79     H79    -6.0156   -4.4176    0.7383 H        1 ZINC000053261548    0.4000
80     H80    -7.2818   -4.9616   -0.4690 H        1 ZINC000053261548    0.1500
81     H81    -8.8614   -5.8201   -2.1455 H        1 ZINC000053261548    0.1500
82     H82    -7.0260   -8.2809   -5.2835 H        1 ZINC000053261548    0.4500
83     H83    -8.6028   -8.6040   -5.7654 H        1 ZINC000053261548    0.4300
84     H84    -5.8943   -8.5906   -3.5235 H        1 ZINC000053261548    0.1500
85     H85    -4.3120   -7.7284   -1.8515 H        1 ZINC000053261548    0.1600
@<TRIPOS>BOND
1     1     2     1
2     1     52    1
3     1     53    1
4     1     54    1
5     2     51    ar
6     2     3     ar
7     3     4     ar
8     3     55    1
9     4     5     1
10    4     6     ar
11    5     56    1
12    5     57    1
13    5     58    1
14    6     50    ar
15    6     7     ar
16    7     8     ar
17    7     59    1
18    8     9     ar
19    8     60    1
20    9     10    ar
21    9     61    1
22    10    11    1
23    10    50    ar
24    11    12    1
25    12    13    1
26    12    62    1
27    12    63    1
28    13    48    ar
29    13    14    ar
30    14    15    1
31    14    16    ar
32    16    17    ar
33    16    64    1
34    17    18    ar
35    17    65    1
36    18    19    1
37    18    48    ar
38    19    20    2
39    19    21    2
40    19    22    am
41    22    26    1
42    22    23    1
43    23    24    1
44    23    66    1
45    23    67    1
46    24    25    1
47    24    68    1
48    24    69    1
49    25    26    1
50    25    70    1
51    25    71    1
52    26    27    1
53    26    28    1
54    28    29    2
55    28    30    am
56    30    31    1
57    30    72    1
58    31    32    1
59    31    73    1
60    31    74    1
61    32    33    1
62    32    75    1
63    32    76    1
64    33    34    1
65    33    77    1
66    33    78    1
67    34    35    am
68    34    79    1
69    35    36    2
70    35    37    1
71    37    47    ar
72    37    38    ar
73    38    39    ar
74    38    80    1
75    39    40    ar
76    39    81    1
77    40    41    1
78    40    46    ar
79    41    42    ar
80    41    43    ar
81    42    82    1
82    42    83    1
83    43    44    1
84    43    45    1
85    46    47    ar
86    46    84    1
87    47    85    1
88    48    49    1
89    50    51    ar
@<TRIPOS>SUBSTRUCTURE
1   ZINC000053261548 1     RESIDUE    1   A     ZIN   1
