@<TRIPOS>MOLECULE
ZINC000000005156
45    47    1     0     0
SMALL
USER_CHARGES
@<TRIPOS>ATOM
1      C1     -0.0187    1.5258    0.0104 C.3      1 ZINC000000005156   -0.1500
2      C2      0.0021   -0.0041    0.0020 C.3      1 ZINC000000005156   -0.1400
3      C3      0.7182   -0.4975   -1.2568 C.3      1 ZINC000000005156    0.1100
4      N4      0.7381   -1.9623   -1.2648 N.am     1 ZINC000000005156   -0.5200
5      C5      1.7862   -2.6311   -0.6753 C.2      1 ZINC000000005156    0.2800
6      C6      1.7960   -4.0207   -0.6881 C.2      1 ZINC000000005156   -0.0900
7      N7      2.9217   -4.4234   -0.0512 N.2      1 ZINC000000005156   -0.3900
8      C8      3.5864   -3.3756    0.3418 C.2      1 ZINC000000005156    0.2400
9      C9      4.8953   -3.4059    1.0881 C.3      1 ZINC000000005156    0.0000
10     H10     4.9966   -4.3382    1.6438 H        1 ZINC000000005156    0.1300
11     C11     6.0839   -3.2228    0.1105 C.3      1 ZINC000000005156   -0.1100
12     C12     7.1892   -2.6564    1.0360 C.3      1 ZINC000000005156   -0.1800
13     C13     6.4499   -1.7310    1.9861 C.2      1 ZINC000000005156    0.3700
14     O14     6.9236   -0.7994    2.5910 O.2      1 ZINC000000005156   -0.4400
15     C15     5.0065   -2.1946    2.0370 C.3      1 ZINC000000005156   -0.1800
16     N16     2.9159   -2.2454   -0.0257 N.pl3    1 ZINC000000005156   -0.5600
17     C17     0.6818   -4.7170   -1.3335 C.2      1 ZINC000000005156    0.5900
18     O18     0.6451   -5.9333   -1.3700 O.2      1 ZINC000000005156   -0.4800
19     N19    -0.3050   -3.9794   -1.8871 N.am     1 ZINC000000005156   -0.5500
20     C20    -1.4314   -4.6526   -2.5385 C.3      1 ZINC000000005156    0.1100
21     C21    -2.5384   -4.9030   -1.5125 C.3      1 ZINC000000005156   -0.1400
22     C22    -3.7148   -5.6060   -2.1928 C.3      1 ZINC000000005156   -0.1500
23     C23    -0.2709   -2.6371   -1.8435 C.2      1 ZINC000000005156    0.7100
24     O24    -1.1794   -2.0103   -2.3536 O.2      1 ZINC000000005156   -0.5300
25     H25     1.0039    1.9031    0.0027 H        1 ZINC000000005156    0.0600
26     H26    -0.5459    1.8868   -0.8726 H        1 ZINC000000005156    0.0600
27     H27    -0.5289    1.8773    0.9072 H        1 ZINC000000005156    0.0600
28     H28     0.5293   -0.3651    0.8851 H        1 ZINC000000005156    0.0600
29     H29    -1.0205   -0.3814    0.0098 H        1 ZINC000000005156    0.0800
30     H30     0.1910   -0.1364   -2.1398 H        1 ZINC000000005156    0.1100
31     H31     1.7408   -0.1202   -1.2645 H        1 ZINC000000005156    0.0900
32     H32     6.3870   -4.1796   -0.3147 H        1 ZINC000000005156    0.1000
33     H33     5.8333   -2.5101   -0.6752 H        1 ZINC000000005156    0.0800
34     H34     7.6728   -3.4620    1.5886 H        1 ZINC000000005156    0.1100
35     H35     7.9232   -2.0981    0.4549 H        1 ZINC000000005156    0.1000
36     H36     4.3466   -1.3961    1.6977 H        1 ZINC000000005156    0.0900
37     H37     4.7450   -2.4875    3.0538 H        1 ZINC000000005156    0.1200
38     H38     3.1951   -1.3323    0.1453 H        1 ZINC000000005156    0.4300
39     H39    -1.8157   -4.0234   -3.3413 H        1 ZINC000000005156    0.1000
40     H40    -1.0965   -5.6042   -2.9513 H        1 ZINC000000005156    0.1000
41     H41    -2.1541   -5.5322   -0.7097 H        1 ZINC000000005156    0.0700
42     H42    -2.8733   -3.9514   -1.0997 H        1 ZINC000000005156    0.0700
43     H43    -4.0991   -4.9768   -2.9957 H        1 ZINC000000005156    0.0600
44     H44    -3.3799   -6.5576   -2.6056 H        1 ZINC000000005156    0.0600
45     H45    -4.5034   -5.7845   -1.4619 H        1 ZINC000000005156    0.0600
@<TRIPOS>BOND
1     1     2     1
2     1     25    1
3     1     26    1
4     1     27    1
5     2     3     1
6     2     28    1
7     2     29    1
8     3     4     1
9     3     30    1
10    3     31    1
11    4     23    am
12    4     5     1
13    5     16    1
14    5     6     2
15    6     7     1
16    6     17    1
17    7     8     2
18    8     9     1
19    8     16    1
20    9     10    1
21    9     15    1
22    9     11    1
23    11    12    1
24    11    32    1
25    11    33    1
26    12    13    1
27    12    34    1
28    12    35    1
29    13    14    2
30    13    15    1
31    15    36    1
32    15    37    1
33    16    38    1
34    17    18    2
35    17    19    am
36    19    20    1
37    19    23    am
38    20    21    1
39    20    39    1
40    20    40    1
41    21    22    1
42    21    41    1
43    21    42    1
44    22    43    1
45    22    44    1
46    22    45    1
47    23    24    2
@<TRIPOS>SUBSTRUCTURE
1   ZINC000000005156 1     RESIDUE    1   A     ZIN   1
