@<TRIPOS>MOLECULE
ZINC000003982522
  42   45    0    0    0
SMALL
USER_CHARGES
NO_NAME
@<TRIPOS>ATOM
    1 O1        0.1458     0.5989     0.1794 O.co2  1 <0>      -0.6800
    2 C2       -0.1000     1.7865     0.0535 C.2    1 <0>       0.4900
    3 O3        0.8108     2.5953     0.0007 O.co2  1 <0>      -0.6900
    4 C4       -1.5294     2.2540    -0.0431 C.3    1 <0>       0.0700
    5 H5       -1.6956     3.0687     0.6616 H      1 <0>       0.0900
    6 C6       -1.8157     2.7420    -1.4706 C.3    1 <0>      -0.1100
    7 C7       -1.6438     1.5624    -2.4071 C.2    1 <0>       0.1000
    8 C8       -1.0030     1.6940    -3.5895 C.2    1 <0>      -0.2500
    9 C9       -0.9000     0.6436    -4.6754 C.3    1 <0>      -0.0900
   10 C10      -0.0709     1.3310    -5.7753 C.3    1 <0>       0.1000
   11 N11       0.2267     2.6702    -5.2575 N.am   1 <0>      -0.5600
   12 C12       0.9665     3.6397    -5.9414 C.ar   1 <0>       0.1800
   13 C13       1.3008     4.8321    -5.3124 C.ar   1 <0>      -0.1600
   14 C14       2.0320     5.7874    -5.9906 C.ar   1 <0>      -0.0900
   15 C15       2.4309     5.5581    -7.2947 C.ar   1 <0>      -0.1600
   16 C16       2.0997     4.3720    -7.9238 C.ar   1 <0>      -0.1000
   17 C17       1.3736     3.4101    -7.2494 C.ar   1 <0>      -0.1700
   18 C18      -0.3102     2.8403    -4.0438 C.2    1 <0>       0.5600
   19 O19      -0.2074     3.8671    -3.3978 O.2    1 <0>      -0.5100
   20 C20      -2.2002     0.2684    -1.9803 C.ar   1 <0>      -0.1400
   21 C21      -2.3534    -0.7792    -2.8902 C.ar   1 <0>      -0.0600
   22 C22      -2.8740    -1.9821    -2.4631 C.ar   1 <0>      -0.1900
   23 C23      -3.2449    -2.1539    -1.1373 C.ar   1 <0>       0.0300
   24 Cl24     -3.8966    -3.6765    -0.6170 Cl     1 <0>      -0.0900
   25 C25      -3.0997    -1.1238    -0.2264 C.ar   1 <0>      -0.2000
   26 C26      -2.5791     0.0943    -0.6368 C.ar   1 <0>       0.3000
   27 N27      -2.4332     1.1406     0.2702 N.pl3  1 <0>      -0.7100
   28 H28      -2.8368     3.1180    -1.5343 H      1 <0>       0.0800
   29 H29      -1.1135     3.5314    -1.7386 H      1 <0>       0.1300
   30 H30      -0.3836    -0.2415    -4.3038 H      1 <0>       0.1000
   31 H31      -1.8896     0.3816    -5.0495 H      1 <0>       0.1000
   32 H32       0.8531     0.7804    -5.9515 H      1 <0>       0.0800
   33 H33      -0.6502     1.4023    -6.6959 H      1 <0>       0.0800
   34 H34       0.9889     5.0122    -4.2942 H      1 <0>       0.1600
   35 H35       2.2922     6.7148    -5.5021 H      1 <0>       0.1200
   36 H36       3.0020     6.3071    -7.8231 H      1 <0>       0.1200
   37 H37       2.4128     4.1959    -8.9424 H      1 <0>       0.1200
   38 H38       1.1157     2.4838    -7.7412 H      1 <0>       0.1200
   39 H39      -2.0660    -0.6479    -3.9230 H      1 <0>       0.1500
   40 H40      -2.9941    -2.7948    -3.1642 H      1 <0>       0.1300
   41 H41      -3.3918    -1.2675     0.8034 H      1 <0>       0.1300
   42 H42      -2.9280     1.1331     1.1044 H      1 <0>       0.4000
@<TRIPOS>BOND
   1    1    2 ar
   2    2    3 ar
   3    2    4 1
   4    4    5 1
   5    4   27 1
   6    4    6 1
   7    6    7 1
   8    6   28 1
   9    6   29 1
  10    7    8 2
  11    7   20 1
  12    8   18 1
  13    8    9 1
  14    9   10 1
  15    9   30 1
  16    9   31 1
  17   10   11 1
  18   10   32 1
  19   10   33 1
  20   11   12 1
  21   11   18 am
  22   12   17 ar
  23   12   13 ar
  24   13   14 ar
  25   13   34 1
  26   14   15 ar
  27   14   35 1
  28   15   16 ar
  29   15   36 1
  30   16   17 ar
  31   16   37 1
  32   17   38 1
  33   18   19 2
  34   20   26 ar
  35   20   21 ar
  36   21   22 ar
  37   21   39 1
  38   22   23 ar
  39   22   40 1
  40   23   24 1
  41   23   25 ar
  42   25   26 ar
  43   25   41 1
  44   26   27 1
  45   27   42 1
