@<TRIPOS>MOLECULE
ZINC000036330812
97    99    1     0     0
SMALL
USER_CHARGES
@<TRIPOS>ATOM
1      C1     -0.0187    1.5258    0.0104 C.3      1 ZINC000036330812   -0.1500
2      C2      0.0021   -0.0041    0.0020 C.3      1 ZINC000036330812   -0.1300
3      C3     -1.4333   -0.5336    0.0129 C.3      1 ZINC000036330812   -0.1200
4      C4     -1.4126   -2.0635    0.0045 C.3      1 ZINC000036330812   -0.1200
5      C5     -2.8479   -2.5931    0.0153 C.3      1 ZINC000036330812   -0.1200
6      C6     -2.8272   -4.1229    0.0069 C.3      1 ZINC000036330812   -0.1400
7      C7     -4.2626   -4.6525    0.0178 C.3      1 ZINC000036330812    0.1100
8      N8     -4.2427   -6.1173    0.0097 N.am     1 ZINC000036330812   -0.6300
9      C9     -4.2207   -6.8566    1.2743 C.3      1 ZINC000036330812    0.1300
10     C10    -5.6553   -7.1335    1.7282 C.3      1 ZINC000036330812   -0.1300
11     C11    -5.6323   -7.9056    3.0490 C.3      1 ZINC000036330812   -0.1100
12     C12    -7.0669   -8.1826    3.5029 C.3      1 ZINC000036330812   -0.1100
13     C13    -7.0439   -8.9546    4.8236 C.3      1 ZINC000036330812   -0.0900
14     S14    -8.7410   -9.2823    5.3606 S.3      1 ZINC000036330812   -0.0300
15     C15    -8.4250  -10.1553    6.8581 C.2      1 ZINC000036330812    0.2000
16     N16    -7.2368  -10.4236    7.3448 N.2      1 ZINC000036330812   -0.4700
17     C17    -7.3651  -11.1028    8.5024 C.2      1 ZINC000036330812    0.0800
18     C18    -6.2579  -11.5881    9.3579 C.ar     1 ZINC000036330812   -0.0600
19     C19    -6.4024  -11.6046   10.7456 C.ar     1 ZINC000036330812   -0.0500
20     C20    -5.3702  -12.0568   11.5395 C.ar     1 ZINC000036330812   -0.2000
21     C21    -4.1858  -12.4957   10.9588 C.ar     1 ZINC000036330812    0.2200
22     N22    -3.1416  -12.9533   11.7656 N.pl3    1 ZINC000036330812   -0.6400
23     C23    -3.2950  -12.9704   13.2224 C.3      1 ZINC000036330812    0.0900
24     C24    -1.8930  -13.4161   11.1550 C.3      1 ZINC000036330812    0.0900
25     C25    -4.0391  -12.4804    9.5765 C.ar     1 ZINC000036330812   -0.2000
26     C26    -5.0704  -12.0351    8.7774 C.ar     1 ZINC000036330812   -0.0400
27     C27    -8.7145  -11.2646    8.7469 C.2      1 ZINC000036330812    0.0500
28     C28    -9.3286  -11.9486    9.9012 C.ar     1 ZINC000036330812   -0.0800
29     C29    -8.8289  -13.1802   10.3328 C.ar     1 ZINC000036330812   -0.0300
30     C30    -9.4051  -13.8159   11.4111 C.ar     1 ZINC000036330812   -0.1900
31     C31   -10.4823  -13.2335   12.0695 C.ar     1 ZINC000036330812    0.2200
32     N32   -11.0638  -13.8811   13.1623 N.pl3    1 ZINC000036330812   -0.6400
33     C33   -10.5384  -15.1722   13.6131 C.3      1 ZINC000036330812    0.0900
34     C34   -12.1989  -13.2691   13.8574 C.3      1 ZINC000036330812    0.0900
35     C35   -10.9820  -12.0080   11.6434 C.ar     1 ZINC000036330812   -0.2000
36     C36   -10.4078  -11.3637   10.5691 C.ar     1 ZINC000036330812   -0.0600
37     N37    -9.3760  -10.6534    7.6969 N.pl3    1 ZINC000036330812   -0.5500
38     C38    -4.2447   -6.7849   -1.1611 C.2      1 ZINC000036330812    0.7100
39     O39    -4.2282   -8.0006   -1.1678 O.2      1 ZINC000036330812   -0.5900
40     N40    -4.2650   -6.1048   -2.3245 N.am     1 ZINC000036330812   -0.7400
41     C41    -4.2672   -6.8304   -3.5972 C.3      1 ZINC000036330812    0.1500
42     C42    -4.8991   -5.9557   -4.6819 C.3      1 ZINC000036330812   -0.1600
43     C43    -2.8290   -7.1726   -3.9916 C.3      1 ZINC000036330812   -0.1600
44     H44     1.0039    1.9031    0.0027 H        1 ZINC000036330812    0.0500
45     H45    -0.5459    1.8868   -0.8726 H        1 ZINC000036330812    0.0500
46     H46    -0.5289    1.8773    0.9072 H        1 ZINC000036330812    0.0500
47     H47     0.5123   -0.3556   -0.8948 H        1 ZINC000036330812    0.0600
48     H48     0.5293   -0.3651    0.8851 H        1 ZINC000036330812    0.0600
49     H49    -1.9435   -0.1821    0.9097 H        1 ZINC000036330812    0.0600
50     H50    -1.9605   -0.1726   -0.8702 H        1 ZINC000036330812    0.0600
51     H51    -0.9024   -2.4150   -0.8923 H        1 ZINC000036330812    0.0600
52     H52    -0.8854   -2.4246    0.8875 H        1 ZINC000036330812    0.0600
53     H53    -3.3581   -2.2415    0.9121 H        1 ZINC000036330812    0.0600
54     H54    -3.3751   -2.2320   -0.8677 H        1 ZINC000036330812    0.0600
55     H55    -2.3170   -4.4744   -0.8899 H        1 ZINC000036330812    0.0600
56     H56    -2.3000   -4.4840    0.8900 H        1 ZINC000036330812    0.0700
57     H57    -4.7728   -4.3010    0.9146 H        1 ZINC000036330812    0.0800
58     H58    -4.7898   -4.2914   -0.8653 H        1 ZINC000036330812    0.0700
59     H59    -3.6952   -7.8012    1.1339 H        1 ZINC000036330812    0.0800
60     H60    -3.7076   -6.2646    2.0323 H        1 ZINC000036330812    0.0800
61     H61    -6.1807   -6.1889    1.8687 H        1 ZINC000036330812    0.0600
62     H62    -6.1683   -7.7255    0.9703 H        1 ZINC000036330812    0.0700
63     H63    -5.1068   -8.8502    2.9085 H        1 ZINC000036330812    0.0700
64     H64    -5.1192   -7.3136    3.8070 H        1 ZINC000036330812    0.0700
65     H65    -7.5923   -7.2379    3.6433 H        1 ZINC000036330812    0.0700
66     H66    -7.5799   -8.7745    2.7449 H        1 ZINC000036330812    0.0700
67     H67    -6.5184   -9.8992    4.6832 H        1 ZINC000036330812    0.1000
68     H68    -6.5308   -8.3627    5.5816 H        1 ZINC000036330812    0.1000
69     H69    -7.3220  -11.2631   11.1973 H        1 ZINC000036330812    0.1200
70     H70    -5.4815  -12.0697   12.6136 H        1 ZINC000036330812    0.1200
71     H71    -3.7117  -13.9287   13.5326 H        1 ZINC000036330812    0.0500
72     H72    -2.3217  -12.8284   13.6919 H        1 ZINC000036330812    0.0700
73     H73    -3.9659  -12.1670   13.5266 H        1 ZINC000036330812    0.0700
74     H74    -1.2047  -12.5769   11.0547 H        1 ZINC000036330812    0.0500
75     H75    -1.4422  -14.1823   11.7858 H        1 ZINC000036330812    0.0700
76     H76    -2.1029  -13.8336   10.1702 H        1 ZINC000036330812    0.0700
77     H77    -3.1179  -12.8219    9.1279 H        1 ZINC000036330812    0.1200
78     H78    -4.9558  -12.0234    7.7036 H        1 ZINC000036330812    0.1200
79     H79    -7.9923  -13.6334    9.8216 H        1 ZINC000036330812    0.1300
80     H80    -9.0197  -14.7679   11.7450 H        1 ZINC000036330812    0.1300
81     H81    -9.7594  -15.0075   14.3575 H        1 ZINC000036330812    0.0500
82     H82   -11.3445  -15.7583   14.0544 H        1 ZINC000036330812    0.0700
83     H83   -10.1205  -15.7113   12.7630 H        1 ZINC000036330812    0.0700
84     H84   -13.1292  -13.6022   13.3972 H        1 ZINC000036330812    0.0500
85     H85   -12.1857  -13.5659   14.9061 H        1 ZINC000036330812    0.0700
86     H86   -12.1265  -12.1838   13.7859 H        1 ZINC000036330812    0.0700
87     H87   -11.8187  -11.5586   12.1575 H        1 ZINC000036330812    0.1200
88     H88   -10.7963  -10.4116   10.2389 H        1 ZINC000036330812    0.1200
89     H89   -10.3368  -10.5949    7.5776 H        1 ZINC000036330812    0.4200
90     H90    -4.2782   -5.1349   -2.3192 H        1 ZINC000036330812    0.3900
91     H91    -4.8432   -7.7496   -3.4904 H        1 ZINC000036330812    0.0900
92     H92    -4.3231   -5.0365   -4.7887 H        1 ZINC000036330812    0.0600
93     H93    -4.9007   -6.4956   -5.6288 H        1 ZINC000036330812    0.0700
94     H94    -5.9236   -5.7119   -4.4009 H        1 ZINC000036330812    0.0600
95     H95    -2.8307   -7.7125   -4.9385 H        1 ZINC000036330812    0.0700
96     H96    -2.2531   -6.2535   -4.0984 H        1 ZINC000036330812    0.0500
97     H97    -2.3789   -7.7958   -3.2189 H        1 ZINC000036330812    0.0600
@<TRIPOS>BOND
1     1     2     1
2     1     44    1
3     1     45    1
4     1     46    1
5     2     3     1
6     2     47    1
7     2     48    1
8     3     4     1
9     3     49    1
10    3     50    1
11    4     5     1
12    4     51    1
13    4     52    1
14    5     6     1
15    5     53    1
16    5     54    1
17    6     7     1
18    6     55    1
19    6     56    1
20    7     8     1
21    7     57    1
22    7     58    1
23    8     9     1
24    8     38    am
25    9     10    1
26    9     59    1
27    9     60    1
28    10    11    1
29    10    61    1
30    10    62    1
31    11    12    1
32    11    63    1
33    11    64    1
34    12    13    1
35    12    65    1
36    12    66    1
37    13    14    1
38    13    67    1
39    13    68    1
40    14    15    1
41    15    37    1
42    15    16    2
43    16    17    1
44    17    18    1
45    17    27    2
46    18    26    ar
47    18    19    ar
48    19    20    ar
49    19    69    1
50    20    21    ar
51    20    70    1
52    21    22    1
53    21    25    ar
54    22    23    1
55    22    24    1
56    23    71    1
57    23    72    1
58    23    73    1
59    24    74    1
60    24    75    1
61    24    76    1
62    25    26    ar
63    25    77    1
64    26    78    1
65    27    28    1
66    27    37    1
67    28    36    ar
68    28    29    ar
69    29    30    ar
70    29    79    1
71    30    31    ar
72    30    80    1
73    31    32    1
74    31    35    ar
75    32    33    1
76    32    34    1
77    33    81    1
78    33    82    1
79    33    83    1
80    34    84    1
81    34    85    1
82    34    86    1
83    35    36    ar
84    35    87    1
85    36    88    1
86    37    89    1
87    38    39    2
88    38    40    am
89    40    41    1
90    40    90    1
91    41    42    1
92    41    43    1
93    41    91    1
94    42    92    1
95    42    93    1
96    42    94    1
97    43    95    1
98    43    96    1
99    43    97    1
@<TRIPOS>SUBSTRUCTURE
1   ZINC000036330812 1     RESIDUE    1   A     ZIN   1
