@<TRIPOS>MOLECULE
ZINC000043197072
84    89    1     0     0
SMALL
USER_CHARGES
@<TRIPOS>ATOM
1      C1      0.1038    1.5570   -0.1468 C.3      1 ZINC000043197072   -0.1300
2      C2      0.1004    0.0501   -0.1628 C.2      1 ZINC000043197072   -0.1300
3      C3     -1.0709   -0.4300   -0.2312 C.2      1 ZINC000043197072   -0.0900
4      C4     -2.3525    0.4091   -0.3170 C.3      1 ZINC000043197072   -0.0800
5      C5     -3.4457   -0.5771   -0.7054 C.3      1 ZINC000043197072   -0.0900
6      H6     -3.4315   -0.7326   -1.7842 H        1 ZINC000043197072    0.0800
7      C7     -2.9905   -1.8739    0.0126 C.3      1 ZINC000043197072   -0.0900
8      H8     -3.1294   -1.7826    1.0899 H        1 ZINC000043197072    0.0800
9      C9     -3.8253   -3.0168   -0.5322 C.3      1 ZINC000043197072   -0.1100
10     C10    -5.2888   -2.7382   -0.1487 C.3      1 ZINC000043197072   -0.1200
11     C11    -5.7587   -1.4039   -0.7311 C.3      1 ZINC000043197072   -0.0700
12     H12    -6.7844   -1.2113   -0.4168 H        1 ZINC000043197072    0.0800
13     C13    -5.7001   -1.4878   -2.2589 C.3      1 ZINC000043197072   -0.1200
14     C14    -6.1760   -0.1704   -2.8699 C.3      1 ZINC000043197072    0.1500
15     H15    -7.2005    0.0276   -2.5547 H        1 ZINC000043197072    0.0900
16     N16    -6.1231   -0.2620   -4.3311 N.am     1 ZINC000043197072   -1.1200
17     S17    -7.2684    0.5029   -5.2506 S.o2     1 ZINC000043197072    2.6100
18     C18    -6.9982    2.2685   -4.9337 C.3      1 ZINC000043197072   -0.6800
19     O19    -6.9183    0.1772   -6.5887 O.2      1 ZINC000043197072   -0.9600
20     O20    -8.5052    0.0799   -4.6932 O.2      1 ZINC000043197072   -0.9500
21     C21    -5.2672    0.9656   -2.3956 C.3      1 ZINC000043197072   -0.1500
22     C22    -5.3286    1.0583   -0.8699 C.3      1 ZINC000043197072   -0.1100
23     C23    -4.8561   -0.2741   -0.2554 C.3      1 ZINC000043197072   -0.0400
24     C24    -4.8923   -0.1780    1.2712 C.3      1 ZINC000043197072   -0.1500
25     C25    -1.4967   -1.8921   -0.3345 C.3      1 ZINC000043197072   -0.0500
26     H26    -1.3470   -2.2603   -1.3495 H        1 ZINC000043197072    0.0800
27     C27    -0.7556   -2.7663    0.6578 C.3      1 ZINC000043197072   -0.1100
28     C28     0.7060   -2.8782    0.3886 C.3      1 ZINC000043197072   -0.1400
29     C29     1.5457   -1.7184    0.8664 C.3      1 ZINC000043197072    0.1200
30     C30     1.4716   -0.5206   -0.1002 C.3      1 ZINC000043197072   -0.0500
31     O31     1.1357   -1.3268    2.1989 O.3      1 ZINC000043197072   -0.3100
32     C32     1.9306   -2.1164    3.0784 C.3      1 ZINC000043197072    0.0700
33     H33     1.5982   -3.1539    3.0431 H        1 ZINC000043197072    0.0800
34     C34     2.0451   -1.6648    4.5208 C.3      1 ZINC000043197072   -0.1200
35     C35     3.0153   -2.6353    5.2185 C.3      1 ZINC000043197072   -0.1100
36     H36     2.5673   -3.6286    5.2486 H        1 ZINC000043197072    0.1000
37     C37     3.2644   -2.1538    6.6492 C.3      1 ZINC000043197072   -0.1500
38     C38     4.3471   -2.7092    4.4774 C.3      1 ZINC000043197072   -0.0100
39     N39     4.1647   -3.0480    3.0537 N.4      1 ZINC000043197072   -0.4900
40     H40     5.0620   -3.0890    2.5940 H        1 ZINC000043197072    0.4300
41     H41     3.6969   -3.9381    2.9709 H        1 ZINC000043197072    0.4300
42     C42     3.3497   -1.9986    2.4549 C.3      1 ZINC000043197072   -0.0300
43     H43     3.7831   -1.0169    2.6457 H        1 ZINC000043197072    0.1600
44     C44     3.0257   -2.1837    0.9687 C.3      1 ZINC000043197072   -0.1300
45     H45     3.6712   -1.5571    0.3533 H        1 ZINC000043197072    0.1200
46     C46     3.1598   -3.6536    0.5658 C.3      1 ZINC000043197072   -0.1800
47     H47     1.1309    1.9174   -0.0917 H        1 ZINC000043197072    0.0500
48     H48    -0.3641    1.9310   -1.0575 H        1 ZINC000043197072    0.0600
49     H49    -0.4531    1.9124    0.7202 H        1 ZINC000043197072    0.0600
50     H50    -2.5753    0.8598    0.6501 H        1 ZINC000043197072    0.0800
51     H51    -2.2496    1.1804   -1.0803 H        1 ZINC000043197072    0.0700
52     H52    -3.7285   -3.0624   -1.6170 H        1 ZINC000043197072    0.0700
53     H53    -3.4989   -3.9581   -0.0900 H        1 ZINC000043197072    0.0600
54     H54    -5.9193   -3.5395   -0.5338 H        1 ZINC000043197072    0.0600
55     H55    -5.3750   -2.7055    0.9374 H        1 ZINC000043197072    0.0700
56     H56    -4.6743   -1.6825   -2.5718 H        1 ZINC000043197072    0.0800
57     H57    -6.3422   -2.2990   -2.6019 H        1 ZINC000043197072    0.0700
58     H58    -5.4173   -0.7706   -4.7599 H        1 ZINC000043197072    0.4200
59     H59    -5.9865    2.5409   -5.2344 H        1 ZINC000043197072    0.1300
60     H60    -7.7174    2.8546   -5.5058 H        1 ZINC000043197072    0.1300
61     H61    -7.1282    2.4709   -3.8706 H        1 ZINC000043197072    0.1300
62     H62    -4.2419    0.7656   -2.7071 H        1 ZINC000043197072    0.0800
63     H63    -5.6034    1.9065   -2.8312 H        1 ZINC000043197072    0.0700
64     H64    -4.6875    1.8717   -0.5300 H        1 ZINC000043197072    0.0700
65     H65    -6.3552    1.2529   -0.5595 H        1 ZINC000043197072    0.0700
66     H66    -5.9111    0.0301    1.5980 H        1 ZINC000043197072    0.0600
67     H67    -4.5578   -1.1213    1.7027 H        1 ZINC000043197072    0.0600
68     H68    -4.2338    0.6259    1.6003 H        1 ZINC000043197072    0.0600
69     H69    -0.8946   -2.3532    1.6569 H        1 ZINC000043197072    0.0700
70     H70    -1.1911   -3.7653    0.6342 H        1 ZINC000043197072    0.0700
71     H71     1.0732   -3.7861    0.8672 H        1 ZINC000043197072    0.0700
72     H72     0.8484   -2.9831   -0.6870 H        1 ZINC000043197072    0.0800
73     H73     1.7669   -0.8494   -1.0966 H        1 ZINC000043197072    0.0900
74     H74     2.1633    0.2514    0.2371 H        1 ZINC000043197072    0.0800
75     H75     2.4399   -0.6497    4.5627 H        1 ZINC000043197072    0.0900
76     H76     1.0679   -1.7053    5.0021 H        1 ZINC000043197072    0.1000
77     H77     2.3201   -2.1260    7.1929 H        1 ZINC000043197072    0.0800
78     H78     3.9511   -2.8375    7.1483 H        1 ZINC000043197072    0.0700
79     H79     3.6996   -1.1547    6.6257 H        1 ZINC000043197072    0.0700
80     H80     4.8485   -1.7442    4.5513 H        1 ZINC000043197072    0.1300
81     H81     4.9724   -3.4693    4.9459 H        1 ZINC000043197072    0.1400
82     H82     2.5844   -4.2729    1.2539 H        1 ZINC000043197072    0.0700
83     H83     2.7815   -3.7886   -0.4475 H        1 ZINC000043197072    0.1000
84     H84     4.2090   -3.9466    0.6040 H        1 ZINC000043197072    0.0700
@<TRIPOS>BOND
1     1     2     1
2     1     47    1
3     1     48    1
4     1     49    1
5     2     30    1
6     2     3     2
7     3     25    1
8     3     4     1
9     4     5     1
10    4     50    1
11    4     51    1
12    5     6     1
13    5     23    1
14    5     7     1
15    7     8     1
16    7     9     1
17    7     25    1
18    9     10    1
19    9     52    1
20    9     53    1
21    10    11    1
22    10    54    1
23    10    55    1
24    11    12    1
25    11    23    1
26    11    13    1
27    13    14    1
28    13    56    1
29    13    57    1
30    14    15    1
31    14    16    1
32    14    21    1
33    16    17    am
34    16    58    1
35    17    18    1
36    17    19    2
37    17    20    2
38    18    59    1
39    18    60    1
40    18    61    1
41    21    22    1
42    21    62    1
43    21    63    1
44    22    23    1
45    22    64    1
46    22    65    1
47    23    24    1
48    24    66    1
49    24    67    1
50    24    68    1
51    25    26    1
52    25    27    1
53    27    28    1
54    27    69    1
55    27    70    1
56    28    29    1
57    28    71    1
58    28    72    1
59    29    44    1
60    29    30    1
61    29    31    1
62    30    73    1
63    30    74    1
64    31    32    1
65    32    33    1
66    32    42    1
67    32    34    1
68    34    35    1
69    34    75    1
70    34    76    1
71    35    36    1
72    35    37    1
73    35    38    1
74    37    77    1
75    37    78    1
76    37    79    1
77    38    39    1
78    38    80    1
79    38    81    1
80    39    40    1
81    39    41    1
82    39    42    1
83    42    43    1
84    42    44    1
85    44    45    1
86    44    46    1
87    46    82    1
88    46    83    1
89    46    84    1
@<TRIPOS>SUBSTRUCTURE
1   ZINC000043197072 1     RESIDUE    1   A     ZIN   1
