@<TRIPOS>MOLECULE
ZINC000001996374
  37   39    0    0    0
SMALL
USER_CHARGES
NO_NAME
@<TRIPOS>ATOM
    1 O1       -0.0164     1.3557     0.0095 O.3    1 <0>      -0.4800
    2 C2        0.0021    -0.0041     0.0020 C.ar   1 <0>       0.1000
    3 C3        0.0059    -0.6929    -1.1970 C.ar   1 <0>      -0.1200
    4 C4        0.0327    -2.0815    -1.2107 C.ar   1 <0>      -0.0900
    5 C5        0.0695    -2.7798    -0.0266 C.ar   1 <0>      -0.0800
    6 C6        0.0494    -2.0927     1.1812 C.ar   1 <0>      -0.1100
    7 C7        0.0231    -0.7105     1.2013 C.ar   1 <0>       0.1000
    8 O8        0.0072    -0.0446     2.3869 O.3    1 <0>      -0.4800
    9 C9        0.1654    -4.2853     0.0281 C.3    1 <0>      -0.0100
   10 H10       1.2152    -4.5758     0.0674 H      1 <0>       0.1100
   11 C11      -0.5317    -4.7807     1.2689 C.ar   1 <0>      -0.1100
   12 C12      -1.8775    -4.5250     1.4544 C.ar   1 <0>      -0.1000
   13 C13      -2.5169    -4.9795     2.5926 C.ar   1 <0>      -0.1100
   14 C14      -1.8107    -5.6900     3.5451 C.ar   1 <0>      -0.1000
   15 C15      -0.4652    -5.9465     3.3592 C.ar   1 <0>      -0.1100
   16 C16       0.1733    -5.4957     2.2190 C.ar   1 <0>      -0.1100
   17 C17      -0.4856    -4.9211    -1.1997 C.3    1 <0>      -0.0200
   18 N18       0.5411    -5.1173    -2.2290 N.4    1 <0>      -0.5100
   19 H19       1.2745    -5.7048    -1.8614 H      1 <0>       0.4300
   20 H20       0.1267    -5.5641    -3.0332 H      1 <0>       0.4300
   21 C21       1.1081    -3.8302    -2.6327 C.3    1 <0>      -0.0100
   22 C22       0.0014    -2.7748    -2.5481 C.3    1 <0>      -0.1100
   23 H23       0.8616     1.7610     0.0033 H      1 <0>       0.4000
   24 H24      -0.0125    -0.1476    -2.1290 H      1 <0>       0.1400
   25 H25       0.0585    -2.6423     2.1108 H      1 <0>       0.1400
   26 H26       0.8859     0.1648     2.7322 H      1 <0>       0.4000
   27 H27      -2.4292    -3.9699     0.7102 H      1 <0>       0.1200
   28 H28      -3.5682    -4.7791     2.7378 H      1 <0>       0.1300
   29 H29      -2.3102    -6.0445     4.4346 H      1 <0>       0.1300
   30 H30       0.0867    -6.5014     4.1035 H      1 <0>       0.1300
   31 H31       1.2246    -5.6961     2.0737 H      1 <0>       0.1200
   32 H32      -0.9183    -5.8836    -0.9268 H      1 <0>       0.1400
   33 H33      -1.2655    -4.2625    -1.5821 H      1 <0>       0.1500
   34 H34       1.9249    -3.5615    -1.9628 H      1 <0>       0.1300
   35 H35       1.4770    -3.8954    -3.6563 H      1 <0>       0.1400
   36 H36      -0.9668    -3.2578    -2.6802 H      1 <0>       0.1000
   37 H37       0.1458    -2.0382    -3.3384 H      1 <0>       0.1200
@<TRIPOS>BOND
   1    1    2 1
   2    1   23 1
   3    2    7 ar
   4    2    3 ar
   5    3    4 ar
   6    3   24 1
   7    4   22 1
   8    4    5 ar
   9    5    6 ar
  10    5    9 1
  11    6    7 ar
  12    6   25 1
  13    7    8 1
  14    8   26 1
  15    9   10 1
  16    9   11 1
  17    9   17 1
  18   11   16 ar
  19   11   12 ar
  20   12   13 ar
  21   12   27 1
  22   13   14 ar
  23   13   28 1
  24   14   15 ar
  25   14   29 1
  26   15   16 ar
  27   15   30 1
  28   16   31 1
  29   17   18 1
  30   17   32 1
  31   17   33 1
  32   18   19 1
  33   18   20 1
  34   18   21 1
  35   21   22 1
  36   21   34 1
  37   21   35 1
  38   22   36 1
  39   22   37 1
