@<TRIPOS>MOLECULE
ZINC000254010487
56    59    1     0     0
SMALL
USER_CHARGES
@<TRIPOS>ATOM
1      C1      1.1610    0.8916    0.3567 C.3      1 ZINC000254010487   -0.2200
2      C2      0.0021   -0.0041    0.0020 C.2      1 ZINC000254010487    0.3400
3      O3     -0.9248   -0.1237    0.7668 O.2      1 ZINC000254010487   -0.4400
4      C4     -0.0002   -0.7505   -1.3071 C.3      1 ZINC000254010487    0.0900
5      O5      0.6153    0.0407   -2.3256 O.3      1 ZINC000254010487   -0.5300
6      C6     -1.4443   -1.1101   -1.7114 C.3      1 ZINC000254010487   -0.1500
7      C7     -1.5098   -2.6517   -1.7755 C.3      1 ZINC000254010487   -0.1200
8      C8     -0.3603   -3.1139   -0.8319 C.3      1 ZINC000254010487   -0.0800
9      H9     -0.0428   -4.1372   -1.0324 H        1 ZINC000254010487    0.1000
10     C10    -0.8728   -2.9378    0.5996 C.3      1 ZINC000254010487   -0.1300
11     H11    -1.3854   -1.9797    0.6867 H        1 ZINC000254010487    0.1300
12     C12    -1.8512   -4.0733    0.9303 C.3      1 ZINC000254010487   -0.1100
13     C13    -2.5970   -3.6859    2.2085 C.3      1 ZINC000254010487   -0.0600
14     H14    -3.1731   -4.5406    2.5631 H        1 ZINC000254010487    0.0900
15     C15    -3.5466   -2.5244    1.9085 C.3      1 ZINC000254010487   -0.1500
16     C16    -1.6249   -3.2663    3.2719 C.2      1 ZINC000254010487   -0.0400
17     C17    -2.0746   -3.1528    4.5430 C.2      1 ZINC000254010487   -0.2300
18     C18    -1.0594   -2.6814    5.5244 C.2      1 ZINC000254010487    0.4200
19     O19    -0.9561   -3.1566    6.6398 O.2      1 ZINC000254010487   -0.4500
20     C20    -0.1797   -1.5838    5.0358 C.2      1 ZINC000254010487   -0.2300
21     C21     0.2479   -1.7186    3.7619 C.2      1 ZINC000254010487   -0.0600
22     C22    -0.1893   -2.9525    3.0236 C.3      1 ZINC000254010487   -0.0300
23     C23     0.5768   -4.0910    3.7003 C.3      1 ZINC000254010487   -0.1500
24     C24     0.2779   -2.9903    1.5962 C.3      1 ZINC000254010487    0.1700
25     F25     0.9815   -4.1824    1.3940 F        1 ZINC000254010487   -0.1900
26     C26     1.2327   -1.8267    1.3046 C.3      1 ZINC000254010487    0.0400
27     H27     0.6861   -0.8845    1.3433 H        1 ZINC000254010487    0.1000
28     O28     2.2847   -1.8131    2.2716 O.3      1 ZINC000254010487   -0.5400
29     C29     1.8192   -2.0250   -0.0932 C.3      1 ZINC000254010487   -0.1500
30     C30     0.7398   -2.0861   -1.1556 C.3      1 ZINC000254010487   -0.0300
31     C31     1.3847   -2.4228   -2.5016 C.3      1 ZINC000254010487   -0.1300
32     H32     1.9147    0.3152    0.8932 H        1 ZINC000254010487    0.1000
33     H33     1.5968    1.3001   -0.5550 H        1 ZINC000254010487    0.1000
34     H34     0.8096    1.7073    0.9886 H        1 ZINC000254010487    0.0900
35     H35     0.1820    0.8916   -2.4784 H        1 ZINC000254010487    0.3800
36     H36    -2.1455   -0.7369   -0.9650 H        1 ZINC000254010487    0.0900
37     H37    -1.6760   -0.6852   -2.6881 H        1 ZINC000254010487    0.0800
38     H38    -2.4722   -3.0093   -1.4096 H        1 ZINC000254010487    0.0800
39     H39    -1.3328   -3.0002   -2.7931 H        1 ZINC000254010487    0.0800
40     H40    -2.5606   -4.1998    0.1124 H        1 ZINC000254010487    0.0800
41     H41    -1.3009   -5.0005    1.0900 H        1 ZINC000254010487    0.0700
42     H42    -4.2636   -2.8289    1.1461 H        1 ZINC000254010487    0.0600
43     H43    -4.0793   -2.2465    2.8179 H        1 ZINC000254010487    0.0600
44     H44    -2.9734   -1.6704    1.5477 H        1 ZINC000254010487    0.0700
45     H45    -3.0911   -3.3858    4.8237 H        1 ZINC000254010487    0.1500
46     H46     0.0956   -0.7422    5.6541 H        1 ZINC000254010487    0.1500
47     H47     0.8756   -0.9740    3.2951 H        1 ZINC000254010487    0.1500
48     H48     0.3094   -4.1315    4.7562 H        1 ZINC000254010487    0.0600
49     H49     0.3184   -5.0365    3.2236 H        1 ZINC000254010487    0.0700
50     H50     1.6482   -3.9160    3.6032 H        1 ZINC000254010487    0.0800
51     H51     2.9258   -1.1003    2.1454 H        1 ZINC000254010487    0.3800
52     H52     2.4936   -1.1986   -0.3175 H        1 ZINC000254010487    0.0800
53     H53     2.3815   -2.9586   -0.1148 H        1 ZINC000254010487    0.0900
54     H54     1.8770   -3.3931   -2.4360 H        1 ZINC000254010487    0.0600
55     H55     0.6166   -2.4565   -3.2742 H        1 ZINC000254010487    0.0600
56     H56     2.1201   -1.6586   -2.7534 H        1 ZINC000254010487    0.0700
@<TRIPOS>BOND
1     1     2     1
2     1     32    1
3     1     33    1
4     1     34    1
5     2     3     2
6     2     4     1
7     4     30    1
8     4     5     1
9     4     6     1
10    5     35    1
11    6     7     1
12    6     36    1
13    6     37    1
14    7     8     1
15    7     38    1
16    7     39    1
17    8     9     1
18    8     30    1
19    8     10    1
20    10    11    1
21    10    24    1
22    10    12    1
23    12    13    1
24    12    40    1
25    12    41    1
26    13    14    1
27    13    15    1
28    13    16    1
29    15    42    1
30    15    43    1
31    15    44    1
32    16    22    1
33    16    17    2
34    17    18    1
35    17    45    1
36    18    19    2
37    18    20    1
38    20    21    2
39    20    46    1
40    21    22    1
41    21    47    1
42    22    23    1
43    22    24    1
44    23    48    1
45    23    49    1
46    23    50    1
47    24    25    1
48    24    26    1
49    26    27    1
50    26    28    1
51    26    29    1
52    28    51    1
53    29    30    1
54    29    52    1
55    29    53    1
56    30    31    1
57    31    54    1
58    31    55    1
59    31    56    1
@<TRIPOS>SUBSTRUCTURE
1   ZINC000254010487 1     RESIDUE    1   A     ZIN   1
