@<TRIPOS>MOLECULE
ZINC000068250418
  47   49    0    0    0
SMALL
USER_CHARGES
NO_NAME
@<TRIPOS>ATOM
    1 C1       -0.0187     1.5258     0.0104 C.3    1 <0>      -0.1800
    2 C2        0.0021    -0.0041     0.0020 C.3    1 <0>       0.0300
    3 H3        0.5000    -0.3635    -0.8985 H      1 <0>       0.1400
    4 C4       -1.4373    -0.5486     0.0584 C.3    1 <0>      -0.1400
    5 C5       -1.4939    -1.4078     1.3424 C.3    1 <0>      -0.1500
    6 C6       -0.0045    -1.7512     1.5954 C.3    1 <0>      -0.0100
    7 N7        0.7072    -0.5050     1.2018 N.4    1 <0>      -0.3900
    8 H8        0.6529     0.1760     1.9443 H      1 <0>       0.4300
    9 C9        2.1111    -0.8013     0.8869 C.3    1 <0>       0.0000
   10 C10       2.8351    -1.2500     2.1579 C.3    1 <0>      -0.1500
   11 C11       4.2973    -1.5586     1.8300 C.3    1 <0>       0.0600
   12 O12       4.9735    -1.9777     3.0171 O.3    1 <0>      -0.3100
   13 C13       6.2900    -2.2921     2.8987 C.ar   1 <0>       0.1300
   14 C14       6.9177    -2.1927     1.6643 C.ar   1 <0>      -0.2100
   15 C15       8.2537    -2.5110     1.5410 C.ar   1 <0>      -0.0400
   16 C16       8.9741    -2.9330     2.6574 C.ar   1 <0>      -0.0600
   17 C17      10.4113    -3.2757     2.5283 C.2    1 <0>       0.1000
   18 N18      11.0050    -3.1757     1.3622 N.2    1 <0>      -0.2200
   19 N19      12.2462    -3.4597     1.1978 N.am   1 <0>      -0.4400
   20 C20      13.0185    -3.8801     2.2172 C.2    1 <0>       0.4800
   21 O21      14.1955    -4.1425     2.0291 O.2    1 <0>      -0.5200
   22 C22      12.4567    -4.0149     3.5063 C.2    1 <0>      -0.1700
   23 C23      11.1386    -3.7034     3.6639 C.2    1 <0>      -0.0700
   24 C24       8.3410    -3.0317     3.8955 C.ar   1 <0>      -0.0600
   25 C25       7.0062    -2.7066     4.0136 C.ar   1 <0>      -0.1400
   26 H26       1.0039     1.9031     0.0027 H      1 <0>       0.0800
   27 H27      -0.5459     1.8868    -0.8726 H      1 <0>       0.1100
   28 H28      -0.5289     1.8773     0.9072 H      1 <0>       0.0800
   29 H29      -2.1505     0.2733     0.1214 H      1 <0>       0.1100
   30 H30      -1.6438    -1.1634    -0.8176 H      1 <0>       0.1000
   31 H31      -1.9038    -0.8333     2.1731 H      1 <0>       0.1000
   32 H32      -2.0757    -2.3142     1.1746 H      1 <0>       0.1200
   33 H33       0.1651    -1.9754     2.6485 H      1 <0>       0.1400
   34 H34       0.3100    -2.5852     0.9680 H      1 <0>       0.1300
   35 H35       2.1566    -1.5965     0.1429 H      1 <0>       0.1300
   36 H36       2.5916     0.0938     0.4919 H      1 <0>       0.1300
   37 H37       2.7896    -0.4548     2.9020 H      1 <0>       0.1000
   38 H38       2.3546    -2.1451     2.5529 H      1 <0>       0.1000
   39 H39       4.3428    -2.3538     1.0859 H      1 <0>       0.0700
   40 H40       4.7778    -0.6635     1.4349 H      1 <0>       0.0700
   41 H41       6.3590    -1.8661     0.7997 H      1 <0>       0.1300
   42 H42       8.7414    -2.4339     0.5805 H      1 <0>       0.1400
   43 H43      12.6381    -3.3693     0.3151 H      1 <0>       0.4400
   44 H44      13.0535    -4.3501     4.3416 H      1 <0>       0.1700
   45 H45      10.6604    -3.7888     4.6285 H      1 <0>       0.1600
   46 H46       8.8966    -3.3584     4.7621 H      1 <0>       0.1400
   47 H47       6.5152    -2.7829     4.9725 H      1 <0>       0.1400
@<TRIPOS>BOND
   1    1    2 1
   2    1   26 1
   3    1   27 1
   4    1   28 1
   5    2    3 1
   6    2    7 1
   7    2    4 1
   8    4    5 1
   9    4   29 1
  10    4   30 1
  11    5    6 1
  12    5   31 1
  13    5   32 1
  14    6    7 1
  15    6   33 1
  16    6   34 1
  17    7    8 1
  18    7    9 1
  19    9   10 1
  20    9   35 1
  21    9   36 1
  22   10   11 1
  23   10   37 1
  24   10   38 1
  25   11   12 1
  26   11   39 1
  27   11   40 1
  28   12   13 1
  29   13   25 ar
  30   13   14 ar
  31   14   15 ar
  32   14   41 1
  33   15   16 ar
  34   15   42 1
  35   16   17 1
  36   16   24 ar
  37   17   23 1
  38   17   18 2
  39   18   19 1
  40   19   20 am
  41   19   43 1
  42   20   21 2
  43   20   22 1
  44   22   23 2
  45   22   44 1
  46   23   45 1
  47   24   25 ar
  48   24   46 1
  49   25   47 1
