@<TRIPOS>MOLECULE
ZINC000006716826
81    85    1     0     0
SMALL
USER_CHARGES
@<TRIPOS>ATOM
1      C1      1.1094    2.2947    0.0742 C.3      1 ZINC000006716826   -0.1500
2      C2      0.8900    0.7828    0.1570 C.3      1 ZINC000006716826   -0.1300
3      C3      1.3933    0.1233   -1.1286 C.3      1 ZINC000006716826   -0.1000
4      C4      1.1739   -1.3887   -1.0457 C.3      1 ZINC000006716826   -0.0700
5      C5      1.6697   -2.0383   -2.3119 C.2      1 ZINC000006716826    0.3600
6      N6      2.1974   -1.3818   -3.2885 N.2      1 ZINC000006716826   -0.5000
7      C7      2.5481   -2.3535   -4.3245 C.3      1 ZINC000006716826    0.0400
8      C8      1.8112   -2.0550   -5.6373 C.3      1 ZINC000006716826   -0.0900
9      C9      2.8614   -1.3010   -6.4936 C.3      1 ZINC000006716826   -0.1200
10     C10     4.1836   -2.0246   -6.1335 C.3      1 ZINC000006716826   -0.1200
11     C11     4.0487   -2.3332   -4.6258 C.3      1 ZINC000006716826   -0.0900
12     C12     2.1233   -3.6851   -3.7579 C.2      1 ZINC000006716826    0.5100
13     O13     2.2225   -4.7776   -4.2744 O.2      1 ZINC000006716826   -0.4800
14     N14     1.6115   -3.3870   -2.5415 N.am     1 ZINC000006716826   -0.5800
15     C15     1.0635   -4.3699   -1.6035 C.3      1 ZINC000006716826    0.1600
16     C16     2.1621   -4.8700   -0.7012 C.ar     1 ZINC000006716826   -0.1200
17     C17     2.9087   -5.9738   -1.0713 C.ar     1 ZINC000006716826   -0.1000
18     C18     3.9158   -6.4364   -0.2484 C.ar     1 ZINC000006716826   -0.0500
19     C19     4.1799   -5.7890    0.9566 C.ar     1 ZINC000006716826   -0.0600
20     C20     5.2616   -6.2814    1.8451 C.ar     1 ZINC000006716826    0.0500
21     C21     4.9479   -7.0031    2.9947 C.ar     1 ZINC000006716826   -0.1400
22     C22     5.9581   -7.4588    3.8177 C.ar     1 ZINC000006716826   -0.0800
23     C23     7.2797   -7.2001    3.5027 C.ar     1 ZINC000006716826   -0.1400
24     C24     7.5969   -6.4839    2.3624 C.ar     1 ZINC000006716826   -0.0300
25     C25     6.5952   -6.0286    1.5295 C.ar     1 ZINC000006716826   -0.6100
26     S26     7.0010   -5.1167    0.0775 S.o2     1 ZINC000006716826    2.6100
27     O27     6.1573   -3.9733    0.0729 O.2      1 ZINC000006716826   -1.0100
28     O28     8.4192   -5.0362    0.0375 O.2      1 ZINC000006716826   -1.0300
29     N29     6.5480   -6.0374   -1.2222 N.pl3    1 ZINC000006716826   -1.0500
30     C30     6.8442   -5.6119   -2.5130 C.2      1 ZINC000006716826    0.3400
31     N31     7.3854   -4.4729   -2.8596 N.2      1 ZINC000006716826   -0.4900
32     O32     7.5184   -4.3932   -4.0588 O.3      1 ZINC000006716826    0.0500
33     C33     7.0731   -5.4935   -4.6827 C.2      1 ZINC000006716826   -0.0600
34     C34     7.0779   -5.7507   -6.1676 C.3      1 ZINC000006716826   -0.0600
35     C35     6.6251   -6.3300   -3.7194 C.2      1 ZINC000006716826   -0.2200
36     C36     6.0237   -7.7016   -3.8872 C.3      1 ZINC000006716826   -0.0500
37     C37     3.4247   -4.6770    1.3244 C.ar     1 ZINC000006716826   -0.0400
38     C38     3.7049   -3.9712    2.6261 C.3      1 ZINC000006716826    0.1100
39     O39     2.7324   -2.9442    2.8299 O.3      1 ZINC000006716826   -0.3800
40     C40     2.9691   -2.1411    3.9880 C.3      1 ZINC000006716826    0.0600
41     C41     1.8078   -1.1630    4.1765 C.3      1 ZINC000006716826   -0.1500
42     C42     2.4237   -4.2199    0.4916 C.ar     1 ZINC000006716826   -0.0900
43     H43     2.1726    2.5014   -0.0480 H        1 ZINC000006716826    0.0500
44     H44     0.5610    2.6953   -0.7785 H        1 ZINC000006716826    0.0500
45     H45     0.7508    2.7646    0.9900 H        1 ZINC000006716826    0.0500
46     H46     1.4383    0.3823    1.0096 H        1 ZINC000006716826    0.0600
47     H47    -0.1732    0.5761    0.2791 H        1 ZINC000006716826    0.0600
48     H48     0.8450    0.5238   -1.9812 H        1 ZINC000006716826    0.0700
49     H49     2.4565    0.3300   -1.2507 H        1 ZINC000006716826    0.0700
50     H50     1.7223   -1.7892   -0.1931 H        1 ZINC000006716826    0.1000
51     H51     0.1107   -1.5954   -0.9236 H        1 ZINC000006716826    0.0900
52     H52     1.5128   -2.9818   -6.1273 H        1 ZINC000006716826    0.0700
53     H53     0.9430   -1.4223   -5.4529 H        1 ZINC000006716826    0.0700
54     H54     2.6408   -1.4062   -7.5558 H        1 ZINC000006716826    0.0700
55     H55     2.9074   -0.2495   -6.2102 H        1 ZINC000006716826    0.0700
56     H56     4.2808   -2.9480   -6.7045 H        1 ZINC000006716826    0.0700
57     H57     5.0373   -1.3716   -6.3143 H        1 ZINC000006716826    0.0700
58     H58     4.5379   -1.5555   -4.0392 H        1 ZINC000006716826    0.0800
59     H59     4.4889   -3.3048   -4.4015 H        1 ZINC000006716826    0.0700
60     H60     0.2838   -3.9027   -1.0020 H        1 ZINC000006716826    0.0900
61     H61     0.6410   -5.2067   -2.1596 H        1 ZINC000006716826    0.0900
62     H62     2.7031   -6.4749   -2.0056 H        1 ZINC000006716826    0.1200
63     H63     4.4978   -7.2989   -0.5380 H        1 ZINC000006716826    0.1400
64     H64     3.9161   -7.2053    3.2418 H        1 ZINC000006716826    0.1300
65     H65     5.7160   -8.0180    4.7094 H        1 ZINC000006716826    0.1200
66     H66     8.0670   -7.5581    4.1496 H        1 ZINC000006716826    0.1300
67     H67     8.6306   -6.2847    2.1211 H        1 ZINC000006716826    0.1400
68     H68     7.5065   -4.8917   -6.6837 H        1 ZINC000006716826    0.0700
69     H69     7.6746   -6.6376   -6.3808 H        1 ZINC000006716826    0.0700
70     H70     6.0559   -5.9089   -6.5122 H        1 ZINC000006716826    0.0800
71     H71     6.8016   -8.4561   -3.7707 H        1 ZINC000006716826    0.0500
72     H72     5.2527   -7.8550   -3.1321 H        1 ZINC000006716826    0.0700
73     H73     5.5817   -7.7855   -4.8800 H        1 ZINC000006716826    0.0500
74     H74     3.6541   -4.6875    3.4460 H        1 ZINC000006716826    0.0600
75     H75     4.7000   -3.5277    2.5921 H        1 ZINC000006716826    0.0700
76     H76     3.0494   -2.7832    4.8652 H        1 ZINC000006716826    0.0500
77     H77     3.8968   -1.5834    3.8599 H        1 ZINC000006716826    0.0500
78     H78     1.6723   -0.5801    3.2655 H        1 ZINC000006716826    0.0700
79     H79     0.8954   -1.7194    4.3910 H        1 ZINC000006716826    0.0600
80     H80     2.0285   -0.4928    5.0073 H        1 ZINC000006716826    0.0700
81     H81     1.8381   -3.3580    0.7755 H        1 ZINC000006716826    0.1300
@<TRIPOS>BOND
1     1     2     1
2     1     43    1
3     1     44    1
4     1     45    1
5     2     3     1
6     2     46    1
7     2     47    1
8     3     4     1
9     3     48    1
10    3     49    1
11    4     5     1
12    4     50    1
13    4     51    1
14    5     14    1
15    5     6     2
16    6     7     1
17    7     11    1
18    7     8     1
19    7     12    1
20    8     9     1
21    8     52    1
22    8     53    1
23    9     10    1
24    9     54    1
25    9     55    1
26    10    11    1
27    10    56    1
28    10    57    1
29    11    58    1
30    11    59    1
31    12    13    2
32    12    14    am
33    14    15    1
34    15    16    1
35    15    60    1
36    15    61    1
37    16    42    ar
38    16    17    ar
39    17    18    ar
40    17    62    1
41    18    19    ar
42    18    63    1
43    19    20    1
44    19    37    ar
45    20    25    ar
46    20    21    ar
47    21    22    ar
48    21    64    1
49    22    23    ar
50    22    65    1
51    23    24    ar
52    23    66    1
53    24    25    ar
54    24    67    1
55    25    26    1
56    26    27    2
57    26    28    2
58    26    29    1
59    29    30    1
60    30    35    1
61    30    31    2
62    31    32    1
63    32    33    1
64    33    34    1
65    33    35    2
66    34    68    1
67    34    69    1
68    34    70    1
69    35    36    1
70    36    71    1
71    36    72    1
72    36    73    1
73    37    38    1
74    37    42    ar
75    38    39    1
76    38    74    1
77    38    75    1
78    39    40    1
79    40    41    1
80    40    76    1
81    40    77    1
82    41    78    1
83    41    79    1
84    41    80    1
85    42    81    1
@<TRIPOS>SUBSTRUCTURE
1   ZINC000006716826 1     RESIDUE    1   A     ZIN   1
