@<TRIPOS>MOLECULE
ZINC000004097425
28    27    1     0     0
SMALL
USER_CHARGES
@<TRIPOS>ATOM
1      C1      4.1220   -3.7805   -3.5349 C.3      1 ZINC000004097425   -0.1600
2      C2      3.1949   -3.2609   -2.4343 C.3      1 ZINC000004097425   -0.1200
3      C3      3.5284   -3.9595   -1.1146 C.3      1 ZINC000004097425   -0.1400
4      C4      2.6013   -3.4399   -0.0140 C.3      1 ZINC000004097425    0.0700
5      N5      2.9205   -4.1089    1.2496 N.pl3    1 ZINC000004097425   -0.6200
6      C6      2.2135   -3.8017    2.3876 C.cat    1 ZINC000004097425    0.7300
7      N7      1.1580   -3.0428    2.3134 N.pl3    1 ZINC000004097425   -0.7400
8      H8      0.7205   -2.7398    3.1244 H        1 ZINC000004097425    0.4500
9      H9      0.8092   -2.7805    1.4472 H        1 ZINC000004097425    0.4600
10     N10     2.6225   -4.2978    3.6092 N.pl3    1 ZINC000004097425   -0.6700
11     C11     2.8074   -3.4451    4.6694 C.cat    1 ZINC000004097425    0.7600
12     N12     2.7231   -2.1291    4.4876 N.pl3    1 ZINC000004097425   -0.7900
13     N13     3.0711   -3.9344    5.8789 N.pl3    1 ZINC000004097425   -0.7300
14     H14     3.1325   -4.8933    6.0114 H        1 ZINC000004097425    0.4600
15     H15     3.2017   -3.3320    6.6279 H        1 ZINC000004097425    0.4600
16     H16     3.9845   -4.8558   -3.6482 H        1 ZINC000004097425    0.0600
17     H17     3.8845   -3.2828   -4.4751 H        1 ZINC000004097425    0.0700
18     H18     5.1577   -3.5731   -3.2655 H        1 ZINC000004097425    0.0600
19     H19     3.3325   -2.1856   -2.3210 H        1 ZINC000004097425    0.0700
20     H20     2.1593   -3.4683   -2.7037 H        1 ZINC000004097425    0.0700
21     H21     3.3908   -5.0349   -1.2279 H        1 ZINC000004097425    0.0900
22     H22     4.5640   -3.7521   -0.8452 H        1 ZINC000004097425    0.0900
23     H23     2.7388   -2.3646    0.0993 H        1 ZINC000004097425    0.1200
24     H24     1.5656   -3.6473   -0.2834 H        1 ZINC000004097425    0.1100
25     H25     3.6309   -4.7686    1.2832 H        1 ZINC000004097425    0.4500
26     H26     2.7791   -5.2488    3.7187 H        1 ZINC000004097425    0.4800
27     H27     2.2381   -1.7748    3.7260 H        1 ZINC000004097425    0.4400
28     H28     3.1468   -1.5245    5.1168 H        1 ZINC000004097425    0.4600
@<TRIPOS>BOND
1     1     2     1
2     1     16    1
3     1     17    1
4     1     18    1
5     2     3     1
6     2     19    1
7     2     20    1
8     3     4     1
9     3     21    1
10    3     22    1
11    4     5     1
12    4     23    1
13    4     24    1
14    5     6     ar
15    5     25    1
16    6     7     ar
17    6     10    ar
18    7     8     1
19    7     9     1
20    10    11    ar
21    10    26    1
22    11    12    ar
23    11    13    ar
24    12    27    1
25    12    28    1
26    13    14    1
27    13    15    1
@<TRIPOS>SUBSTRUCTURE
1   ZINC000004097425 1     RESIDUE    1   A     ZIN   1
