@<TRIPOS>MOLECULE
ZINC000073069242
49    52    1     0     0
SMALL
USER_CHARGES
@<TRIPOS>ATOM
1      C1     -0.0953   -2.2753    2.5691 C.3      1 ZINC000073069242   -0.1800
2      C2      0.1045   -0.7648    2.4297 C.3      1 ZINC000073069242    0.1200
3      H3      0.7621   -0.4106    3.2235 H        1 ZINC000073069242    0.1000
4      O4      0.6932   -0.4774    1.1597 O.3      1 ZINC000073069242   -0.2900
5      C5      2.0475   -0.5636    1.0734 C.ar     1 ZINC000073069242    0.1000
6      C6      2.6928   -0.1830   -0.1011 C.ar     1 ZINC000073069242   -0.0900
7      C7      4.0522   -0.2617   -0.2073 C.ar     1 ZINC000073069242   -0.1000
8      C8      4.8100   -0.7267    0.8646 C.ar     1 ZINC000073069242    0.1000
9      N9      6.1565   -0.9164    1.0584 N.pl3    1 ZINC000073069242   -0.5100
10     N10     6.3729   -1.4147    2.3469 N.2      1 ZINC000073069242   -0.2400
11     C11     5.2257   -1.5478    2.9740 C.2      1 ZINC000073069242    0.1300
12     C12     5.0367   -2.0416    4.3477 C.2      1 ZINC000073069242   -0.1100
13     C13     6.1001   -2.4074    5.0820 C.2      1 ZINC000073069242   -0.0100
14     C14     5.9107   -2.9023    6.4586 C.2      1 ZINC000073069242   -0.2200
15     C15     6.9034   -3.3055    7.3263 C.2      1 ZINC000073069242    0.0800
16     N16     6.3059   -3.6814    8.4750 N.pl3    1 ZINC000073069242   -0.3600
17     C17     6.9871   -4.1809    9.6721 C.3      1 ZINC000073069242    0.1300
18     C18     6.5857   -3.3309   10.8793 C.3      1 ZINC000073069242    0.0700
19     O19     7.2501   -3.8180   12.0469 O.3      1 ZINC000073069242   -0.5700
20     N20     4.9242   -3.5134    8.3291 N.2      1 ZINC000073069242   -0.2900
21     C21     4.6796   -3.0454    7.1350 C.2      1 ZINC000073069242    0.0700
22     C22     4.1665   -1.1130    2.0539 C.ar     1 ZINC000073069242   -0.1300
23     C23     2.7767   -1.0224    2.1519 C.ar     1 ZINC000073069242   -0.1400
24     C24    -1.2286   -0.0700    2.5342 C.ar     1 ZINC000073069242   -0.0300
25     C25    -2.1335   -0.1073    1.4832 C.ar     1 ZINC000073069242   -0.0600
26     Cl26   -1.7474   -0.9589    0.0206 Cl       1 ZINC000073069242   -0.0200
27     C27    -3.3475    0.5426    1.6159 C.ar     1 ZINC000073069242    0.1200
28     N28    -3.6478    1.1915    2.7237 N.ar     1 ZINC000073069242   -0.4500
29     C29    -2.8129    1.2483    3.7427 C.ar     1 ZINC000073069242    0.1200
30     C30    -1.5830    0.6176    3.6860 C.ar     1 ZINC000073069242   -0.0700
31     Cl31   -0.4910    0.6977    5.0331 Cl       1 ZINC000073069242   -0.0300
32     H32     0.8689   -2.7779    2.4935 H        1 ZINC000073069242    0.0800
33     H33    -0.5444   -2.4945    3.5378 H        1 ZINC000073069242    0.0800
34     H34    -0.7529   -2.6296    1.7753 H        1 ZINC000073069242    0.0800
35     H35     2.1118    0.1780   -0.9368 H        1 ZINC000073069242    0.1400
36     H36     4.5399    0.0366   -1.1235 H        1 ZINC000073069242    0.1400
37     H37     6.8488   -0.7334    0.4041 H        1 ZINC000073069242    0.4400
38     H38     4.0430   -2.1098    4.7651 H        1 ZINC000073069242    0.1300
39     H39     7.0938   -2.3393    4.6646 H        1 ZINC000073069242    0.1300
40     H40     7.9641   -3.3182    7.1232 H        1 ZINC000073069242    0.1800
41     H41     6.7011   -5.2181    9.8468 H        1 ZINC000073069242    0.1000
42     H42     8.0658   -4.1208    9.5280 H        1 ZINC000073069242    0.1100
43     H43     6.8717   -2.2937   10.7046 H        1 ZINC000073069242    0.0500
44     H44     5.5069   -3.3910   11.0234 H        1 ZINC000073069242    0.0600
45     H45     7.0419   -3.3251   12.8524 H        1 ZINC000073069242    0.3900
46     H46     3.7046   -2.8143    6.7322 H        1 ZINC000073069242    0.1900
47     H47     2.2758   -1.3113    3.0640 H        1 ZINC000073069242    0.1300
48     H48    -4.0574    0.5184    0.8024 H        1 ZINC000073069242    0.1800
49     H49    -3.0945    1.7897    4.6338 H        1 ZINC000073069242    0.1800
@<TRIPOS>BOND
1     1     2     1
2     1     32    1
3     1     33    1
4     1     34    1
5     2     3     1
6     2     4     1
7     2     24    1
8     4     5     1
9     5     23    ar
10    5     6     ar
11    6     7     ar
12    6     35    1
13    7     8     ar
14    7     36    1
15    8     22    ar
16    8     9     1
17    9     10    1
18    9     37    1
19    10    11    2
20    11    12    1
21    11    22    1
22    12    13    2
23    12    38    1
24    13    14    1
25    13    39    1
26    14    21    1
27    14    15    2
28    15    16    1
29    15    40    1
30    16    17    1
31    16    20    1
32    17    18    1
33    17    41    1
34    17    42    1
35    18    19    1
36    18    43    1
37    18    44    1
38    19    45    1
39    20    21    2
40    21    46    1
41    22    23    ar
42    23    47    1
43    24    30    ar
44    24    25    ar
45    25    26    1
46    25    27    ar
47    27    28    ar
48    27    48    1
49    28    29    ar
50    29    30    ar
51    29    49    1
52    30    31    1
@<TRIPOS>SUBSTRUCTURE
1   ZINC000073069242 1     RESIDUE    1   A     ZIN   1
