@<TRIPOS>MOLECULE
ZINC000000006860
  31   33    0    0    0
SMALL
USER_CHARGES
NO_NAME
@<TRIPOS>ATOM
    1 O1        0.2032     1.1454    -0.2778 O.3    1 <0>      -0.5000
    2 C2        0.2434    -0.2112    -0.2093 C.ar   1 <0>       0.1100
    3 C3        0.3560    -0.9631    -1.3695 C.ar   1 <0>      -0.1300
    4 C4        0.3963    -2.3410    -1.2948 C.ar   1 <0>      -0.0900
    5 C5        0.3247    -2.9764    -0.0662 C.ar   1 <0>      -0.1000
    6 C6        0.3475    -4.4506     0.2772 C.3    1 <0>      -0.0800
    7 C7        0.6776    -4.5096     1.7837 C.3    1 <0>      -0.1200
    8 C8        0.1522    -3.1501     2.2916 C.3    1 <0>      -0.0400
    9 H9       -0.8754    -3.2486     2.6416 H      1 <0>       0.1000
   10 C10       1.0464    -2.6215     3.4150 C.3    1 <0>      -0.0600
   11 C11       0.9455    -3.5350     4.6093 C.2    1 <0>       0.0700
   12 C12       0.0099    -3.4908     5.5769 C.2    1 <0>       0.0000
   13 N13       0.2731    -4.4712     6.4537 N.pl3  1 <0>      -0.4700
   14 H14      -0.2452    -4.6664     7.2500 H      1 <0>       0.4700
   15 C15       1.3363    -5.1212     6.0661 C.cat  1 <0>       0.3000
   16 N16       1.7837    -4.5728     4.9159 N.pl3  1 <0>      -0.5100
   17 C17       0.2124    -2.2288     1.0920 C.ar   1 <0>      -0.0900
   18 C18       0.1775    -0.8474     1.0207 C.ar   1 <0>      -0.1300
   19 H19       1.0723     1.5673    -0.2354 H      1 <0>       0.4000
   20 H20       0.4117    -0.4715    -2.3295 H      1 <0>       0.1400
   21 H21       0.4836    -2.9261    -2.1984 H      1 <0>       0.1300
   22 H22      -0.6277    -4.8986     0.0859 H      1 <0>       0.0900
   23 H23       1.1188    -4.9614    -0.2992 H      1 <0>       0.0800
   24 H24       0.1493    -5.3331     2.2642 H      1 <0>       0.0800
   25 H25       1.7528    -4.5929     1.9418 H      1 <0>       0.0700
   26 H26       2.0800    -2.5865     3.0706 H      1 <0>       0.1000
   27 H27       0.7228    -1.6192     3.6958 H      1 <0>       0.1200
   28 H28      -0.8088    -2.7890     5.6366 H      1 <0>       0.2200
   29 H29       1.7821    -5.9611     6.5781 H      1 <0>       0.2700
   30 H30       2.5582    -4.8571     4.4058 H      1 <0>       0.4600
   31 H31       0.0954    -0.2633     1.9255 H      1 <0>       0.1300
@<TRIPOS>BOND
   1    1    2 1
   2    1   19 1
   3    2   18 ar
   4    2    3 ar
   5    3    4 ar
   6    3   20 1
   7    4    5 ar
   8    4   21 1
   9    5   17 ar
  10    5    6 1
  11    6    7 1
  12    6   22 1
  13    6   23 1
  14    7    8 1
  15    7   24 1
  16    7   25 1
  17    8    9 1
  18    8   10 1
  19    8   17 1
  20   10   11 1
  21   10   26 1
  22   10   27 1
  23   11   16 1
  24   11   12 2
  25   12   13 1
  26   12   28 1
  27   13   14 1
  28   13   15 ar
  29   15   16 ar
  30   15   29 1
  31   16   30 1
  32   17   18 ar
  33   18   31 1
