@<TRIPOS>MOLECULE
ZINC000001547604
43    45    1     0     0
SMALL
USER_CHARGES
@<TRIPOS>ATOM
1      Cl1     0.0021   -0.0041    0.0020 Cl       1 ZINC000001547604   -0.0400
2      C2     -0.0215    1.7317    0.0116 C.2      1 ZINC000001547604   -0.1900
3      C3     -1.1266    2.5133    0.0322 C.2      1 ZINC000001547604    0.0700
4      N4     -0.7196    3.8010    0.0338 N.pl3    1 ZINC000001547604   -0.3600
5      C5     -1.5893    4.9797    0.0541 C.3      1 ZINC000001547604    0.1300
6      C6     -1.2085    5.8743    1.2354 C.3      1 ZINC000001547604   -0.1300
7      C7     -2.1168    7.1053    1.2566 C.3      1 ZINC000001547604   -0.1200
8      C8     -1.7359    7.9998    2.4380 C.3      1 ZINC000001547604    0.0600
9      N9     -2.6080    9.1818    2.4583 N.3      1 ZINC000001547604   -0.5400
10     C10    -2.7267    9.7718    1.1177 C.3      1 ZINC000001547604    0.0500
11     C11    -3.7033   10.9492    1.1661 C.3      1 ZINC000001547604    0.0700
12     N12    -3.2207   11.9432    2.1349 N.3      1 ZINC000001547604   -0.4600
13     C13    -4.0424   13.0568    2.1541 C.ar     1 ZINC000001547604    0.4900
14     N14    -5.0997   13.0942    1.3565 N.ar     1 ZINC000001547604   -0.5500
15     C15    -5.9054   14.1432    1.3506 C.ar     1 ZINC000001547604    0.1700
16     C16    -5.6322   15.2104    2.1918 C.ar     1 ZINC000001547604   -0.2600
17     C17    -4.5180   15.1383    3.0131 C.ar     1 ZINC000001547604    0.1700
18     N18    -3.7560   14.0578    2.9736 N.ar     1 ZINC000001547604   -0.5300
19     C19    -3.1021   11.3531    3.4756 C.3      1 ZINC000001547604    0.0700
20     C20    -2.1254   10.1757    3.4272 C.3      1 ZINC000001547604    0.0600
21     N21     0.6810    3.8105    0.0134 N.2      1 ZINC000001547604   -0.2800
22     C22     1.0986    2.5705    0.0054 C.2      1 ZINC000001547604    0.0600
23     H23    -2.1501    2.1688    0.0449 H        1 ZINC000001547604    0.1800
24     H24    -1.4697    5.5355   -0.8759 H        1 ZINC000001547604    0.0900
25     H25    -2.6274    4.6636    0.1575 H        1 ZINC000001547604    0.1000
26     H26    -1.3281    5.3184    2.1654 H        1 ZINC000001547604    0.0700
27     H27    -0.1705    6.1904    1.1320 H        1 ZINC000001547604    0.0800
28     H28    -1.9972    7.6611    0.3267 H        1 ZINC000001547604    0.0700
29     H29    -3.1548    6.7892    1.3601 H        1 ZINC000001547604    0.0800
30     H30    -1.8555    7.4440    3.3680 H        1 ZINC000001547604    0.0800
31     H31    -0.6979    8.3159    2.3346 H        1 ZINC000001547604    0.0400
32     H32    -1.7493   10.1235    0.7873 H        1 ZINC000001547604    0.0500
33     H33    -3.0976    9.0201    0.4210 H        1 ZINC000001547604    0.0900
34     H34    -3.7708   11.4065    0.1789 H        1 ZINC000001547604    0.0900
35     H35    -4.6876   10.5930    1.4702 H        1 ZINC000001547604    0.0600
36     H36    -6.7655   14.1681    0.6979 H        1 ZINC000001547604    0.1700
37     H37    -6.2733   16.0793    2.2068 H        1 ZINC000001547604    0.1500
38     H38    -4.2770   15.9529    3.6800 H        1 ZINC000001547604    0.1700
39     H39    -2.7311   12.1049    4.1723 H        1 ZINC000001547604    0.1000
40     H40    -4.0794   11.0015    3.8060 H        1 ZINC000001547604    0.0500
41     H41    -2.0579    9.7184    4.4144 H        1 ZINC000001547604    0.0900
42     H42    -1.1411   10.5320    3.1231 H        1 ZINC000001547604    0.0500
43     H43     2.1297    2.2497   -0.0102 H        1 ZINC000001547604    0.1900
@<TRIPOS>BOND
1     1     2     1
2     2     22    1
3     2     3     2
4     3     4     1
5     3     23    1
6     4     5     1
7     4     21    1
8     5     6     1
9     5     24    1
10    5     25    1
11    6     7     1
12    6     26    1
13    6     27    1
14    7     8     1
15    7     28    1
16    7     29    1
17    8     9     1
18    8     30    1
19    8     31    1
20    9     20    1
21    9     10    1
22    10    11    1
23    10    32    1
24    10    33    1
25    11    12    1
26    11    34    1
27    11    35    1
28    12    13    1
29    12    19    1
30    13    18    ar
31    13    14    ar
32    14    15    ar
33    15    16    ar
34    15    36    1
35    16    17    ar
36    16    37    1
37    17    18    ar
38    17    38    1
39    19    20    1
40    19    39    1
41    19    40    1
42    20    41    1
43    20    42    1
44    21    22    2
45    22    43    1
@<TRIPOS>SUBSTRUCTURE
1   ZINC000001547604 1     RESIDUE    1   A     ZIN   1
