@<TRIPOS>MOLECULE
ZINC000003831614
48    49    1     0     0
SMALL
USER_CHARGES
@<TRIPOS>ATOM
1      C1     -0.0187    1.5258    0.0104 C.3      1 ZINC000003831614   -0.1400
2      C2      0.0021   -0.0041    0.0020 C.3      1 ZINC000003831614    0.0900
3      H3      0.5122   -0.3557   -0.8947 H        1 ZINC000003831614    0.0700
4      C4     -1.4334   -0.5339    0.0133 C.3      1 ZINC000003831614   -0.1400
5      C5     -1.6789   -1.3676   -1.2458 C.3      1 ZINC000003831614   -0.1100
6      C6     -3.1403   -1.8189   -1.2828 C.3      1 ZINC000003831614   -0.1100
7      C7     -3.2012   -3.3474   -1.3175 C.3      1 ZINC000003831614    0.1000
8      H8     -2.2599   -3.7399   -1.7022 H        1 ZINC000003831614    0.0600
9      O9     -4.2730   -3.7623   -2.1667 O.3      1 ZINC000003831614   -0.5800
10     C10    -3.4358   -3.8804    0.0973 C.3      1 ZINC000003831614   -0.1500
11     C11    -2.0897   -4.0815    0.7964 C.3      1 ZINC000003831614   -0.1300
12     C12    -2.2506   -5.0990    1.9276 C.3      1 ZINC000003831614   -0.1200
13     C13    -1.0867   -4.9554    2.9105 C.3      1 ZINC000003831614   -0.1000
14     C14     0.1826   -4.5771    2.1444 C.3      1 ZINC000003831614   -0.1500
15     C15     1.0454   -3.6943    3.0090 C.ar     1 ZINC000003831614    0.0500
16     C16     1.6595   -4.2112    4.1128 C.ar     1 ZINC000003831614   -0.2700
17     C17     2.4588   -3.4039    4.9170 C.ar     1 ZINC000003831614    0.3100
18     O18     3.0643   -3.9289    6.0121 O.3      1 ZINC000003831614   -0.7000
19     C19     2.6392   -2.0648    4.6031 C.ar     1 ZINC000003831614   -0.3100
20     C20     2.0212   -1.5274    3.4864 C.ar     1 ZINC000003831614    0.2000
21     O21     2.1957   -0.2192    3.1735 O.3      1 ZINC000003831614   -0.4900
22     C22     1.2141   -2.3444    2.6797 C.ar     1 ZINC000003831614   -0.3100
23     C23     0.5452   -1.7858    1.4945 C.2      1 ZINC000003831614    0.5200
24     O24    -0.1517   -2.4983    0.7988 O.2      1 ZINC000003831614   -0.5200
25     O25     0.7041   -0.4853    1.1787 O.3      1 ZINC000003831614   -0.3400
26     H26     1.0039    1.9031    0.0027 H        1 ZINC000003831614    0.0600
27     H27    -0.5459    1.8868   -0.8726 H        1 ZINC000003831614    0.0700
28     H28    -0.5289    1.8773    0.9072 H        1 ZINC000003831614    0.0600
29     H29    -1.5845   -1.1554    0.8958 H        1 ZINC000003831614    0.0900
30     H30    -2.1299    0.3043    0.0355 H        1 ZINC000003831614    0.0600
31     H31    -1.4622   -0.7655   -2.1281 H        1 ZINC000003831614    0.0500
32     H32    -1.0287   -2.2424   -1.2346 H        1 ZINC000003831614    0.0800
33     H33    -3.6556   -1.4548   -0.3939 H        1 ZINC000003831614    0.0700
34     H34    -3.6227   -1.4157   -2.1732 H        1 ZINC000003831614    0.0700
35     H35    -4.3710   -4.7218   -2.2361 H        1 ZINC000003831614    0.3700
36     H36    -4.0344   -3.1645    0.6606 H        1 ZINC000003831614    0.0600
37     H37    -3.9634   -4.8327    0.0439 H        1 ZINC000003831614    0.0600
38     H38    -1.3582   -4.4501    0.0774 H        1 ZINC000003831614    0.0600
39     H39    -1.7484   -3.1316    1.2079 H        1 ZINC000003831614    0.1100
40     H40    -3.1908   -4.9177    2.4486 H        1 ZINC000003831614    0.0500
41     H41    -2.2535   -6.1068    1.5124 H        1 ZINC000003831614    0.0500
42     H42    -1.3184   -4.1766    3.6370 H        1 ZINC000003831614    0.0600
43     H43    -0.9299   -5.9013    3.4290 H        1 ZINC000003831614    0.0500
44     H44     0.7333   -5.4811    1.8845 H        1 ZINC000003831614    0.0500
45     H45    -0.0881   -4.0418    1.2343 H        1 ZINC000003831614    0.1600
46     H46     1.5247   -5.2530    4.3636 H        1 ZINC000003831614    0.1000
47     H47     3.2607   -1.4418    5.2292 H        1 ZINC000003831614    0.1100
48     H48     2.9497   -0.0510    2.5919 H        1 ZINC000003831614    0.3800
@<TRIPOS>BOND
1     1     2     1
2     1     26    1
3     1     27    1
4     1     28    1
5     2     3     1
6     2     25    1
7     2     4     1
8     4     5     1
9     4     29    1
10    4     30    1
11    5     6     1
12    5     31    1
13    5     32    1
14    6     7     1
15    6     33    1
16    6     34    1
17    7     8     1
18    7     9     1
19    7     10    1
20    9     35    1
21    10    11    1
22    10    36    1
23    10    37    1
24    11    12    1
25    11    38    1
26    11    39    1
27    12    13    1
28    12    40    1
29    12    41    1
30    13    14    1
31    13    42    1
32    13    43    1
33    14    15    1
34    14    44    1
35    14    45    1
36    15    22    ar
37    15    16    ar
38    16    17    ar
39    16    46    1
40    17    18    1
41    17    19    ar
42    19    20    ar
43    19    47    1
44    20    21    1
45    20    22    ar
46    21    48    1
47    22    23    1
48    23    24    2
49    23    25    1
@<TRIPOS>SUBSTRUCTURE
1   ZINC000003831614 1     RESIDUE    1   A     ZIN   1
