@<TRIPOS>MOLECULE
ZINC000065747838
57    61    1     0     0
SMALL
USER_CHARGES
@<TRIPOS>ATOM
1      N1     -0.0204    1.6518    0.0111 N.am     1 ZINC000065747838   -1.2700
2      S2      0.0021   -0.0041    0.0020 S.o2     1 ZINC000065747838    2.8000
3      O3     -0.5249   -0.4194    1.2546 O.2      1 ZINC000065747838   -0.9900
4      O4     -0.5488   -0.4060   -1.2447 O.2      1 ZINC000065747838   -0.9500
5      O5      1.4618   -0.4348   -0.0142 O.3      1 ZINC000065747838   -0.7300
6      C6      2.1269   -0.2819    1.2413 C.3      1 ZINC000065747838    0.0700
7      C7      3.5797   -0.7429    1.1082 C.3      1 ZINC000065747838   -0.0900
8      H8      3.6143   -1.7584    0.7138 H        1 ZINC000065747838    0.1200
9      C9      4.2785   -0.6854    2.4780 C.3      1 ZINC000065747838   -0.1300
10     C10     5.4534    0.3036    2.3322 C.3      1 ZINC000065747838    0.1200
11     H11     5.1568    1.2995    2.6612 H        1 ZINC000065747838    0.1300
12     N12     6.6138   -0.1627    3.0952 N.pl3    1 ZINC000065747838   -0.4200
13     C13     7.2652   -1.3511    2.8876 C.2      1 ZINC000065747838    0.0700
14     C14     8.2833   -1.4698    3.7555 C.2      1 ZINC000065747838   -0.1300
15     C15     8.2790   -0.2625    4.5795 C.ar     1 ZINC000065747838   -0.2400
16     C16     9.0609    0.2203    5.6397 C.ar     1 ZINC000065747838    0.5300
17     N17    10.1259   -0.5152    6.1276 N.pl3    1 ZINC000065747838   -0.6600
18     C18    10.9302    0.0066    7.2354 C.3      1 ZINC000065747838    0.1600
19     H19    10.3031    0.5749    7.9223 H        1 ZINC000065747838    0.1100
20     C20    11.6294   -1.1500    7.9808 C.3      1 ZINC000065747838   -0.1200
21     C21    12.9733   -0.5134    8.3941 C.3      1 ZINC000065747838   -0.0900
22     C22    13.2272    0.5744    7.3726 C.ar     1 ZINC000065747838   -0.0700
23     C23    14.3926    1.2492    7.0512 C.ar     1 ZINC000065747838   -0.1000
24     C24    14.3855    2.2194    6.0677 C.ar     1 ZINC000065747838   -0.0900
25     C25    13.2117    2.5181    5.4020 C.ar     1 ZINC000065747838   -0.1100
26     C26    12.0478    1.8459    5.7213 C.ar     1 ZINC000065747838   -0.1000
27     C27    12.0514    0.8753    6.7068 C.ar     1 ZINC000065747838   -0.1500
28     N28     8.7525    1.4033    6.1635 N.ar     1 ZINC000065747838   -0.5700
29     H29     9.2821    1.7534    6.8969 H        1 ZINC000065747838    0.4400
30     C30     7.7367    2.1090    5.7003 C.ar     1 ZINC000065747838    0.3900
31     N31     6.9773    1.6958    4.7088 N.ar     1 ZINC000065747838   -0.4800
32     C32     7.2100    0.5262    4.1153 C.ar     1 ZINC000065747838    0.3500
33     C33     5.7634    0.3040    0.8146 C.3      1 ZINC000065747838   -0.1700
34     C34     4.3540    0.2125    0.1769 C.3      1 ZINC000065747838    0.1100
35     H35     3.8795    1.1936    0.1577 H        1 ZINC000065747838    0.0700
36     O36     4.4367   -0.3276   -1.1436 O.3      1 ZINC000065747838   -0.5400
37     H37     0.8130    2.1481    0.0058 H        1 ZINC000065747838    0.4100
38     H38    -0.8669    2.1253    0.0177 H        1 ZINC000065747838    0.4300
39     H39     2.1041    0.7663    1.5393 H        1 ZINC000065747838    0.0900
40     H40     1.6219   -0.8852    1.9957 H        1 ZINC000065747838    0.1100
41     H41     3.5826   -0.3291    3.2375 H        1 ZINC000065747838    0.1000
42     H42     4.6529   -1.6729    2.7478 H        1 ZINC000065747838    0.1000
43     H43     6.9993   -2.0823    2.1386 H        1 ZINC000065747838    0.2000
44     H44     8.9723   -2.2980    3.8304 H        1 ZINC000065747838    0.1700
45     H45    10.3403   -1.3765    5.7363 H        1 ZINC000065747838    0.4400
46     H46    11.0558   -1.4482    8.8584 H        1 ZINC000065747838    0.1000
47     H47    11.7908   -1.9982    7.3155 H        1 ZINC000065747838    0.0900
48     H48    12.8970   -0.0838    9.3930 H        1 ZINC000065747838    0.1000
49     H49    13.7700   -1.2566    8.3610 H        1 ZINC000065747838    0.0900
50     H50    15.3101    1.0166    7.5712 H        1 ZINC000065747838    0.1300
51     H51    15.2964    2.7436    5.8191 H        1 ZINC000065747838    0.1400
52     H52    13.2043    3.2765    4.6331 H        1 ZINC000065747838    0.1300
53     H53    11.1309    2.0801    5.2009 H        1 ZINC000065747838    0.1100
54     H54     7.5204    3.0646    6.1546 H        1 ZINC000065747838    0.2500
55     H55     6.2606    1.2289    0.5222 H        1 ZINC000065747838    0.0900
56     H56     6.3665   -0.5624    0.5433 H        1 ZINC000065747838    0.1000
57     H57     4.9621    0.2066   -1.7548 H        1 ZINC000065747838    0.3900
@<TRIPOS>BOND
1     1     2     am
2     1     37    1
3     1     38    1
4     2     3     2
5     2     4     2
6     2     5     1
7     5     6     1
8     6     7     1
9     6     39    1
10    6     40    1
11    7     8     1
12    7     34    1
13    7     9     1
14    9     10    1
15    9     41    1
16    9     42    1
17    10    11    1
18    10    12    1
19    10    33    1
20    12    32    1
21    12    13    1
22    13    14    2
23    13    43    1
24    14    15    1
25    14    44    1
26    15    32    ar
27    15    16    ar
28    16    17    1
29    16    28    ar
30    17    18    1
31    17    45    1
32    18    19    1
33    18    27    1
34    18    20    1
35    20    21    1
36    20    46    1
37    20    47    1
38    21    22    1
39    21    48    1
40    21    49    1
41    22    27    ar
42    22    23    ar
43    23    24    ar
44    23    50    1
45    24    25    ar
46    24    51    1
47    25    26    ar
48    25    52    1
49    26    27    ar
50    26    53    1
51    28    29    1
52    28    30    ar
53    30    31    ar
54    30    54    1
55    31    32    ar
56    33    34    1
57    33    55    1
58    33    56    1
59    34    35    1
60    34    36    1
61    36    57    1
@<TRIPOS>SUBSTRUCTURE
1   ZINC000065747838 1     RESIDUE    1   A     ZIN   1
