@<TRIPOS>MOLECULE
ZINC000000007633
44    47    1     0     0
SMALL
USER_CHARGES
@<TRIPOS>ATOM
1      F1      0.0021   -0.0041    0.0020 F        1 ZINC000000007633   -0.1300
2      C2     -0.0162    1.3468    0.0094 C.ar     1 ZINC000000007633    0.1100
3      C3     -1.2267    2.0209    0.0304 C.ar     1 ZINC000000007633   -0.1500
4      C4     -1.2506    3.4001    0.0385 C.ar     1 ZINC000000007633   -0.0600
5      C5     -0.0538    4.1161    0.0256 C.ar     1 ZINC000000007633   -0.0400
6      C6     -0.0739    5.5975    0.0347 C.2      1 ZINC000000007633    0.0900
7      C7      0.8402    6.4255    0.6614 C.2      1 ZINC000000007633    0.0200
8      C8      2.0190    6.0111    1.4464 C.ar     1 ZINC000000007633    0.0300
9      C9      3.2593    6.6391    1.2697 C.ar     1 ZINC000000007633   -0.1800
10     C10     4.3336    6.2201    2.0248 C.ar     1 ZINC000000007633    0.1100
11     N11     4.2053    5.2431    2.9031 N.ar     1 ZINC000000007633   -0.4800
12     C12     3.0561    4.6248    3.1011 C.ar     1 ZINC000000007633    0.1200
13     C13     1.9284    4.9824    2.3937 C.ar     1 ZINC000000007633   -0.1400
14     N14     0.4288    7.7140    0.4047 N.pl3    1 ZINC000000007633   -0.4500
15     C15     1.0841    8.9416    0.8628 C.3      1 ZINC000000007633    0.1200
16     C16     1.4957    9.7846   -0.3476 C.3      1 ZINC000000007633   -0.1600
17     C17     2.1072   11.1005    0.1384 C.3      1 ZINC000000007633    0.0000
18     N18     1.1204   11.8373    0.9370 N.4      1 ZINC000000007633   -0.5100
19     H19     1.5081   12.7277    1.2108 H        1 ZINC000000007633    0.4400
20     H20     0.2889   11.9889    0.3859 H        1 ZINC000000007633    0.4300
21     C21     0.7747   11.0660    2.1370 C.3      1 ZINC000000007633    0.0000
22     C22     0.1119    9.7488    1.7279 C.3      1 ZINC000000007633   -0.1600
23     C23    -0.6894    7.6374   -0.3476 C.2      1 ZINC000000007633    0.2000
24     N24    -0.9813    6.3859   -0.5698 N.2      1 ZINC000000007633   -0.4600
25     C25     1.1620    3.4331    0.0045 C.ar     1 ZINC000000007633   -0.0700
26     C26     1.1755    2.0536    0.0019 C.ar     1 ZINC000000007633   -0.1500
27     H27    -2.1529    1.4656    0.0400 H        1 ZINC000000007633    0.1400
28     H28    -2.1945    3.9247    0.0545 H        1 ZINC000000007633    0.1400
29     H29     3.3717    7.4389    0.5526 H        1 ZINC000000007633    0.1300
30     H30     5.2937    6.6975    1.8957 H        1 ZINC000000007633    0.1600
31     H31     2.9975    3.8305    3.8306 H        1 ZINC000000007633    0.1700
32     H32     0.9914    4.4721    2.5610 H        1 ZINC000000007633    0.1400
33     H33     1.9675    8.6866    1.4482 H        1 ZINC000000007633    0.1200
34     H34     2.2305    9.2382   -0.9389 H        1 ZINC000000007633    0.1200
35     H35     0.6187    9.9950   -0.9598 H        1 ZINC000000007633    0.1000
36     H36     2.9842   10.8889    0.7501 H        1 ZINC000000007633    0.1400
37     H37     2.4015   11.7030   -0.7209 H        1 ZINC000000007633    0.1400
38     H38     1.6801   10.8552    2.7062 H        1 ZINC000000007633    0.1400
39     H39     0.0853   11.6431    2.7532 H        1 ZINC000000007633    0.1400
40     H40    -0.7938    9.9585    1.1588 H        1 ZINC000000007633    0.1000
41     H41    -0.1423    9.1768    2.6202 H        1 ZINC000000007633    0.1200
42     H42    -1.2532    8.4829   -0.7133 H        1 ZINC000000007633    0.2100
43     H43     2.0913    3.9831   -0.0060 H        1 ZINC000000007633    0.1300
44     H44     2.1165    1.5238   -0.0145 H        1 ZINC000000007633    0.1400
@<TRIPOS>BOND
1     1     2     1
2     2     26    ar
3     2     3     ar
4     3     4     ar
5     3     27    1
6     4     5     ar
7     4     28    1
8     5     6     1
9     5     25    ar
10    6     24    1
11    6     7     2
12    7     8     1
13    7     14    1
14    8     13    ar
15    8     9     ar
16    9     10    ar
17    9     29    1
18    10    11    ar
19    10    30    1
20    11    12    ar
21    12    13    ar
22    12    31    1
23    13    32    1
24    14    15    1
25    14    23    1
26    15    22    1
27    15    16    1
28    15    33    1
29    16    17    1
30    16    34    1
31    16    35    1
32    17    18    1
33    17    36    1
34    17    37    1
35    18    19    1
36    18    20    1
37    18    21    1
38    21    22    1
39    21    38    1
40    21    39    1
41    22    40    1
42    22    41    1
43    23    24    2
44    23    42    1
45    25    26    ar
46    25    43    1
47    26    44    1
@<TRIPOS>SUBSTRUCTURE
1   ZINC000000007633 1     RESIDUE    1   A     ZIN   1
