@<TRIPOS>MOLECULE
ZINC000100101351
54    56    1     0     0
SMALL
USER_CHARGES
@<TRIPOS>ATOM
1      C1      1.2716    2.7240   -2.0910 C.3      1 ZINC000100101351    0.0300
2      O2      1.6123    1.5724   -1.3166 O.3      1 ZINC000100101351   -0.3500
3      C3      0.7235    1.1787   -0.3805 C.2      1 ZINC000100101351    0.5300
4      O4     -0.3129    1.7977   -0.2270 O.2      1 ZINC000100101351   -0.4900
5      C5      0.9965    0.0468    0.4220 C.2      1 ZINC000100101351   -0.2300
6      C6      1.6930    0.2010    1.5613 C.2      1 ZINC000100101351    0.1900
7      C7      2.1775    1.5719    1.9577 C.3      1 ZINC000100101351   -0.1300
8      N8      1.9671   -0.8713    2.3657 N.pl3    1 ZINC000100101351   -0.6300
9      C9      1.2556   -2.0325    2.2341 C.2      1 ZINC000100101351    0.2400
10     C10     1.2731   -3.0465    3.3489 C.3      1 ZINC000100101351   -0.1200
11     C11     0.5416   -2.2803    1.1225 C.2      1 ZINC000100101351   -0.2500
12     C12    -0.1883   -3.4875    1.0238 C.2      1 ZINC000100101351    0.5200
13     O13    -0.1655   -4.2888    1.9393 O.2      1 ZINC000100101351   -0.5200
14     O14    -0.9100   -3.7509   -0.0856 O.3      1 ZINC000100101351   -0.3200
15     C15    -1.6226   -4.9891   -0.1172 C.3      1 ZINC000100101351    0.0700
16     C16    -2.3763   -5.1101   -1.4432 C.3      1 ZINC000100101351    0.0900
17     H17    -1.6908   -4.9793   -2.2806 H        1 ZINC000100101351    0.0700
18     C18    -3.0830   -6.4859   -1.5366 C.3      1 ZINC000100101351   -0.1500
19     C19    -4.2298   -6.1612   -2.5322 C.3      1 ZINC000100101351   -0.1500
20     C20    -4.5716   -4.6992   -2.1729 C.3      1 ZINC000100101351    0.0500
21     O21    -3.4324   -4.1385   -1.5069 O.3      1 ZINC000100101351   -0.3500
22     C22     0.4965   -1.3012   -0.0140 C.3      1 ZINC000100101351    0.0600
23     H23    -0.5297   -1.2121   -0.3705 H        1 ZINC000100101351    0.1200
24     C24     1.3695   -1.8022   -1.1355 C.ar     1 ZINC000100101351   -0.0100
25     C25     2.6808   -2.1591   -0.8838 C.ar     1 ZINC000100101351   -0.1000
26     C26     3.4818   -2.6188   -1.9127 C.ar     1 ZINC000100101351   -0.0800
27     C27     2.9711   -2.7218   -3.1929 C.ar     1 ZINC000100101351   -0.1100
28     C28     1.6591   -2.3655   -3.4445 C.ar     1 ZINC000100101351   -0.0600
29     C29     0.8571   -1.9101   -2.4151 C.ar     1 ZINC000100101351   -0.0200
30     N30    -0.5475   -1.5287   -2.6845 N.pl3    1 ZINC000100101351    0.0100
31     O31    -0.8236   -0.8865   -3.6818 O.2      1 ZINC000100101351   -0.1800
32     O32    -1.4272   -1.8571   -1.9087 O.2      1 ZINC000100101351   -0.1000
33     H33     1.1432    3.5813   -1.4302 H        1 ZINC000100101351    0.0600
34     H34     2.0695    2.9313   -2.8041 H        1 ZINC000100101351    0.1000
35     H35     0.3424    2.5379   -2.6294 H        1 ZINC000100101351    0.0600
36     H36     1.4751    2.0154    2.6635 H        1 ZINC000100101351    0.1000
37     H37     3.1588    1.4894    2.4250 H        1 ZINC000100101351    0.0900
38     H38     2.2489    2.2023    1.0715 H        1 ZINC000100101351    0.0900
39     H39     2.6693   -0.8081    3.0320 H        1 ZINC000100101351    0.4200
40     H40     1.8987   -2.6806    4.1631 H        1 ZINC000100101351    0.0600
41     H41     0.2578   -3.2035    3.7131 H        1 ZINC000100101351    0.1100
42     H42     1.6754   -3.9887    2.9768 H        1 ZINC000100101351    0.1000
43     H43    -0.9187   -5.8159   -0.0226 H        1 ZINC000100101351    0.0800
44     H44    -2.3332   -5.0206    0.7087 H        1 ZINC000100101351    0.0800
45     H45    -2.4137   -7.2446   -1.9421 H        1 ZINC000100101351    0.0900
46     H46    -3.4784   -6.7909   -0.5677 H        1 ZINC000100101351    0.0800
47     H47    -3.8820   -6.2363   -3.5625 H        1 ZINC000100101351    0.0800
48     H48    -5.0869   -6.8129   -2.3625 H        1 ZINC000100101351    0.0800
49     H49    -4.7820   -4.1347   -3.0812 H        1 ZINC000100101351    0.0700
50     H50    -5.4375   -4.6738   -1.5113 H        1 ZINC000100101351    0.0700
51     H51     3.0799   -2.0787    0.1165 H        1 ZINC000100101351    0.1300
52     H52     4.5067   -2.8970   -1.7162 H        1 ZINC000100101351    0.1400
53     H53     3.5970   -3.0801   -3.9968 H        1 ZINC000100101351    0.1500
54     H54     1.2602   -2.4457   -4.4449 H        1 ZINC000100101351    0.1400
@<TRIPOS>BOND
1     1     2     1
2     1     33    1
3     1     34    1
4     1     35    1
5     2     3     1
6     3     4     2
7     3     5     1
8     5     22    1
9     5     6     2
10    6     7     1
11    6     8     1
12    7     36    1
13    7     37    1
14    7     38    1
15    8     9     1
16    8     39    1
17    9     10    1
18    9     11    2
19    10    40    1
20    10    41    1
21    10    42    1
22    11    12    1
23    11    22    1
24    12    13    2
25    12    14    1
26    14    15    1
27    15    16    1
28    15    43    1
29    15    44    1
30    16    17    1
31    16    21    1
32    16    18    1
33    18    19    1
34    18    45    1
35    18    46    1
36    19    20    1
37    19    47    1
38    19    48    1
39    20    21    1
40    20    49    1
41    20    50    1
42    22    23    1
43    22    24    1
44    24    29    ar
45    24    25    ar
46    25    26    ar
47    25    51    1
48    26    27    ar
49    26    52    1
50    27    28    ar
51    27    53    1
52    28    29    ar
53    28    54    1
54    29    30    1
55    30    31    2
56    30    32    2
@<TRIPOS>SUBSTRUCTURE
1   ZINC000100101351 1     RESIDUE    1   A     ZIN   1
