@<TRIPOS>MOLECULE
ZINC000001894065
  77   78    0    0    0
SMALL
USER_CHARGES
NO_NAME
@<TRIPOS>ATOM
    1 C1       -0.0187     1.5258     0.0104 C.3    1 <0>      -0.1500
    2 C2        0.0021    -0.0041     0.0020 C.3    1 <0>      -0.0200
    3 C3        0.7421    -0.5109     1.2415 C.3    1 <0>      -0.1400
    4 C4       -1.4333    -0.5336     0.0129 C.3    1 <0>      -0.1400
    5 C5        0.7074    -0.4901    -1.2379 C.ar   1 <0>      -0.0700
    6 C6        1.2162     0.4195    -2.1438 C.ar   1 <0>      -0.0900
    7 C7        1.8668    -0.0288    -3.2865 C.ar   1 <0>      -0.0900
    8 S8        2.5171     1.1306    -4.4430 S.3    1 <0>      -0.0800
    9 C9        3.2467     0.0682    -5.7195 C.3    1 <0>      -0.1200
   10 S10       1.9266    -0.6521    -6.7339 S.3    1 <0>      -0.0800
   11 C11       1.4188     0.7006    -7.7424 C.ar   1 <0>      -0.0900
   12 C12       2.0407     1.9361    -7.6128 C.ar   1 <0>      -0.1200
   13 C13       1.6419     2.9955    -8.4037 C.ar   1 <0>      -0.0700
   14 C14       2.3163     4.3358    -8.2634 C.3    1 <0>      -0.0200
   15 C15       3.3980     4.2521    -7.1846 C.3    1 <0>      -0.1500
   16 C16       2.9555     4.7273    -9.5972 C.3    1 <0>      -0.1400
   17 C17       1.2801     5.3890    -7.8659 C.3    1 <0>      -0.1400
   18 C18       0.6211     2.8263    -9.3275 C.ar   1 <0>       0.1100
   19 O19       0.2298     3.8702   -10.1065 O.3    1 <0>      -0.4800
   20 C20      -0.0005     1.5931    -9.4577 C.ar   1 <0>      -0.0700
   21 C21      -1.1094     1.4109   -10.4619 C.3    1 <0>      -0.0200
   22 C22      -1.6185    -0.0307   -10.4034 C.3    1 <0>      -0.1500
   23 C23      -2.2557     2.3703   -10.1355 C.3    1 <0>      -0.1400
   24 C24      -0.5797     1.7081   -11.8661 C.3    1 <0>      -0.1400
   25 C25       0.4002     0.5309    -8.6716 C.ar   1 <0>      -0.0900
   26 C26       2.0048    -1.3919    -3.5163 C.ar   1 <0>      -0.1200
   27 C27       1.4952    -2.2996    -2.6090 C.ar   1 <0>      -0.0700
   28 C28       1.6451    -3.7784    -2.8579 C.3    1 <0>      -0.0200
   29 C29       2.3933    -4.0008    -4.1738 C.3    1 <0>      -0.1500
   30 C30       2.4336    -4.4114    -1.7097 C.3    1 <0>      -0.1400
   31 C31       0.2607    -4.4242    -2.9428 C.3    1 <0>      -0.1400
   32 C32       0.8504    -1.8509    -1.4658 C.ar   1 <0>       0.1100
   33 O33       0.3493    -2.7458    -0.5727 O.3    1 <0>      -0.4800
   34 H34       1.0039     1.9031     0.0027 H      1 <0>       0.0600
   35 H35      -0.5459     1.8868    -0.8726 H      1 <0>       0.0600
   36 H36      -0.5289     1.8773     0.9072 H      1 <0>       0.0600
   37 H37       0.2319    -0.1594     2.1383 H      1 <0>       0.0600
   38 H38       0.7568    -1.6008     1.2356 H      1 <0>       0.0600
   39 H39       1.7647    -0.1336     1.2338 H      1 <0>       0.0500
   40 H40      -1.9605    -0.1726    -0.8702 H      1 <0>       0.0500
   41 H41      -1.4185    -1.6235     0.0069 H      1 <0>       0.0800
   42 H42      -1.9435    -0.1821     0.9097 H      1 <0>       0.0600
   43 H43       1.1081     1.4789    -1.9643 H      1 <0>       0.1300
   44 H44       3.9080     0.6612    -6.3513 H      1 <0>       0.1400
   45 H45       3.8172    -0.7303    -5.2451 H      1 <0>       0.1400
   46 H46       2.8355     2.0680    -6.8936 H      1 <0>       0.1300
   47 H47       4.1363     3.5018    -7.4678 H      1 <0>       0.0500
   48 H48       3.8858     5.2215    -7.0831 H      1 <0>       0.0600
   49 H49       2.9427     3.9732    -6.2343 H      1 <0>       0.0600
   50 H50       2.1849     4.7869   -10.3658 H      1 <0>       0.0600
   51 H51       3.4433     5.6967    -9.4957 H      1 <0>       0.0600
   52 H52       3.6938     3.9770    -9.8804 H      1 <0>       0.0500
   53 H53       0.8248     5.1102    -6.9157 H      1 <0>       0.0500
   54 H54       1.7679     6.3585    -7.7644 H      1 <0>       0.0500
   55 H55       0.5095     5.4487    -8.6345 H      1 <0>       0.0800
   56 H56       0.7092     3.9376   -10.9436 H      1 <0>       0.3800
   57 H57      -1.9959    -0.2425    -9.4029 H      1 <0>       0.0600
   58 H58      -2.4206    -0.1625   -11.1297 H      1 <0>       0.0600
   59 H59      -0.8019    -0.7142   -10.6359 H      1 <0>       0.0600
   60 H60      -1.8930     3.3973   -10.1772 H      1 <0>       0.0800
   61 H61      -3.0577     2.2384   -10.8618 H      1 <0>       0.0600
   62 H62      -2.6330     2.1585    -9.1351 H      1 <0>       0.0500
   63 H63       0.2369     1.0247   -12.0986 H      1 <0>       0.0500
   64 H64      -1.3818     1.5763   -12.5924 H      1 <0>       0.0600
   65 H65      -0.2170     2.7352   -11.9078 H      1 <0>       0.0600
   66 H66      -0.0837    -0.4292    -8.7734 H      1 <0>       0.1300
   67 H67       2.5101    -1.7415    -4.4045 H      1 <0>       0.1300
   68 H68       3.3796    -3.5407    -4.1133 H      1 <0>       0.0500
   69 H69       2.5017    -5.0704    -4.3538 H      1 <0>       0.0600
   70 H70       1.8316    -3.5498    -4.9919 H      1 <0>       0.0600
   71 H71       1.9006    -4.2530    -0.7722 H      1 <0>       0.0600
   72 H72       2.5421    -5.4810    -1.8897 H      1 <0>       0.0600
   73 H73       3.4199    -3.9513    -1.6492 H      1 <0>       0.0500
   74 H74      -0.3010    -3.9732    -3.7609 H      1 <0>       0.0500
   75 H75       0.3692    -5.4937    -3.1228 H      1 <0>       0.0500
   76 H76      -0.2723    -4.2657    -2.0053 H      1 <0>       0.0800
   77 H77       0.9741    -3.0030     0.1191 H      1 <0>       0.3800
@<TRIPOS>BOND
   1    1    2 1
   2    1   34 1
   3    1   35 1
   4    1   36 1
   5    2    3 1
   6    2    4 1
   7    2    5 1
   8    3   37 1
   9    3   38 1
  10    3   39 1
  11    4   40 1
  12    4   41 1
  13    4   42 1
  14    5   32 ar
  15    5    6 ar
  16    6    7 ar
  17    6   43 1
  18    7    8 1
  19    7   26 ar
  20    8    9 1
  21    9   10 1
  22    9   44 1
  23    9   45 1
  24   10   11 1
  25   11   25 ar
  26   11   12 ar
  27   12   13 ar
  28   12   46 1
  29   13   14 1
  30   13   18 ar
  31   14   15 1
  32   14   16 1
  33   14   17 1
  34   15   47 1
  35   15   48 1
  36   15   49 1
  37   16   50 1
  38   16   51 1
  39   16   52 1
  40   17   53 1
  41   17   54 1
  42   17   55 1
  43   18   19 1
  44   18   20 ar
  45   19   56 1
  46   20   21 1
  47   20   25 ar
  48   21   22 1
  49   21   23 1
  50   21   24 1
  51   22   57 1
  52   22   58 1
  53   22   59 1
  54   23   60 1
  55   23   61 1
  56   23   62 1
  57   24   63 1
  58   24   64 1
  59   24   65 1
  60   25   66 1
  61   26   27 ar
  62   26   67 1
  63   27   28 1
  64   27   32 ar
  65   28   29 1
  66   28   30 1
  67   28   31 1
  68   29   68 1
  69   29   69 1
  70   29   70 1
  71   30   71 1
  72   30   72 1
  73   30   73 1
  74   31   74 1
  75   31   75 1
  76   31   76 1
  77   32   33 1
  78   33   77 1
