@<TRIPOS>MOLECULE
ZINC000005973821
  35   37    0    0    0
SMALL
USER_CHARGES
NO_NAME
@<TRIPOS>ATOM
    1 O1        0.0021    -0.0041     0.0020 O.2    1 <0>      -0.5400
    2 C2       -0.0145     1.2154     0.0087 C.2    1 <0>       0.5600
    3 N3       -1.1841     1.8913     0.0292 N.am   1 <0>      -0.6400
    4 C4       -1.1972     3.2495     0.0361 C.2    1 <0>       0.3500
    5 N5       -0.1017     3.9522     0.0235 N.2    1 <0>      -0.4900
    6 C6        1.1120     3.3511     0.0032 C.2    1 <0>       0.1100
    7 C7        1.1868     1.9539     0.0012 C.2    1 <0>      -0.1000
    8 N8        2.5196     1.6150    -0.0209 N.pl3  1 <0>      -0.5200
    9 C9        3.2618     2.7561    -0.0324 C.2    1 <0>       0.0900
   10 C10       2.4408     3.8260    -0.0137 C.2    1 <0>      -0.1500
   11 C11       2.8666     5.2716    -0.0184 C.3    1 <0>       0.1200
   12 N12       2.8003     5.8060     1.3484 N.3    1 <0>      -0.5200
   13 C13       1.5017     5.4874     1.9794 C.3    1 <0>       0.0000
   14 C14       1.1983     6.7002     2.8941 C.3    1 <0>       0.1000
   15 H15       1.7375     6.6219     3.8381 H      1 <0>       0.0700
   16 O16      -0.2066     6.8324     3.1196 O.3    1 <0>      -0.5600
   17 C17       1.7384     7.8785     2.0416 C.3    1 <0>      -0.1000
   18 H18       1.0003     8.1894     1.3023 H      1 <0>       0.0900
   19 C19       2.1350     9.0554     2.9352 C.3    1 <0>       0.0900
   20 O20       2.5178    10.1648     2.1198 O.3    1 <0>      -0.5700
   21 C21       2.9778     7.2697     1.3526 C.3    1 <0>       0.0500
   22 H22      -2.0219     1.4024     0.0387 H      1 <0>       0.4200
   23 H23      -2.1472     3.7629     0.0522 H      1 <0>       0.2100
   24 H24       2.8726     0.7116    -0.0269 H      1 <0>       0.4300
   25 H25       4.3408     2.7981    -0.0501 H      1 <0>       0.1900
   26 H26       3.8887     5.3481    -0.3892 H      1 <0>       0.0900
   27 H27       2.2017     5.8442    -0.6650 H      1 <0>       0.0500
   28 H28       0.7268     5.3814     1.2202 H      1 <0>       0.1000
   29 H29       1.5811     4.5759     2.5717 H      1 <0>       0.0700
   30 H30      -0.6067     6.0730     3.5649 H      1 <0>       0.3800
   31 H31       1.2880     9.3389     3.5599 H      1 <0>       0.0500
   32 H32       2.9727     8.7642     3.5690 H      1 <0>       0.0500
   33 H33       2.7824    10.9484     2.6208 H      1 <0>       0.3800
   34 H34       3.8777     7.5325     1.9087 H      1 <0>       0.0800
   35 H35       3.0511     7.6373     0.3291 H      1 <0>       0.0600
@<TRIPOS>BOND
   1    1    2 2
   2    2    7 1
   3    2    3 am
   4    3    4 1
   5    3   22 1
   6    4    5 2
   7    4   23 1
   8    5    6 1
   9    6   10 1
  10    6    7 2
  11    7    8 1
  12    8    9 1
  13    8   24 1
  14    9   10 2
  15    9   25 1
  16   10   11 1
  17   11   12 1
  18   11   26 1
  19   11   27 1
  20   12   21 1
  21   12   13 1
  22   13   14 1
  23   13   28 1
  24   13   29 1
  25   14   15 1
  26   14   16 1
  27   14   17 1
  28   16   30 1
  29   17   18 1
  30   17   19 1
  31   17   21 1
  32   19   20 1
  33   19   31 1
  34   19   32 1
  35   20   33 1
  36   21   34 1
  37   21   35 1
