@<TRIPOS>MOLECULE
ZINC000000004594
  43   45    0    0    0
SMALL
USER_CHARGES
NO_NAME
@<TRIPOS>ATOM
    1 C1       -0.0187     1.5258     0.0104 C.3    1 <0>      -0.1600
    2 C2        0.0021    -0.0041     0.0020 C.3    1 <0>       0.0400
    3 C3        0.7421    -0.5109     1.2415 C.3    1 <0>      -0.1600
    4 O4       -1.3386    -0.4987     0.0122 O.3    1 <0>      -0.3400
    5 C5       -2.0989    -0.0936     1.1522 C.3    1 <0>       0.1300
    6 C6       -3.4887    -0.6688     1.0593 C.2    1 <0>       0.1200
    7 N7       -4.5155    -0.1065     0.4886 N.2    1 <0>      -0.2300
    8 N8       -5.6385    -0.9333     0.5977 N.pl3  1 <0>      -0.4000
    9 C9       -6.9720    -0.6293     0.0728 C.3    1 <0>       0.1900
   10 C10      -7.0878    -1.1501    -1.3366 C.ar   1 <0>      -0.1200
   11 C11      -6.7318    -0.3449    -2.4024 C.ar   1 <0>      -0.0900
   12 C12      -6.8381    -0.8226    -3.6952 C.ar   1 <0>      -0.1200
   13 C13      -7.2998    -2.1056    -3.9223 C.ar   1 <0>      -0.1100
   14 C14      -7.6548    -2.9111    -2.8564 C.ar   1 <0>      -0.1200
   15 C15      -7.5446    -2.4349    -1.5634 C.ar   1 <0>      -0.1000
   16 C16      -5.2912    -2.0736     1.2739 C.ar   1 <0>       0.1300
   17 C17      -5.9875    -3.2156     1.6610 C.ar   1 <0>      -0.1500
   18 C18      -5.3416    -4.2071     2.3439 C.ar   1 <0>      -0.0700
   19 C19      -3.9937    -4.0922     2.6598 C.ar   1 <0>      -0.1700
   20 C20      -3.2856    -2.9843     2.2933 C.ar   1 <0>      -0.0300
   21 C21      -3.9228    -1.9582     1.5873 C.ar   1 <0>      -0.1600
   22 C22       0.7074    -0.4901    -1.2379 C.2    1 <0>       0.5100
   23 O23       1.8687    -0.1786    -1.4402 O.co2  1 <0>      -0.6900
   24 O24       0.1168    -1.1947    -2.0386 O.co2  1 <0>      -0.6700
   25 H25       1.0039     1.9031     0.0027 H      1 <0>       0.0700
   26 H26      -0.5459     1.8868    -0.8726 H      1 <0>       0.0600
   27 H27      -0.5289     1.8773     0.9072 H      1 <0>       0.0400
   28 H28       0.2319    -0.1594     2.1383 H      1 <0>       0.0400
   29 H29       0.7568    -1.6008     1.2356 H      1 <0>       0.0600
   30 H30       1.7647    -0.1336     1.2338 H      1 <0>       0.0700
   31 H31      -1.6153    -0.4565     2.0591 H      1 <0>       0.0700
   32 H32      -2.1573     0.9945     1.1821 H      1 <0>       0.0600
   33 H33      -7.7263    -1.1054     0.6992 H      1 <0>       0.1000
   34 H34      -7.1261     0.4498     0.0752 H      1 <0>       0.1000
   35 H35      -6.3711     0.6575    -2.2251 H      1 <0>       0.1200
   36 H36      -6.5607    -0.1933    -4.5280 H      1 <0>       0.1200
   37 H37      -7.3835    -2.4786    -4.9324 H      1 <0>       0.1200
   38 H38      -8.0159    -3.9134    -3.0338 H      1 <0>       0.1200
   39 H39      -7.8219    -3.0642    -0.7306 H      1 <0>       0.1200
   40 H40      -7.0359    -3.3171     1.4223 H      1 <0>       0.1200
   41 H41      -5.8858    -5.0911     2.6422 H      1 <0>       0.1300
   42 H42      -3.5015    -4.8868     3.2009 H      1 <0>       0.1200
   43 H43      -2.2379    -2.9025     2.5426 H      1 <0>       0.1300
@<TRIPOS>BOND
   1    1    2 1
   2    1   25 1
   3    1   26 1
   4    1   27 1
   5    2    3 1
   6    2    4 1
   7    2   22 1
   8    3   28 1
   9    3   29 1
  10    3   30 1
  11    4    5 1
  12    5    6 1
  13    5   31 1
  14    5   32 1
  15    6   21 1
  16    6    7 2
  17    7    8 1
  18    8    9 1
  19    8   16 1
  20    9   10 1
  21    9   33 1
  22    9   34 1
  23   10   15 ar
  24   10   11 ar
  25   11   12 ar
  26   11   35 1
  27   12   13 ar
  28   12   36 1
  29   13   14 ar
  30   13   37 1
  31   14   15 ar
  32   14   38 1
  33   15   39 1
  34   16   21 ar
  35   16   17 ar
  36   17   18 ar
  37   17   40 1
  38   18   19 ar
  39   18   41 1
  40   19   20 ar
  41   19   42 1
  42   20   21 ar
  43   20   43 1
  44   22   23 ar
  45   22   24 ar
