@<TRIPOS>MOLECULE
ZINC000031773258
42    44    1     0     0
SMALL
USER_CHARGES
@<TRIPOS>ATOM
1      C1     -0.0836    1.2882    0.1087 C.3      1 ZINC000031773258    0.0700
2      N2     -0.8784    0.2634    0.7903 N.pl3    1 ZINC000031773258   -0.4900
3      C3     -2.2348    0.1963    0.8398 C.2      1 ZINC000031773258    0.2800
4      N4     -2.6084   -0.8428    1.5293 N.2      1 ZINC000031773258   -0.4800
5      C5     -1.5167   -1.5162    1.9713 C.ar     1 ZINC000031773258    0.0500
6      C6     -1.3496   -2.6741    2.7375 C.ar     1 ZINC000031773258    0.1600
7      F7     -2.4297   -3.3492    3.1880 F        1 ZINC000031773258   -0.1100
8      C8     -0.0771   -3.1270    3.0328 C.ar     1 ZINC000031773258    0.1500
9      N9      0.0906   -4.2817    3.7964 N.pl3    1 ZINC000031773258   -0.6700
10     C10     0.3135   -5.5099    3.1668 C.ar     1 ZINC000031773258    0.2700
11     C11     0.5028   -5.5628    1.7921 C.ar     1 ZINC000031773258   -0.1700
12     C12     0.7234   -6.7777    1.1727 C.ar     1 ZINC000031773258   -0.0400
13     C13     0.7555   -7.9414    1.9199 C.ar     1 ZINC000031773258   -0.1400
14     Br14    1.0578   -9.6021    1.0674 Br       1 ZINC000031773258   -0.0500
15     C15     0.5673   -7.8928    3.2901 C.ar     1 ZINC000031773258   -0.0300
16     C16     0.3520   -6.6803    3.9164 C.ar     1 ZINC000031773258   -0.0900
17     Cl17    0.1166   -6.6196    5.6353 Cl       1 ZINC000031773258   -0.0600
18     C18     1.0495   -2.4254    2.5640 C.ar     1 ZINC000031773258   -0.0900
19     C19     2.4033   -2.9114    2.8804 C.2      1 ZINC000031773258    0.5700
20     O20     2.5487   -3.9641    3.4719 O.2      1 ZINC000031773258   -0.4800
21     N21     3.4810   -2.1896    2.5144 N.am     1 ZINC000031773258   -0.6000
22     O22     4.7826   -2.6569    2.8185 O.3      1 ZINC000031773258   -0.1200
23     C23     5.8295   -1.7927    2.3721 C.3      1 ZINC000031773258    0.0300
24     C24     7.1841   -2.3937    2.7526 C.3      1 ZINC000031773258    0.0800
25     O25     7.3775   -3.6193    2.0436 O.3      1 ZINC000031773258   -0.5700
26     C26     0.8843   -1.2698    1.7993 C.ar     1 ZINC000031773258   -0.0700
27     C27    -0.3874   -0.8200    1.4988 C.ar     1 ZINC000031773258    0.0700
28     H28     0.1056    0.9774   -0.9188 H        1 ZINC000031773258    0.0800
29     H29    -0.6302    2.2312    0.1082 H        1 ZINC000031773258    0.1000
30     H30     0.8650    1.4183    0.6296 H        1 ZINC000031773258    0.0900
31     H31    -2.9059    0.9031    0.3746 H        1 ZINC000031773258    0.2300
32     H32     0.0526   -4.2328    4.7644 H        1 ZINC000031773258    0.4200
33     H33     0.4772   -4.6549    1.2077 H        1 ZINC000031773258    0.1300
34     H34     0.8706   -6.8191    0.1035 H        1 ZINC000031773258    0.1400
35     H35     0.5926   -8.8031    3.8708 H        1 ZINC000031773258    0.1400
36     H36     3.3650   -1.3501    2.0426 H        1 ZINC000031773258    0.4000
37     H37     5.7724   -1.6820    1.2893 H        1 ZINC000031773258    0.0700
38     H38     5.7201   -0.8160    2.8434 H        1 ZINC000031773258    0.0800
39     H39     7.9782   -1.6940    2.4919 H        1 ZINC000031773258    0.0700
40     H40     7.2076   -2.5868    3.8251 H        1 ZINC000031773258    0.0600
41     H41     8.2180   -4.0568    2.2364 H        1 ZINC000031773258    0.3900
42     H42     1.7482   -0.7309    1.4392 H        1 ZINC000031773258    0.1400
@<TRIPOS>BOND
1     1     2     1
2     1     28    1
3     1     29    1
4     1     30    1
5     2     27    1
6     2     3     1
7     3     4     2
8     3     31    1
9     4     5     1
10    5     27    ar
11    5     6     ar
12    6     7     1
13    6     8     ar
14    8     9     1
15    8     18    ar
16    9     10    1
17    9     32    1
18    10    16    ar
19    10    11    ar
20    11    12    ar
21    11    33    1
22    12    13    ar
23    12    34    1
24    13    14    1
25    13    15    ar
26    15    16    ar
27    15    35    1
28    16    17    1
29    18    19    1
30    18    26    ar
31    19    20    2
32    19    21    am
33    21    22    1
34    21    36    1
35    22    23    1
36    23    24    1
37    23    37    1
38    23    38    1
39    24    25    1
40    24    39    1
41    24    40    1
42    25    41    1
43    26    27    ar
44    26    42    1
@<TRIPOS>SUBSTRUCTURE
1   ZINC000031773258 1     RESIDUE    1   A     ZIN   1
