@<TRIPOS>MOLECULE
ZINC000008655374
56    58    1     0     0
SMALL
USER_CHARGES
@<TRIPOS>ATOM
1      C1      0.0180   -1.1779   -0.0044 C.1      1 ZINC000008655374   -0.1900
2      C2      0.0021   -0.0041    0.0020 C.1      1 ZINC000008655374   -0.2100
3      C3     -0.0179    1.4678    0.0101 C.3      1 ZINC000008655374    0.2300
4      N4      1.3565    1.9749   -0.0003 N.pl3    1 ZINC000008655374   -0.6200
5      C5      2.0316    2.2352   -1.2741 C.3      1 ZINC000008655374    0.1700
6      C6      1.7714    3.6575   -1.6991 C.ar     1 ZINC000008655374   -0.1500
7      C7      0.6635    3.9494   -2.4842 C.ar     1 ZINC000008655374   -0.0500
8      C8      0.4040    5.2400   -2.8857 C.ar     1 ZINC000008655374   -0.1300
9      C9      1.2643    6.2712   -2.4996 C.ar     1 ZINC000008655374    0.2000
10     N10     1.0448    7.5543   -2.8728 N.2      1 ZINC000008655374   -0.5900
11     C11     1.8508    8.5203   -2.5105 C.2      1 ZINC000008655374    0.6400
12     N12     1.5678    9.7977   -2.9242 N.pl3    1 ZINC000008655374   -0.8300
13     N13     2.9588    8.3168   -1.7406 N.am     1 ZINC000008655374   -0.6700
14     C14     3.2779    7.0746   -1.3092 C.2      1 ZINC000008655374    0.5600
15     O15     4.2633    6.8791   -0.6219 O.2      1 ZINC000008655374   -0.4900
16     C16     2.3906    5.9704   -1.7002 C.ar     1 ZINC000008655374   -0.2200
17     C17     2.6314    4.6571   -1.3007 C.ar     1 ZINC000008655374   -0.0100
18     C18     2.0202    2.2090    1.1988 C.ar     1 ZINC000008655374    0.2200
19     C19     3.3243    2.6963    1.1873 C.ar     1 ZINC000008655374   -0.2000
20     C20     3.9839    2.9291    2.3724 C.ar     1 ZINC000008655374   -0.0200
21     C21     3.3430    2.6757    3.5887 C.ar     1 ZINC000008655374   -0.1600
22     C22     4.0471    2.9246    4.8610 C.2      1 ZINC000008655374    0.5500
23     O23     5.1859    3.3506    4.8524 O.2      1 ZINC000008655374   -0.5600
24     N24     3.4279    2.6799    6.0328 N.am     1 ZINC000008655374   -0.6800
25     C25     4.1271    2.9271    7.2963 C.3      1 ZINC000008655374    0.0700
26     H26     5.1854    2.6948    7.1774 H        1 ZINC000008655374    0.0800
27     C27     3.5303    2.0407    8.3913 C.3      1 ZINC000008655374   -0.0800
28     C28     3.7990    0.5712    8.0608 C.3      1 ZINC000008655374   -0.1800
29     C29     3.2112   -0.3019    9.1394 C.2      1 ZINC000008655374    0.4900
30     O30     2.6311    0.2043   10.0847 O.co2    1 ZINC000008655374   -0.7000
31     O31     3.3157   -1.5144    9.0665 O.co2    1 ZINC000008655374   -0.7200
32     C32     3.9709    4.3756    7.6818 C.2      1 ZINC000008655374    0.5000
33     O33     3.1905    5.0876    7.0732 O.co2    1 ZINC000008655374   -0.7000
34     O34     4.6250    4.8353    8.6023 O.co2    1 ZINC000008655374   -0.7000
35     C35     2.0335    2.1865    3.5969 C.ar     1 ZINC000008655374   -0.0400
36     C36     1.3773    1.9611    2.4086 C.ar     1 ZINC000008655374   -0.2000
37     H37     0.0322   -2.2278   -0.0102 H        1 ZINC000008655374    0.2100
38     H38    -0.5451    1.8289   -0.8729 H        1 ZINC000008655374    0.0900
39     H39    -0.5281    1.8193    0.9069 H        1 ZINC000008655374    0.1000
40     H40     3.1042    2.0821   -1.1549 H        1 ZINC000008655374    0.0900
41     H41     1.6495    1.5533   -2.0338 H        1 ZINC000008655374    0.0800
42     H42    -0.0025    3.1536   -2.7836 H        1 ZINC000008655374    0.1300
43     H43    -0.4602    5.4547   -3.4967 H        1 ZINC000008655374    0.1300
44     H44     0.7856    9.9679   -3.4721 H        1 ZINC000008655374    0.4300
45     H45     2.1499   10.5304   -2.6688 H        1 ZINC000008655374    0.4100
46     H46     3.5226    9.0688   -1.5008 H        1 ZINC000008655374    0.4100
47     H47     3.4886    4.4241   -0.6864 H        1 ZINC000008655374    0.1400
48     H48     3.8190    2.8915    0.2473 H        1 ZINC000008655374    0.1200
49     H49     4.9956    3.3067    2.3628 H        1 ZINC000008655374    0.1300
50     H50     2.5194    2.3401    6.0397 H        1 ZINC000008655374    0.3900
51     H51     3.9890    2.2875    9.3488 H        1 ZINC000008655374    0.0800
52     H52     2.4550    2.2093    8.4494 H        1 ZINC000008655374    0.0600
53     H53     3.3403    0.3244    7.1033 H        1 ZINC000008655374    0.0500
54     H54     4.8743    0.4026    8.0027 H        1 ZINC000008655374    0.0500
55     H55     1.5359    1.9894    4.5350 H        1 ZINC000008655374    0.1300
56     H56     0.3655    1.5835    2.4142 H        1 ZINC000008655374    0.1200
@<TRIPOS>BOND
1     1     2     3
2     1     37    1
3     2     3     1
4     3     4     1
5     3     38    1
6     3     39    1
7     4     5     1
8     4     18    1
9     5     6     1
10    5     40    1
11    5     41    1
12    6     17    ar
13    6     7     ar
14    7     8     ar
15    7     42    1
16    8     9     ar
17    8     43    1
18    9     16    ar
19    9     10    1
20    10    11    2
21    11    12    1
22    11    13    1
23    12    44    1
24    12    45    1
25    13    14    am
26    13    46    1
27    14    15    2
28    14    16    1
29    16    17    ar
30    17    47    1
31    18    36    ar
32    18    19    ar
33    19    20    ar
34    19    48    1
35    20    21    ar
36    20    49    1
37    21    22    1
38    21    35    ar
39    22    23    2
40    22    24    am
41    24    25    1
42    24    50    1
43    25    26    1
44    25    27    1
45    25    32    1
46    27    28    1
47    27    51    1
48    27    52    1
49    28    29    1
50    28    53    1
51    28    54    1
52    29    30    ar
53    29    31    ar
54    32    33    ar
55    32    34    ar
56    35    36    ar
57    35    55    1
58    36    56    1
@<TRIPOS>SUBSTRUCTURE
1   ZINC000008655374 1     RESIDUE    1   A     ZIN   1
