@<TRIPOS>MOLECULE
ZINC000068208039
68    71    1     0     0
SMALL
USER_CHARGES
@<TRIPOS>ATOM
1      C1     -0.0184    1.5028    0.0103 C.3      1 ZINC000068208039   -0.1200
2      C2      0.0021   -0.0041    0.0020 C.ar     1 ZINC000068208039   -0.0200
3      C3      0.0058   -0.6877   -1.1957 C.ar     1 ZINC000068208039   -0.1600
4      C4      0.0246   -2.0759   -1.2041 C.ar     1 ZINC000068208039    0.1400
5      O5      0.0278   -2.7468   -2.3856 O.3      1 ZINC000068208039   -0.3100
6      C6      0.0476   -4.1742   -2.3211 C.3      1 ZINC000068208039    0.0700
7      C7      0.0482   -4.7488   -3.7391 C.3      1 ZINC000068208039   -0.1100
8      C8      0.0694   -6.2771   -3.6701 C.3      1 ZINC000068208039   -0.6100
9      S9      0.0702   -6.9584   -5.3513 S.o2     1 ZINC000068208039    2.4300
10     C10     0.0961   -8.7439   -5.0320 C.3      1 ZINC000068208039   -0.6600
11     O11    -1.1634   -6.6277   -5.9744 O.2      1 ZINC000068208039   -0.9400
12     O12     1.2879   -6.5944   -5.9867 O.2      1 ZINC000068208039   -0.9300
13     C13     0.0407   -2.7799   -0.0076 C.ar     1 ZINC000068208039   -0.2200
14     C14     0.0375   -2.1017    1.1932 C.ar     1 ZINC000068208039   -0.0200
15     C15     0.0554   -2.8667    2.4915 C.3      1 ZINC000068208039   -0.1200
16     C16     0.0231   -0.7081    1.2048 C.ar     1 ZINC000068208039   -0.0900
17     C17     0.0201    0.0245    2.4949 C.ar     1 ZINC000068208039   -0.0400
18     C18    -1.0654   -0.0891    3.3610 C.ar     1 ZINC000068208039   -0.1000
19     C19    -1.0626    0.5944    4.5603 C.ar     1 ZINC000068208039   -0.1200
20     C20     0.0148    1.3911    4.9026 C.ar     1 ZINC000068208039   -0.0900
21     C21     1.0951    1.5079    4.0463 C.ar     1 ZINC000068208039   -0.0900
22     C22     2.2654    2.3779    4.4263 C.3      1 ZINC000068208039    0.1000
23     O23     3.2240    1.5994    5.1453 O.3      1 ZINC000068208039   -0.3100
24     C24     4.3481    2.2380    5.5642 C.ar     1 ZINC000068208039    0.1500
25     C25     4.5186    3.5878    5.2918 C.ar     1 ZINC000068208039   -0.2400
26     C26     5.6655    4.2333    5.7166 C.ar     1 ZINC000068208039   -0.0300
27     C27     6.6326    3.5376    6.4080 C.ar     1 ZINC000068208039   -0.1900
28     C28     6.4720    2.1872    6.6947 C.ar     1 ZINC000068208039    0.1500
29     C29     5.3166    1.5408    6.2663 C.ar     1 ZINC000068208039   -0.1800
30     O30     7.5305    1.7044    7.4019 O.3      1 ZINC000068208039   -0.3100
31     C31     8.6510    2.5909    7.2413 C.3      1 ZINC000068208039    0.0700
32     C32     7.9727    3.9568    6.9813 C.3      1 ZINC000068208039   -0.0500
33     H33     7.8425    4.5103    7.9113 H        1 ZINC000068208039    0.1000
34     C34     8.7696    4.7784    5.9661 C.3      1 ZINC000068208039   -0.1700
35     C35    10.1020    5.1561    6.5606 C.2      1 ZINC000068208039    0.4900
36     O36    10.3876    4.8009    7.6914 O.co2    1 ZINC000068208039   -0.7000
37     O37    10.8942    5.8167    5.9107 O.co2    1 ZINC000068208039   -0.7000
38     C38     1.1057    0.8242    2.8476 C.ar     1 ZINC000068208039   -0.0800
39     H39     1.0042    1.8801    0.0026 H        1 ZINC000068208039    0.0800
40     H40    -0.5455    1.8639   -0.8728 H        1 ZINC000068208039    0.0700
41     H41    -0.5286    1.8543    0.9071 H        1 ZINC000068208039    0.0700
42     H42    -0.0063   -0.1427   -2.1280 H        1 ZINC000068208039    0.1300
43     H43     0.9447   -4.5018   -1.7959 H        1 ZINC000068208039    0.0700
44     H44    -0.8350   -4.5260   -1.7870 H        1 ZINC000068208039    0.0700
45     H45    -0.8489   -4.4212   -4.2643 H        1 ZINC000068208039    0.0900
46     H46     0.9308   -4.3970   -4.2733 H        1 ZINC000068208039    0.0900
47     H47     0.9666   -6.6047   -3.1449 H        1 ZINC000068208039    0.1400
48     H48    -0.8132   -6.6289   -3.1359 H        1 ZINC000068208039    0.1400
49     H49    -0.7873   -9.0232   -4.4578 H        1 ZINC000068208039    0.1300
50     H50     0.0986   -9.2824   -5.9797 H        1 ZINC000068208039    0.1300
51     H51     0.9925   -8.9989   -4.4668 H        1 ZINC000068208039    0.1300
52     H52     0.0554   -3.8598   -0.0173 H        1 ZINC000068208039    0.1300
53     H53     1.0873   -3.0365    2.7989 H        1 ZINC000068208039    0.0800
54     H54    -0.4625   -2.2917    3.2591 H        1 ZINC000068208039    0.0800
55     H55    -0.4455   -3.8251    2.3554 H        1 ZINC000068208039    0.0700
56     H56    -1.9076   -0.7104    3.0943 H        1 ZINC000068208039    0.1200
57     H57    -1.9035    0.5071    5.2324 H        1 ZINC000068208039    0.1300
58     H58     0.0127    1.9243    5.8418 H        1 ZINC000068208039    0.1300
59     H59     2.7270    2.7802    3.5245 H        1 ZINC000068208039    0.0700
60     H60     1.9191    3.1987    5.0544 H        1 ZINC000068208039    0.0700
61     H61     3.7591    4.1319    4.7501 H        1 ZINC000068208039    0.1300
62     H62     5.8032    5.2835    5.5057 H        1 ZINC000068208039    0.1300
63     H63     5.1785    0.4903    6.4754 H        1 ZINC000068208039    0.1300
64     H64     9.2503    2.6243    8.1512 H        1 ZINC000068208039    0.1200
65     H65     9.2596    2.2932    6.3875 H        1 ZINC000068208039    0.0700
66     H66     8.9286    4.1869    5.0645 H        1 ZINC000068208039    0.0600
67     H67     8.2148    5.6823    5.7145 H        1 ZINC000068208039    0.0600
68     H68     1.9497    0.9158    2.1800 H        1 ZINC000068208039    0.1200
@<TRIPOS>BOND
1     1     2     1
2     1     39    1
3     1     40    1
4     1     41    1
5     2     16    ar
6     2     3     ar
7     3     4     ar
8     3     42    1
9     4     5     1
10    4     13    ar
11    5     6     1
12    6     7     1
13    6     43    1
14    6     44    1
15    7     8     1
16    7     45    1
17    7     46    1
18    8     9     1
19    8     47    1
20    8     48    1
21    9     10    1
22    9     11    2
23    9     12    2
24    10    49    1
25    10    50    1
26    10    51    1
27    13    14    ar
28    13    52    1
29    14    15    1
30    14    16    ar
31    15    53    1
32    15    54    1
33    15    55    1
34    16    17    1
35    17    38    ar
36    17    18    ar
37    18    19    ar
38    18    56    1
39    19    20    ar
40    19    57    1
41    20    21    ar
42    20    58    1
43    21    22    1
44    21    38    ar
45    22    23    1
46    22    59    1
47    22    60    1
48    23    24    1
49    24    29    ar
50    24    25    ar
51    25    26    ar
52    25    61    1
53    26    27    ar
54    26    62    1
55    27    32    1
56    27    28    ar
57    28    29    ar
58    28    30    1
59    29    63    1
60    30    31    1
61    31    32    1
62    31    64    1
63    31    65    1
64    32    33    1
65    32    34    1
66    34    35    1
67    34    66    1
68    34    67    1
69    35    36    ar
70    35    37    ar
71    38    68    1
@<TRIPOS>SUBSTRUCTURE
1   ZINC000068208039 1     RESIDUE    1   A     ZIN   1
