@<TRIPOS>MOLECULE
ZINC000100057121
51    55    1     0     0
SMALL
USER_CHARGES
@<TRIPOS>ATOM
1      F1      0.0021   -0.0041    0.0020 F        1 ZINC000100057121   -0.1200
2      C2     -0.0162    1.3468    0.0094 C.ar     1 ZINC000100057121    0.1300
3      C3     -1.2215    2.0235    0.0304 C.ar     1 ZINC000100057121   -0.1600
4      C4     -1.2405    3.4063    0.0385 C.ar     1 ZINC000100057121   -0.0800
5      C5     -0.0557    4.1202    0.0257 C.ar     1 ZINC000100057121   -0.1400
6      C6      1.1542    3.4565    0.0048 C.ar     1 ZINC000100057121   -0.0500
7      C7      1.1822    2.0632    0.0019 C.ar     1 ZINC000100057121   -0.0500
8      C8      2.4788    1.3448   -0.0201 C.2      1 ZINC000100057121    0.2800
9      N9      2.6022    0.0273   -0.0296 N.2      1 ZINC000100057121   -0.4900
10     C10     3.9100   -0.2781   -0.0501 C.2      1 ZINC000100057121   -0.0400
11     C11     4.6595   -1.4386   -0.0672 C.2      1 ZINC000100057121    0.2100
12     N12     5.9990   -1.3682   -0.0855 N.pl3    1 ZINC000100057121   -0.4000
13     C13     6.7688   -2.6146   -0.1034 C.3      1 ZINC000100057121    0.1400
14     C14     7.0129   -3.0337   -1.5302 C.ar     1 ZINC000100057121    0.0300
15     C15     8.1981   -2.6864   -2.1611 C.ar     1 ZINC000100057121   -0.0900
16     C16     8.3816   -3.0926   -3.4745 C.ar     1 ZINC000100057121   -0.0900
17     C17     7.3597   -3.8271   -4.0802 C.ar     1 ZINC000100057121    0.1000
18     C18     7.5029   -4.2877   -5.4831 C.ar     1 ZINC000100057121    0.0300
19     C19     8.6606   -3.9941   -6.2007 C.ar     1 ZINC000100057121   -0.1000
20     C20     8.7887   -4.4256   -7.5056 C.ar     1 ZINC000100057121   -0.0400
21     C21     7.7704   -5.1476   -8.1010 C.ar     1 ZINC000100057121   -0.1700
22     C22     7.9159   -5.6155   -9.5261 C.3      1 ZINC000100057121    0.5100
23     F23     9.1540   -5.2015  -10.0288 F        1 ZINC000100057121   -0.1700
24     F24     7.8385   -7.0117   -9.5687 F        1 ZINC000100057121   -0.1700
25     F25     6.8900   -5.0677  -10.3038 F        1 ZINC000100057121   -0.1700
26     C26     6.6189   -5.4423   -7.3931 C.ar     1 ZINC000100057121   -0.0200
27     C27     6.4823   -5.0205   -6.0863 C.ar     1 ZINC000100057121   -0.1500
28     C28     5.2276   -5.3427   -5.3163 C.3      1 ZINC000100057121    0.5200
29     F29     4.3545   -6.0713   -6.1311 F        1 ZINC000100057121   -0.1800
30     F30     5.5550   -6.1018   -4.1877 F        1 ZINC000100057121   -0.1600
31     F31     4.6084   -4.1540   -4.9152 F        1 ZINC000100057121   -0.1600
32     N32     6.2596   -4.1112   -3.3934 N.ar     1 ZINC000100057121   -0.2100
33     N33     6.1009   -3.7356   -2.1764 N.ar     1 ZINC000100057121   -0.2000
34     C34     6.6686   -0.1894   -0.0885 C.2      1 ZINC000100057121    0.0400
35     C35     6.0264    0.9995   -0.0727 C.2      1 ZINC000100057121   -0.0800
36     C36     4.6169    1.0131   -0.0525 C.2      1 ZINC000100057121    0.0900
37     N37     3.6701    1.9432   -0.0385 N.2      1 ZINC000100057121   -0.5200
38     H38    -2.1497    1.4715    0.0401 H        1 ZINC000100057121    0.1400
39     H39    -2.1843    3.9310    0.0545 H        1 ZINC000100057121    0.1300
40     H40    -0.0775    5.2000    0.0317 H        1 ZINC000100057121    0.1300
41     H41     2.0779    4.0160   -0.0055 H        1 ZINC000100057121    0.1400
42     H42     4.1681   -2.4003   -0.0656 H        1 ZINC000100057121    0.1900
43     H43     7.7240   -2.4589    0.3980 H        1 ZINC000100057121    0.1300
44     H44     6.2098   -3.3944    0.4137 H        1 ZINC000100057121    0.1300
45     H45     8.9560   -2.1159   -1.6448 H        1 ZINC000100057121    0.1600
46     H46     9.2860   -2.8483   -4.0119 H        1 ZINC000100057121    0.1600
47     H47     9.4561   -3.4298   -5.7369 H        1 ZINC000100057121    0.1500
48     H48     9.6856   -4.1987   -8.0627 H        1 ZINC000100057121    0.1600
49     H49     5.8269   -6.0067   -7.8629 H        1 ZINC000100057121    0.1600
50     H50     7.7484   -0.2008   -0.1036 H        1 ZINC000100057121    0.1800
51     H51     6.5840    1.9244   -0.0751 H        1 ZINC000100057121    0.1600
@<TRIPOS>BOND
1     1     2     1
2     2     7     ar
3     2     3     ar
4     3     4     ar
5     3     38    1
6     4     5     ar
7     4     39    1
8     5     6     ar
9     5     40    1
10    6     7     ar
11    6     41    1
12    7     8     1
13    8     37    1
14    8     9     2
15    9     10    1
16    10    36    1
17    10    11    2
18    11    12    1
19    11    42    1
20    12    13    1
21    12    34    1
22    13    14    1
23    13    43    1
24    13    44    1
25    14    33    ar
26    14    15    ar
27    15    16    ar
28    15    45    1
29    16    17    ar
30    16    46    1
31    17    18    1
32    17    32    ar
33    18    27    ar
34    18    19    ar
35    19    20    ar
36    19    47    1
37    20    21    ar
38    20    48    1
39    21    22    1
40    21    26    ar
41    22    23    1
42    22    24    1
43    22    25    1
44    26    27    ar
45    26    49    1
46    27    28    1
47    28    29    1
48    28    30    1
49    28    31    1
50    32    33    ar
51    34    35    2
52    34    50    1
53    35    36    1
54    35    51    1
55    36    37    2
@<TRIPOS>SUBSTRUCTURE
1   ZINC000100057121 1     RESIDUE    1   A     ZIN   1
