@<TRIPOS>MOLECULE
ZINC000001494695
69    73    1     0     0
SMALL
USER_CHARGES
@<TRIPOS>ATOM
1      C1     -1.4529    0.3152    0.1150 C.3      1 ZINC000001494695    0.0200
2      O2     -1.3584   -1.1054    0.2374 O.3      1 ZINC000001494695   -0.3000
3      C3     -0.5759   -1.5880    1.2395 C.ar     1 ZINC000001494695    0.1300
4      C4      0.0814   -0.7163    2.0894 C.ar     1 ZINC000001494695   -0.1700
5      C5      0.8808   -1.2045    3.1120 C.ar     1 ZINC000001494695   -0.0900
6      C6      1.0255   -2.5648    3.2854 C.ar     1 ZINC000001494695   -0.1300
7      C7      0.3663   -3.4427    2.4369 C.ar     1 ZINC000001494695   -0.1500
8      C8     -0.4369   -2.9614    1.4188 C.ar     1 ZINC000001494695    0.1200
9      O9     -1.0801   -3.8265    0.5898 O.3      1 ZINC000001494695   -0.3000
10     C10    -0.8816   -5.2216    0.8274 C.3      1 ZINC000001494695    0.0200
11     C11     1.8914   -3.1360    4.3775 C.3      1 ZINC000001494695    0.0500
12     N12     2.1440   -2.1316    5.4145 N.4      1 ZINC000001494695   -0.3800
13     H13     1.2793   -1.9046    5.8825 H        1 ZINC000001494695    0.4300
14     C14     3.1058   -2.6628    6.3895 C.3      1 ZINC000001494695   -0.0300
15     C15     2.4840   -3.8529    7.1229 C.3      1 ZINC000001494695    0.0600
16     N16     3.4432   -4.3827    8.0953 N.am     1 ZINC000001494695   -0.5400
17     C17     4.2340   -5.4281    7.7587 C.2      1 ZINC000001494695    0.5600
18     O18     4.1664   -5.9423    6.6575 O.2      1 ZINC000001494695   -0.5100
19     C19     5.1784   -5.9191    8.7731 C.ar     1 ZINC000001494695   -0.2000
20     C20     6.0343   -6.9893    8.5222 C.ar     1 ZINC000001494695   -0.0400
21     C21     6.9015   -7.4114    9.5064 C.ar     1 ZINC000001494695   -0.1300
22     C22     6.9286   -6.7799   10.7429 C.ar     1 ZINC000001494695   -0.0700
23     C23     6.0918   -5.7207   11.0123 C.ar     1 ZINC000001494695   -0.1000
24     C24     5.2028   -5.2733   10.0307 C.ar     1 ZINC000001494695    0.1500
25     N25     4.3679   -4.2394   10.2554 N.2      1 ZINC000001494695   -0.4900
26     C26     3.5380   -3.8137    9.3364 C.2      1 ZINC000001494695    0.4400
27     C27     2.6550   -2.6758    9.6582 C.ar     1 ZINC000001494695   -0.1500
28     C28     1.2707   -2.8004    9.5117 C.ar     1 ZINC000001494695   -0.0500
29     C29     0.4497   -1.7373    9.8131 C.ar     1 ZINC000001494695   -0.2000
30     C30     0.9967   -0.5395   10.2633 C.ar     1 ZINC000001494695    0.2500
31     N31     0.1637    0.5337   10.5673 N.pl3    1 ZINC000001494695   -0.6200
32     C32    -1.2871    0.4015   10.4132 C.3      1 ZINC000001494695    0.0800
33     C33     0.7380    1.7954   11.0414 C.3      1 ZINC000001494695    0.0800
34     C34     2.3747   -0.4124   10.4107 C.ar     1 ZINC000001494695   -0.2000
35     C35     3.2008   -1.4734   10.1156 C.ar     1 ZINC000001494695   -0.0100
36     C36     2.6953   -0.9218    4.7852 C.3      1 ZINC000001494695    0.0000
37     C37     1.5755   -0.2188    4.0169 C.3      1 ZINC000001494695   -0.1000
38     H38    -0.4611    0.7315   -0.0615 H        1 ZINC000001494695    0.0600
39     H39    -2.1060    0.5652   -0.7212 H        1 ZINC000001494695    0.1100
40     H40    -1.8638    0.7326    1.0343 H        1 ZINC000001494695    0.0600
41     H41    -0.0283    0.3497    1.9556 H        1 ZINC000001494695    0.1500
42     H42     0.4777   -4.5081    2.5747 H        1 ZINC000001494695    0.1500
43     H43    -1.4494   -5.7988    0.0977 H        1 ZINC000001494695    0.1100
44     H44     0.1780   -5.4590    0.7335 H        1 ZINC000001494695    0.0600
45     H45    -1.2222   -5.4710    1.8324 H        1 ZINC000001494695    0.0600
46     H46     1.3881   -3.9939    4.8233 H        1 ZINC000001494695    0.1400
47     H47     2.8411   -3.4590    3.9512 H        1 ZINC000001494695    0.1400
48     H48     4.0078   -2.9869    5.8704 H        1 ZINC000001494695    0.1400
49     H49     3.3605   -1.8850    7.1094 H        1 ZINC000001494695    0.1400
50     H50     1.5820   -3.5288    7.6420 H        1 ZINC000001494695    0.1200
51     H51     2.2293   -4.6306    6.4030 H        1 ZINC000001494695    0.1200
52     H52     6.0180   -7.4849    7.5628 H        1 ZINC000001494695    0.1400
53     H53     7.5658   -8.2410    9.3145 H        1 ZINC000001494695    0.1400
54     H54     7.6145   -7.1243   11.5027 H        1 ZINC000001494695    0.1400
55     H55     6.1222   -5.2373   11.9776 H        1 ZINC000001494695    0.1400
56     H56     0.8456   -3.7296    9.1620 H        1 ZINC000001494695    0.1300
57     H57    -0.6201   -1.8328    9.6998 H        1 ZINC000001494695    0.1300
58     H58    -1.7198    0.0373   11.3450 H        1 ZINC000001494695    0.0600
59     H59    -1.7166    1.3730   10.1684 H        1 ZINC000001494695    0.0800
60     H60    -1.5045   -0.3043    9.6114 H        1 ZINC000001494695    0.0700
61     H61     0.9533    2.4396   10.1889 H        1 ZINC000001494695    0.0600
62     H62     0.0277    2.2923   11.7021 H        1 ZINC000001494695    0.0800
63     H63     1.6603    1.5929   11.5858 H        1 ZINC000001494695    0.0800
64     H64     2.7962    0.5184   10.7607 H        1 ZINC000001494695    0.1400
65     H65     4.2701   -1.3742   10.2305 H        1 ZINC000001494695    0.1300
66     H66     3.0863   -0.2552    5.5539 H        1 ZINC000001494695    0.1400
67     H67     3.4937   -1.1989    4.0967 H        1 ZINC000001494695    0.1400
68     H68     1.9981    0.5877    3.4177 H        1 ZINC000001494695    0.1200
69     H69     0.8556    0.1946    4.7232 H        1 ZINC000001494695    0.1000
@<TRIPOS>BOND
1     1     2     1
2     1     38    1
3     1     39    1
4     1     40    1
5     2     3     1
6     3     8     ar
7     3     4     ar
8     4     5     ar
9     4     41    1
10    5     37    1
11    5     6     ar
12    6     7     ar
13    6     11    1
14    7     8     ar
15    7     42    1
16    8     9     1
17    9     10    1
18    10    43    1
19    10    44    1
20    10    45    1
21    11    12    1
22    11    46    1
23    11    47    1
24    12    13    1
25    12    14    1
26    12    36    1
27    14    15    1
28    14    48    1
29    14    49    1
30    15    16    1
31    15    50    1
32    15    51    1
33    16    26    1
34    16    17    am
35    17    18    2
36    17    19    1
37    19    24    ar
38    19    20    ar
39    20    21    ar
40    20    52    1
41    21    22    ar
42    21    53    1
43    22    23    ar
44    22    54    1
45    23    24    ar
46    23    55    1
47    24    25    1
48    25    26    2
49    26    27    1
50    27    35    ar
51    27    28    ar
52    28    29    ar
53    28    56    1
54    29    30    ar
55    29    57    1
56    30    31    1
57    30    34    ar
58    31    32    1
59    31    33    1
60    32    58    1
61    32    59    1
62    32    60    1
63    33    61    1
64    33    62    1
65    33    63    1
66    34    35    ar
67    34    64    1
68    35    65    1
69    36    37    1
70    36    66    1
71    36    67    1
72    37    68    1
73    37    69    1
@<TRIPOS>SUBSTRUCTURE
1   ZINC000001494695 1     RESIDUE    1   A     ZIN   1
