@<TRIPOS>MOLECULE
ZINC000143948360
48    50    1     0     0
SMALL
USER_CHARGES
@<TRIPOS>ATOM
1      N1      8.7499   -4.1262    3.1010 N.pl3    1 ZINC000143948360   -0.8700
2      C2      9.6983   -4.1335    2.0728 C.ar     1 ZINC000143948360    0.2300
3      C3     10.6972   -5.0950    2.0554 C.ar     1 ZINC000143948360   -0.2200
4      C4     11.6350   -5.0998    1.0368 C.ar     1 ZINC000143948360    0.1400
5      F5     12.6079   -6.0371    1.0208 F        1 ZINC000143948360   -0.1400
6      C6     11.5783   -4.1459    0.0350 C.ar     1 ZINC000143948360   -0.1900
7      C7     10.5811   -3.1880    0.0430 C.ar     1 ZINC000143948360   -0.0400
8      C8      9.6419   -3.1731    1.0625 C.ar     1 ZINC000143948360    0.0500
9      N9      8.6342   -2.1986    1.0751 N.am     1 ZINC000143948360   -0.6600
10     C10     8.1094   -1.7570   -0.0851 C.2      1 ZINC000143948360    0.5600
11     O11     8.5652   -2.1423   -1.1442 O.2      1 ZINC000143948360   -0.5100
12     C12     6.9795   -0.8040   -0.0697 C.ar     1 ZINC000143948360   -0.1300
13     C13     6.4336   -0.3446   -1.2695 C.ar     1 ZINC000143948360   -0.0600
14     C14     5.3795    0.5451   -1.2481 C.ar     1 ZINC000143948360   -0.1000
15     C15     4.8636    0.9823   -0.0410 C.ar     1 ZINC000143948360   -0.0800
16     C16     3.7124    1.9547   -0.0253 C.3      1 ZINC000143948360    0.1600
17     N17     2.4481    1.2145   -0.0188 N.am     1 ZINC000143948360   -0.7200
18     C18     1.2769    1.8812   -0.0048 C.2      1 ZINC000143948360    0.5500
19     O19     1.2696    3.0982    0.0025 O.2      1 ZINC000143948360   -0.5400
20     C20     0.0133    1.1415    0.0018 C.2      1 ZINC000143948360   -0.2100
21     C21    -1.1582    1.8084    0.0102 C.2      1 ZINC000143948360   -0.0100
22     C22    -2.4286    1.0647    0.0106 C.ar     1 ZINC000143948360   -0.1300
23     C23    -3.6542    1.7459    0.0193 C.ar     1 ZINC000143948360   -0.0500
24     C24    -4.8187    0.9993    0.0188 C.ar     1 ZINC000143948360   -0.1700
25     C25    -4.7384   -0.3818    0.0099 C.ar     1 ZINC000143948360    0.1100
26     N26    -3.5711   -0.9975    0.0022 N.ar     1 ZINC000143948360   -0.4800
27     C27    -2.4345   -0.3336   -0.0035 C.ar     1 ZINC000143948360    0.1200
28     C28     5.4038    0.5353    1.1518 C.ar     1 ZINC000143948360   -0.1100
29     C29     6.4541   -0.3592    1.1446 C.ar     1 ZINC000143948360   -0.0900
30     H30     8.0518   -3.4528    3.1122 H        1 ZINC000143948360    0.4000
31     H31     8.7903   -4.7945    3.8029 H        1 ZINC000143948360    0.4100
32     H32    10.7439   -5.8397    2.8362 H        1 ZINC000143948360    0.1400
33     H33    12.3117   -4.1532   -0.7577 H        1 ZINC000143948360    0.1400
34     H34    10.5368   -2.4483   -0.7426 H        1 ZINC000143948360    0.1500
35     H35     8.3148   -1.8422    1.9187 H        1 ZINC000143948360    0.4000
36     H36     6.8358   -0.6846   -2.2124 H        1 ZINC000143948360    0.1400
37     H37     4.9561    0.9013   -2.1756 H        1 ZINC000143948360    0.1400
38     H38     3.7587    2.5869   -0.9120 H        1 ZINC000143948360    0.0800
39     H39     3.7740    2.5764    0.8678 H        1 ZINC000143948360    0.0800
40     H40     2.4540    0.2445   -0.0246 H        1 ZINC000143948360    0.4000
41     H41     0.0198    0.0615   -0.0047 H        1 ZINC000143948360    0.1300
42     H42    -1.1647    2.8884    0.0166 H        1 ZINC000143948360    0.1400
43     H43    -3.6881    2.8254    0.0265 H        1 ZINC000143948360    0.1400
44     H44    -5.7810    1.4897    0.0250 H        1 ZINC000143948360    0.1400
45     H45    -5.6466   -0.9662    0.0095 H        1 ZINC000143948360    0.1600
46     H46    -1.4990   -0.8732   -0.0145 H        1 ZINC000143948360    0.1600
47     H47     4.9996    0.8842    2.0906 H        1 ZINC000143948360    0.1300
48     H48     6.8719   -0.7108    2.0763 H        1 ZINC000143948360    0.1300
@<TRIPOS>BOND
1     1     2     1
2     1     30    1
3     1     31    1
4     2     8     ar
5     2     3     ar
6     3     4     ar
7     3     32    1
8     4     5     1
9     4     6     ar
10    6     7     ar
11    6     33    1
12    7     8     ar
13    7     34    1
14    8     9     1
15    9     10    am
16    9     35    1
17    10    11    2
18    10    12    1
19    12    29    ar
20    12    13    ar
21    13    14    ar
22    13    36    1
23    14    15    ar
24    14    37    1
25    15    16    1
26    15    28    ar
27    16    17    1
28    16    38    1
29    16    39    1
30    17    18    am
31    17    40    1
32    18    19    2
33    18    20    1
34    20    21    2
35    20    41    1
36    21    22    1
37    21    42    1
38    22    27    ar
39    22    23    ar
40    23    24    ar
41    23    43    1
42    24    25    ar
43    24    44    1
44    25    26    ar
45    25    45    1
46    26    27    ar
47    27    46    1
48    28    29    ar
49    28    47    1
50    29    48    1
@<TRIPOS>SUBSTRUCTURE
1   ZINC000143948360 1     RESIDUE    1   A     ZIN   1
