@<TRIPOS>MOLECULE
ZINC000084758360
109   110   1     0     0
SMALL
USER_CHARGES
@<TRIPOS>ATOM
1      C1     -0.0187    1.5258    0.0104 C.3      1 ZINC000084758360   -0.1500
2      C2      0.0021   -0.0041    0.0020 C.3      1 ZINC000084758360   -0.1300
3      C3     -1.4333   -0.5336    0.0129 C.3      1 ZINC000084758360   -0.1200
4      C4     -1.4126   -2.0635    0.0045 C.3      1 ZINC000084758360   -0.1200
5      C5     -2.8479   -2.5931    0.0153 C.3      1 ZINC000084758360   -0.1200
6      C6     -2.8272   -4.1229    0.0069 C.3      1 ZINC000084758360   -0.1200
7      C7     -4.2626   -4.6525    0.0178 C.3      1 ZINC000084758360   -0.1200
8      C8     -4.2418   -6.1823    0.0094 C.3      1 ZINC000084758360   -0.1200
9      C9     -5.6772   -6.7119    0.0202 C.3      1 ZINC000084758360   -0.1200
10     C10    -5.6565   -8.2417    0.0118 C.3      1 ZINC000084758360   -0.1100
11     C11    -7.0918   -8.7713    0.0227 C.3      1 ZINC000084758360   -0.1000
12     C12    -7.0711  -10.3012    0.0143 C.3      1 ZINC000084758360   -0.1000
13     S13    -8.7729  -10.9290    0.0271 S.3      1 ZINC000084758360   -0.2500
14     C14    -8.5441  -12.7285    0.0153 C.3      1 ZINC000084758360   -0.1100
15     C15    -9.9106  -13.4165    0.0246 C.3      1 ZINC000084758360    0.1000
16     H16   -10.4921  -13.0579    0.8740 H        1 ZINC000084758360    0.0800
17     C17    -9.7189  -14.9300    0.1404 C.3      1 ZINC000084758360    0.1500
18     O18   -10.9936  -15.5634    0.2663 O.3      1 ZINC000084758360   -0.7500
19     P19   -11.1705  -17.1572    0.4099 P.3      1 ZINC000084758360    2.2400
20     O20   -10.4658  -17.8620   -0.7707 O.co2    1 ZINC000084758360   -1.1000
21     O21   -10.5411  -17.6274    1.7402 O.co2    1 ZINC000084758360   -1.1000
22     O22   -12.7375  -17.5266    0.3974 O.3      1 ZINC000084758360   -0.7500
23     C23   -13.2201  -18.8716    0.4036 C.3      1 ZINC000084758360    0.1500
24     C24   -14.7501  -18.8645    0.3884 C.3      1 ZINC000084758360    0.0900
25     H25   -15.1341  -18.2595    1.2098 H        1 ZINC000084758360    0.0900
26     O26   -15.2380  -18.3642   -0.8755 O.3      1 ZINC000084758360   -0.3300
27     C27   -16.5939  -18.8506   -0.9794 C.3      1 ZINC000084758360    0.3100
28     H28   -17.2623  -18.2447   -0.3677 H        1 ZINC000084758360    0.1000
29     N29   -17.0336  -18.8406   -2.3768 N.am     1 ZINC000084758360   -0.5400
30     C30   -18.1929  -18.1944   -2.7193 C.2      1 ZINC000084758360    0.1000
31     C31   -18.5972  -18.1854   -4.0080 C.2      1 ZINC000084758360   -0.1100
32     F32   -19.7369  -17.5531   -4.3637 F        1 ZINC000084758360   -0.1400
33     C33   -17.8091  -18.8480   -4.9821 C.2      1 ZINC000084758360    0.5100
34     O34   -18.1527  -18.8535   -6.1505 O.2      1 ZINC000084758360   -0.5900
35     N35   -16.6754  -19.4719   -4.6034 N.pl3    1 ZINC000084758360   -0.6800
36     C36   -16.2929  -19.4611   -3.3130 C.2      1 ZINC000084758360    0.6500
37     O37   -15.2677  -20.0280   -2.9872 O.2      1 ZINC000084758360   -0.5800
38     C38   -16.5363  -20.2976   -0.4416 C.3      1 ZINC000084758360    0.0400
39     H39   -16.4092  -21.0049   -1.2611 H        1 ZINC000084758360    0.1000
40     O40   -17.7175  -20.6025    0.3026 O.3      1 ZINC000084758360   -0.5500
41     C41   -15.2955  -20.3067    0.4820 C.3      1 ZINC000084758360    0.0500
42     H42   -14.5541  -21.0183    0.1185 H        1 ZINC000084758360    0.0900
43     O43   -15.6726  -20.6202    1.8242 O.3      1 ZINC000084758360   -0.5400
44     O44   -10.6037  -13.1156   -1.1882 O.3      1 ZINC000084758360   -0.3600
45     C45   -11.4123  -11.9394   -1.1191 C.3      1 ZINC000084758360    0.0600
46     C46   -12.1034  -11.7157   -2.4657 C.3      1 ZINC000084758360   -0.1200
47     C47   -12.9691  -10.4563   -2.3918 C.3      1 ZINC000084758360   -0.1100
48     C48   -13.6601  -10.2327   -3.7384 C.3      1 ZINC000084758360   -0.1200
49     C49   -14.5259   -8.9733   -3.6644 C.3      1 ZINC000084758360   -0.1200
50     C50   -15.2169   -8.7497   -5.0110 C.3      1 ZINC000084758360   -0.1200
51     C51   -16.0826   -7.4903   -4.9370 C.3      1 ZINC000084758360   -0.1200
52     C52   -16.7737   -7.2667   -6.2836 C.3      1 ZINC000084758360   -0.1200
53     C53   -17.6394   -6.0073   -6.2096 C.3      1 ZINC000084758360   -0.1200
54     C54   -18.3304   -5.7837   -7.5562 C.3      1 ZINC000084758360   -0.1500
55     H55     1.0039    1.9031    0.0027 H        1 ZINC000084758360    0.0500
56     H56    -0.5459    1.8868   -0.8726 H        1 ZINC000084758360    0.0500
57     H57    -0.5289    1.8773    0.9072 H        1 ZINC000084758360    0.0500
58     H58     0.5123   -0.3556   -0.8948 H        1 ZINC000084758360    0.0600
59     H59     0.5293   -0.3651    0.8851 H        1 ZINC000084758360    0.0600
60     H60    -1.9435   -0.1821    0.9097 H        1 ZINC000084758360    0.0600
61     H61    -1.9605   -0.1726   -0.8702 H        1 ZINC000084758360    0.0600
62     H62    -0.9024   -2.4150   -0.8923 H        1 ZINC000084758360    0.0600
63     H63    -0.8854   -2.4246    0.8875 H        1 ZINC000084758360    0.0600
64     H64    -3.3581   -2.2415    0.9121 H        1 ZINC000084758360    0.0600
65     H65    -3.3751   -2.2320   -0.8677 H        1 ZINC000084758360    0.0600
66     H66    -2.3170   -4.4744   -0.8899 H        1 ZINC000084758360    0.0600
67     H67    -2.3000   -4.4840    0.8900 H        1 ZINC000084758360    0.0600
68     H68    -4.7728   -4.3010    0.9146 H        1 ZINC000084758360    0.0600
69     H69    -4.7898   -4.2914   -0.8653 H        1 ZINC000084758360    0.0600
70     H70    -3.7316   -6.5338   -0.8874 H        1 ZINC000084758360    0.0600
71     H71    -3.7146   -6.5434    0.8924 H        1 ZINC000084758360    0.0600
72     H72    -6.1874   -6.3604    0.9170 H        1 ZINC000084758360    0.0600
73     H73    -6.2044   -6.3508   -0.8628 H        1 ZINC000084758360    0.0600
74     H74    -5.1463   -8.5933   -0.8850 H        1 ZINC000084758360    0.0600
75     H75    -5.1293   -8.6028    0.8949 H        1 ZINC000084758360    0.0600
76     H76    -7.6020   -8.4198    0.9195 H        1 ZINC000084758360    0.0700
77     H77    -7.6190   -8.4102   -0.8604 H        1 ZINC000084758360    0.0700
78     H78    -6.5609  -10.6527   -0.8825 H        1 ZINC000084758360    0.0800
79     H79    -6.5439  -10.6622    0.8973 H        1 ZINC000084758360    0.0800
80     H80    -7.9970  -13.0193   -0.8815 H        1 ZINC000084758360    0.0900
81     H81    -7.9800  -13.0289    0.8983 H        1 ZINC000084758360    0.0900
82     H82    -9.2150  -15.3017   -0.7518 H        1 ZINC000084758360    0.0700
83     H83    -9.1138  -15.1534    1.0191 H        1 ZINC000084758360    0.0600
84     H84   -12.8505  -19.3943   -0.4785 H        1 ZINC000084758360    0.0700
85     H85   -12.8681  -19.3798    1.3013 H        1 ZINC000084758360    0.0700
86     H86   -18.7801  -17.6953   -1.9626 H        1 ZINC000084758360    0.1500
87     H87   -17.7344  -21.4994    0.6637 H        1 ZINC000084758360    0.3700
88     H88   -16.0757  -21.4933    1.9258 H        1 ZINC000084758360    0.3700
89     H89   -12.1651  -12.0612   -0.3403 H        1 ZINC000084758360    0.0400
90     H90   -10.7840  -11.0797   -0.8860 H        1 ZINC000084758360    0.0700
91     H91   -11.3506  -11.5939   -3.2446 H        1 ZINC000084758360    0.0700
92     H92   -12.7316  -12.5753   -2.6989 H        1 ZINC000084758360    0.0700
93     H93   -13.7218  -10.5782   -1.6129 H        1 ZINC000084758360    0.0600
94     H94   -12.3408   -9.5967   -2.1586 H        1 ZINC000084758360    0.0600
95     H95   -12.9074  -10.1109   -4.5172 H        1 ZINC000084758360    0.0600
96     H96   -14.2884  -11.0923   -3.9716 H        1 ZINC000084758360    0.0700
97     H97   -15.2786   -9.0952   -2.8855 H        1 ZINC000084758360    0.0600
98     H98   -13.8976   -8.1137   -3.4312 H        1 ZINC000084758360    0.0600
99     H99   -14.4641   -8.6278   -5.7898 H        1 ZINC000084758360    0.0600
100    H100  -15.8452   -9.6093   -5.2442 H        1 ZINC000084758360    0.0600
101    H101  -16.8354   -7.6121   -4.1581 H        1 ZINC000084758360    0.0600
102    H102  -15.4543   -6.6307   -4.7038 H        1 ZINC000084758360    0.0600
103    H103  -16.0209   -7.1448   -7.0625 H        1 ZINC000084758360    0.0600
104    H104  -17.4020   -8.1263   -6.5168 H        1 ZINC000084758360    0.0600
105    H105  -18.3922   -6.1291   -5.4307 H        1 ZINC000084758360    0.0600
106    H106  -17.0111   -5.1477   -5.9764 H        1 ZINC000084758360    0.0600
107    H107  -18.9587   -6.6433   -7.7894 H        1 ZINC000084758360    0.0500
108    H108  -18.9472   -4.8865   -7.5035 H        1 ZINC000084758360    0.0500
109    H109  -17.5777   -5.6618   -8.3351 H        1 ZINC000084758360    0.0500
@<TRIPOS>BOND
1     1     2     1
2     1     55    1
3     1     56    1
4     1     57    1
5     2     3     1
6     2     58    1
7     2     59    1
8     3     4     1
9     3     60    1
10    3     61    1
11    4     5     1
12    4     62    1
13    4     63    1
14    5     6     1
15    5     64    1
16    5     65    1
17    6     7     1
18    6     66    1
19    6     67    1
20    7     8     1
21    7     68    1
22    7     69    1
23    8     9     1
24    8     70    1
25    8     71    1
26    9     10    1
27    9     72    1
28    9     73    1
29    10    11    1
30    10    74    1
31    10    75    1
32    11    12    1
33    11    76    1
34    11    77    1
35    12    13    1
36    12    78    1
37    12    79    1
38    13    14    1
39    14    15    1
40    14    80    1
41    14    81    1
42    15    16    1
43    15    17    1
44    15    44    1
45    17    18    1
46    17    82    1
47    17    83    1
48    18    19    1
49    19    20    ar
50    19    21    ar
51    19    22    1
52    22    23    1
53    23    24    1
54    23    84    1
55    23    85    1
56    24    25    1
57    24    41    1
58    24    26    1
59    26    27    1
60    27    28    1
61    27    29    1
62    27    38    1
63    29    36    am
64    29    30    1
65    30    31    2
66    30    86    1
67    31    32    1
68    31    33    1
69    33    34    2
70    33    35    1
71    35    36    1
72    36    37    2
73    38    39    1
74    38    40    1
75    38    41    1
76    40    87    1
77    41    42    1
78    41    43    1
79    43    88    1
80    44    45    1
81    45    46    1
82    45    89    1
83    45    90    1
84    46    47    1
85    46    91    1
86    46    92    1
87    47    48    1
88    47    93    1
89    47    94    1
90    48    49    1
91    48    95    1
92    48    96    1
93    49    50    1
94    49    97    1
95    49    98    1
96    50    51    1
97    50    99    1
98    50    100   1
99    51    52    1
100   51    101   1
101   51    102   1
102   52    53    1
103   52    103   1
104   52    104   1
105   53    54    1
106   53    105   1
107   53    106   1
108   54    107   1
109   54    108   1
110   54    109   1
@<TRIPOS>SUBSTRUCTURE
1   ZINC000084758360 1     RESIDUE    1   A     ZIN   1
