@<TRIPOS>MOLECULE
ZINC000000598759
59    62    1     0     0
SMALL
USER_CHARGES
@<TRIPOS>ATOM
1      C1     -0.4591   -0.6978    0.6255 C.3      1 ZINC000000598759   -0.1700
2      C2      0.1734    0.6547    0.2914 C.3      1 ZINC000000598759    0.0700
3      N3      0.8795    0.5606   -0.9888 N.pl3    1 ZINC000000598759   -0.4700
4      C4      0.2655    1.0016   -2.0937 C.2      1 ZINC000000598759    0.2600
5      C5      0.8622    0.9482   -3.3372 C.2      1 ZINC000000598759   -0.3300
6      C6      0.1550    1.4430   -4.5263 C.2      1 ZINC000000598759    0.5600
7      O7     -0.9648    1.9041   -4.4196 O.2      1 ZINC000000598759   -0.5400
8      O8      0.7480    1.3857   -5.7357 O.3      1 ZINC000000598759   -0.4900
9      C9      2.2187    0.3880   -3.4529 C.2      1 ZINC000000598759    0.4400
10     O10     2.7876    0.3198   -4.5287 O.2      1 ZINC000000598759   -0.4500
11     C11     2.8599   -0.0860   -2.2149 C.ar     1 ZINC000000598759   -0.1500
12     C12     4.1459   -0.6314   -2.2329 C.ar     1 ZINC000000598759   -0.0500
13     C13     4.7204   -1.0661   -1.0595 C.ar     1 ZINC000000598759    0.0500
14     F14     5.9640   -1.5939   -1.0740 F        1 ZINC000000598759   -0.1200
15     C15     4.0227   -0.9629    0.1449 C.ar     1 ZINC000000598759    0.1100
16     N16     4.6152   -1.4060    1.3289 N.3      1 ZINC000000598759   -0.4900
17     C17     5.8739   -0.6928    1.5870 C.3      1 ZINC000000598759    0.0500
18     C18     6.4497   -1.1491    2.9297 C.3      1 ZINC000000598759    0.0700
19     N19     6.6680   -2.6020    2.8977 N.3      1 ZINC000000598759   -0.4900
20     C20     7.2620   -3.0462    4.0846 C.ar     1 ZINC000000598759    0.0500
21     C21     6.6157   -2.8603    5.2975 C.ar     1 ZINC000000598759   -0.1100
22     C22     7.2043   -3.3004    6.4686 C.ar     1 ZINC000000598759   -0.1500
23     C23     8.4365   -3.9255    6.4343 C.ar     1 ZINC000000598759   -0.0800
24     C24     9.0872   -4.1140    5.2282 C.ar     1 ZINC000000598759   -0.2100
25     C25     8.5017   -3.6817    4.0503 C.ar     1 ZINC000000598759    0.1500
26     O26     9.1404   -3.8664    2.8637 O.3      1 ZINC000000598759   -0.3000
27     C27    10.4135   -4.5141    2.9062 C.3      1 ZINC000000598759    0.0200
28     C28     5.4093   -3.3153    2.6396 C.3      1 ZINC000000598759    0.0700
29     C29     4.8335   -2.8589    1.2970 C.3      1 ZINC000000598759    0.0600
30     C30     2.7439   -0.4225    0.1746 C.ar     1 ZINC000000598759    0.0800
31     O31     2.0720   -0.3259    1.3541 O.3      1 ZINC000000598759   -0.3000
32     C32     2.4887    0.7015    2.2558 C.3      1 ZINC000000598759    0.4000
33     F33     3.7966    0.4460    2.6815 F        1 ZINC000000598759   -0.1800
34     F34     2.4433    1.9393    1.6055 F        1 ZINC000000598759   -0.2000
35     C35     2.1524    0.0260   -1.0042 C.ar     1 ZINC000000598759    0.1800
36     H36    -1.2309   -0.9292   -0.1085 H        1 ZINC000000598759    0.0600
37     H37     0.3073   -1.4726    0.6036 H        1 ZINC000000598759    0.0700
38     H38    -0.9042   -0.6550    1.6196 H        1 ZINC000000598759    0.0800
39     H39    -0.6063    1.4131    0.2213 H        1 ZINC000000598759    0.1000
40     H40     0.8785    0.9299    1.0758 H        1 ZINC000000598759    0.1100
41     H41    -0.7298    1.4123   -2.0094 H        1 ZINC000000598759    0.1800
42     H42     0.2435    1.7233   -6.4884 H        1 ZINC000000598759    0.4100
43     H43     4.6873   -0.7121   -3.1639 H        1 ZINC000000598759    0.1600
44     H44     6.5863   -0.9131    0.7921 H        1 ZINC000000598759    0.0600
45     H45     5.6840    0.3801    1.6185 H        1 ZINC000000598759    0.0900
46     H46     7.3980   -0.6427    3.1096 H        1 ZINC000000598759    0.0800
47     H47     5.7491   -0.9041    3.7279 H        1 ZINC000000598759    0.0500
48     H48     5.6531   -2.3715    5.3273 H        1 ZINC000000598759    0.1300
49     H49     6.7001   -3.1551    7.4126 H        1 ZINC000000598759    0.1200
50     H50     8.8927   -4.2673    7.3515 H        1 ZINC000000598759    0.1300
51     H51    10.0503   -4.6022    5.2050 H        1 ZINC000000598759    0.1300
52     H52    11.0986   -3.9288    3.5196 H        1 ZINC000000598759    0.0500
53     H53    10.3007   -5.5093    3.3361 H        1 ZINC000000598759    0.0500
54     H54    10.8123   -4.5981    1.8953 H        1 ZINC000000598759    0.1000
55     H55     5.5992   -4.3881    2.6081 H        1 ZINC000000598759    0.0800
56     H56     4.6969   -3.0949    3.4346 H        1 ZINC000000598759    0.0500
57     H57     3.8852   -3.3653    1.1170 H        1 ZINC000000598759    0.0900
58     H58     5.5342   -3.1039    0.4987 H        1 ZINC000000598759    0.0600
59     H59     1.8227    0.7197    3.1185 H        1 ZINC000000598759    0.1800
@<TRIPOS>BOND
1     1     2     1
2     1     36    1
3     1     37    1
4     1     38    1
5     2     3     1
6     2     39    1
7     2     40    1
8     3     35    1
9     3     4     1
10    4     5     2
11    4     41    1
12    5     6     1
13    5     9     1
14    6     7     2
15    6     8     1
16    8     42    1
17    9     10    2
18    9     11    1
19    11    35    ar
20    11    12    ar
21    12    13    ar
22    12    43    1
23    13    14    1
24    13    15    ar
25    15    16    1
26    15    30    ar
27    16    29    1
28    16    17    1
29    17    18    1
30    17    44    1
31    17    45    1
32    18    19    1
33    18    46    1
34    18    47    1
35    19    20    1
36    19    28    1
37    20    25    ar
38    20    21    ar
39    21    22    ar
40    21    48    1
41    22    23    ar
42    22    49    1
43    23    24    ar
44    23    50    1
45    24    25    ar
46    24    51    1
47    25    26    1
48    26    27    1
49    27    52    1
50    27    53    1
51    27    54    1
52    28    29    1
53    28    55    1
54    28    56    1
55    29    57    1
56    29    58    1
57    30    31    1
58    30    35    ar
59    31    32    1
60    32    33    1
61    32    34    1
62    32    59    1
@<TRIPOS>SUBSTRUCTURE
1   ZINC000000598759 1     RESIDUE    1   A     ZIN   1
