@<TRIPOS>MOLECULE
ZINC000003966243
84    88    1     0     0
SMALL
USER_CHARGES
@<TRIPOS>ATOM
1      C1     -1.3245    2.1217    0.4960 C.3      1 ZINC000003966243    0.0200
2      O2     -1.3052    0.7051    0.3095 O.3      1 ZINC000003966243   -0.3000
3      C3     -0.4537   -0.0092    1.0929 C.ar     1 ZINC000003966243    0.1100
4      C4     -0.3858   -1.4022    0.9521 C.ar     1 ZINC000003966243    0.1600
5      O5     -1.1713   -2.0239    0.0345 O.3      1 ZINC000003966243   -0.2900
6      C6     -1.0564   -3.4450   -0.0615 C.3      1 ZINC000003966243    0.0600
7      C7     -2.0106   -3.9621   -1.1400 C.3      1 ZINC000003966243   -0.1500
8      C8     -1.8876   -5.4837   -1.2427 C.3      1 ZINC000003966243   -0.0100
9      N9     -2.8038   -5.9802   -2.2782 N.4      1 ZINC000003966243   -0.3800
10     H10    -3.7406   -5.6645   -2.0764 H        1 ZINC000003966243    0.4200
11     C11    -2.7758   -7.4477   -2.2913 C.3      1 ZINC000003966243   -0.0100
12     C12    -3.7881   -7.9718   -3.3122 C.3      1 ZINC000003966243   -0.1500
13     C13    -3.4253   -7.4403   -4.7018 C.3      1 ZINC000003966243   -0.1400
14     C14    -3.3847   -5.9101   -4.6577 C.3      1 ZINC000003966243   -0.1500
15     C15    -2.3864   -5.4638   -3.5872 C.3      1 ZINC000003966243   -0.0100
16     C16     0.4691   -2.1474    1.7337 C.ar     1 ZINC000003966243   -0.1800
17     C17     1.2779   -1.5040    2.6782 C.ar     1 ZINC000003966243    0.1800
18     N18     2.1277   -2.1842    3.4637 N.ar     1 ZINC000003966243   -0.5200
19     C19     2.8732   -1.5538    4.3395 C.ar     1 ZINC000003966243    0.3200
20     N20     2.8374   -0.2406    4.5027 N.ar     1 ZINC000003966243   -0.5600
21     C21     2.0333    0.5263    3.7783 C.ar     1 ZINC000003966243    0.3900
22     N22     2.0068    1.8937    3.9588 N.3      1 ZINC000003966243   -0.4800
23     C23     3.0371    2.5523    3.1446 C.3      1 ZINC000003966243    0.0500
24     C24     2.8584    4.0717    3.2319 C.3      1 ZINC000003966243    0.1400
25     N25     2.8446    4.4598    4.6505 N.am     1 ZINC000003966243   -0.6300
26     C26     3.6456    5.4431    5.1064 C.2      1 ZINC000003966243    0.7100
27     O27     4.3048    6.1017    4.3253 O.2      1 ZINC000003966243   -0.5700
28     N28     3.7160    5.6964    6.4283 N.am     1 ZINC000003966243   -0.6800
29     C29     4.3886    6.8367    6.8885 C.ar     1 ZINC000003966243    0.1200
30     C30     5.3580    7.4378    6.0970 C.ar     1 ZINC000003966243   -0.1000
31     C31     6.0200    8.5616    6.5508 C.ar     1 ZINC000003966243   -0.1900
32     C32     5.7170    9.0895    7.7973 C.ar     1 ZINC000003966243    0.1200
33     O33     6.3696   10.1957    8.2437 O.3      1 ZINC000003966243   -0.3100
34     C34     7.2451   10.8486    7.3221 C.3      1 ZINC000003966243    0.0800
35     C35     7.3978   12.3187    7.7178 C.3      1 ZINC000003966243   -0.1500
36     C36     8.6150   10.1679    7.3505 C.3      1 ZINC000003966243   -0.1800
37     C37     4.7483    8.4895    8.5883 C.ar     1 ZINC000003966243   -0.1300
38     C38     4.0818    7.3688    8.1335 C.ar     1 ZINC000003966243   -0.1100
39     C39     1.9331    3.7467    5.5582 C.3      1 ZINC000003966243    0.1100
40     C40     2.1482    2.2401    5.3793 C.3      1 ZINC000003966243    0.0500
41     C41     1.2037   -0.0956    2.8150 C.ar     1 ZINC000003966243   -0.1300
42     C42     0.3301    0.6393    2.0046 C.ar     1 ZINC000003966243   -0.1300
43     H43    -0.3328    2.5280    0.2969 H        1 ZINC000003966243    0.0600
44     H44    -2.0446    2.5687   -0.1894 H        1 ZINC000003966243    0.1100
45     H45    -1.6108    2.3491    1.5229 H        1 ZINC000003966243    0.0600
46     H46    -0.0324   -3.7098   -0.3251 H        1 ZINC000003966243    0.0800
47     H47    -1.3130   -3.8959    0.8971 H        1 ZINC000003966243    0.0800
48     H48    -3.0346   -3.6974   -0.8764 H        1 ZINC000003966243    0.1000
49     H49    -1.7540   -3.5113   -2.0986 H        1 ZINC000003966243    0.1000
50     H50    -0.8637   -5.7485   -1.5063 H        1 ZINC000003966243    0.1300
51     H51    -2.1442   -5.9346   -0.2841 H        1 ZINC000003966243    0.1400
52     H52    -1.7769   -7.7892   -2.5626 H        1 ZINC000003966243    0.1300
53     H53    -3.0311   -7.8244   -1.3008 H        1 ZINC000003966243    0.1300
54     H54    -3.7645   -9.0615   -3.3217 H        1 ZINC000003966243    0.1100
55     H55    -4.7875   -7.6311   -3.0417 H        1 ZINC000003966243    0.0900
56     H56    -2.4473   -7.8226   -4.9943 H        1 ZINC000003966243    0.0800
57     H57    -4.1753   -7.7644   -5.4232 H        1 ZINC000003966243    0.0900
58     H58    -3.0728   -5.5261   -5.6289 H        1 ZINC000003966243    0.1100
59     H59    -4.3758   -5.5265   -4.4151 H        1 ZINC000003966243    0.0900
60     H60    -2.3541   -4.3748   -3.5525 H        1 ZINC000003966243    0.1300
61     H61    -1.3961   -5.8481   -3.8318 H        1 ZINC000003966243    0.1300
62     H62     0.5151   -3.2203    1.6190 H        1 ZINC000003966243    0.1500
63     H63     3.5461   -2.1319    4.9554 H        1 ZINC000003966243    0.2000
64     H64     4.0244    2.2801    3.5177 H        1 ZINC000003966243    0.0600
65     H65     2.9393    2.2335    2.1068 H        1 ZINC000003966243    0.0900
66     H66     3.6861    4.5674    2.7247 H        1 ZINC000003966243    0.1100
67     H67     1.9156    4.3569    2.7650 H        1 ZINC000003966243    0.0800
68     H68     3.3011    5.0896    7.0612 H        1 ZINC000003966243    0.4100
69     H69     5.5945    7.0265    5.1268 H        1 ZINC000003966243    0.1700
70     H70     6.7742    9.0293    5.9352 H        1 ZINC000003966243    0.1300
71     H71     6.8281   10.7843    6.3171 H        1 ZINC000003966243    0.0700
72     H72     7.8147   12.3830    8.7228 H        1 ZINC000003966243    0.0700
73     H73     8.0655   12.8167    7.0148 H        1 ZINC000003966243    0.0800
74     H74     6.4218   12.8036    7.6976 H        1 ZINC000003966243    0.0700
75     H75     9.0320   10.2323    8.3555 H        1 ZINC000003966243    0.0700
76     H76     8.5063    9.1206    7.0686 H        1 ZINC000003966243    0.0600
77     H77     9.2828   10.6659    6.6475 H        1 ZINC000003966243    0.0700
78     H78     4.5128    8.9010    9.5587 H        1 ZINC000003966243    0.1300
79     H79     3.3273    6.9021    8.7493 H        1 ZINC000003966243    0.1300
80     H80     2.1490    4.0276    6.5890 H        1 ZINC000003966243    0.0900
81     H81     0.9013    4.0007    5.3149 H        1 ZINC000003966243    0.0900
82     H82     1.4058    1.6949    5.9623 H        1 ZINC000003966243    0.0900
83     H83     3.1479    1.9723    5.7212 H        1 ZINC000003966243    0.0700
84     H84     0.2730    1.7133    2.1027 H        1 ZINC000003966243    0.1600
@<TRIPOS>BOND
1     1     2     1
2     1     43    1
3     1     44    1
4     1     45    1
5     2     3     1
6     3     42    ar
7     3     4     ar
8     4     5     1
9     4     16    ar
10    5     6     1
11    6     7     1
12    6     46    1
13    6     47    1
14    7     8     1
15    7     48    1
16    7     49    1
17    8     9     1
18    8     50    1
19    8     51    1
20    9     10    1
21    9     15    1
22    9     11    1
23    11    12    1
24    11    52    1
25    11    53    1
26    12    13    1
27    12    54    1
28    12    55    1
29    13    14    1
30    13    56    1
31    13    57    1
32    14    15    1
33    14    58    1
34    14    59    1
35    15    60    1
36    15    61    1
37    16    17    ar
38    16    62    1
39    17    41    ar
40    17    18    ar
41    18    19    ar
42    19    20    ar
43    19    63    1
44    20    21    ar
45    21    22    1
46    21    41    ar
47    22    40    1
48    22    23    1
49    23    24    1
50    23    64    1
51    23    65    1
52    24    25    1
53    24    66    1
54    24    67    1
55    25    26    am
56    25    39    1
57    26    27    2
58    26    28    am
59    28    29    1
60    28    68    1
61    29    38    ar
62    29    30    ar
63    30    31    ar
64    30    69    1
65    31    32    ar
66    31    70    1
67    32    33    1
68    32    37    ar
69    33    34    1
70    34    35    1
71    34    36    1
72    34    71    1
73    35    72    1
74    35    73    1
75    35    74    1
76    36    75    1
77    36    76    1
78    36    77    1
79    37    38    ar
80    37    78    1
81    38    79    1
82    39    40    1
83    39    80    1
84    39    81    1
85    40    82    1
86    40    83    1
87    41    42    ar
88    42    84    1
@<TRIPOS>SUBSTRUCTURE
1   ZINC000003966243 1     RESIDUE    1   A     ZIN   1
