@<TRIPOS>MOLECULE
ZINC000256335399
49    52    1     0     0
SMALL
USER_CHARGES
@<TRIPOS>ATOM
1      C1     -0.0187    1.5258    0.0104 C.3      1 ZINC000256335399   -0.1600
2      C2      0.0021   -0.0041    0.0020 C.3      1 ZINC000256335399   -0.0800
3      H3      0.4339   -0.3442   -0.9392 H        1 ZINC000256335399    0.0700
4      C4     -1.4276   -0.5149    0.0991 C.3      1 ZINC000256335399   -0.0900
5      C5     -1.7584   -0.8042    1.5421 C.2      1 ZINC000256335399   -0.0100
6      C6     -2.7552   -0.1685    2.1496 C.2      1 ZINC000256335399   -0.2500
7      C7     -3.0737   -0.4340    3.5513 C.2      1 ZINC000256335399    0.3900
8      O8     -4.0031    0.1383    4.0811 O.2      1 ZINC000256335399   -0.4700
9      C9     -2.2474   -1.4197    4.3388 C.3      1 ZINC000256335399   -0.1700
10     C10    -0.8339   -1.4663    3.7482 C.3      1 ZINC000256335399   -0.1100
11     C11    -0.9289   -1.8312    2.2652 C.3      1 ZINC000256335399   -0.0700
12     H12    -1.3931   -2.8119    2.1614 H        1 ZINC000256335399    0.0900
13     C13     0.4786   -1.8644    1.6548 C.3      1 ZINC000256335399   -0.0700
14     H14     0.5055   -2.5842    0.8367 H        1 ZINC000256335399    0.0700
15     C15     1.4385   -2.3125    2.7671 C.3      1 ZINC000256335399   -0.1400
16     C16     2.8512   -2.4090    2.1981 C.3      1 ZINC000256335399   -0.0900
17     C17     3.3042   -1.0614    1.6825 C.3      1 ZINC000256335399   -0.0500
18     C18     4.6846   -1.2101    1.0396 C.3      1 ZINC000256335399   -0.1500
19     C19     3.4007   -0.0058    2.7920 C.3      1 ZINC000256335399    0.1100
20     H20     4.4114    0.0203    3.1993 H        1 ZINC000256335399    0.0600
21     O21     2.4594   -0.2923    3.8283 O.3      1 ZINC000256335399   -0.5400
22     C22     3.0624    1.3412    2.1211 C.3      1 ZINC000256335399   -0.1600
23     C23     2.7669    1.0293    0.6379 C.3      1 ZINC000256335399   -0.1500
24     C24     2.3329   -0.4673    0.6514 C.3      1 ZINC000256335399   -0.0700
25     H25     2.4410   -0.9352   -0.3272 H        1 ZINC000256335399    0.0800
26     C26     0.8807   -0.4911    1.1517 C.3      1 ZINC000256335399   -0.0600
27     H27     0.7897    0.2129    1.9788 H        1 ZINC000256335399    0.0800
28     H28     0.7885    1.9035   -0.6171 H        1 ZINC000256335399    0.0600
29     H29    -0.9749    1.8783   -0.3762 H        1 ZINC000256335399    0.0600
30     H30     0.1155    1.8853    1.0306 H        1 ZINC000256335399    0.0600
31     H31    -2.1111    0.2418   -0.2860 H        1 ZINC000256335399    0.0800
32     H32    -1.5281   -1.4283   -0.4872 H        1 ZINC000256335399    0.0800
33     H33    -3.3387    0.5547    1.5993 H        1 ZINC000256335399    0.1300
34     H34    -2.1974   -1.1039    5.3808 H        1 ZINC000256335399    0.0900
35     H35    -2.7017   -2.4086    4.2767 H        1 ZINC000256335399    0.1000
36     H36    -0.3614   -0.4899    3.8547 H        1 ZINC000256335399    0.0800
37     H37    -0.2439   -2.2184    4.2721 H        1 ZINC000256335399    0.0900
38     H38     1.4212   -1.5848    3.5784 H        1 ZINC000256335399    0.1300
39     H39     1.1299   -3.2876    3.1439 H        1 ZINC000256335399    0.0500
40     H40     3.5328   -2.7437    2.9801 H        1 ZINC000256335399    0.0600
41     H41     2.8623   -3.1301    1.3808 H        1 ZINC000256335399    0.0500
42     H42     4.6235   -1.9088    0.2052 H        1 ZINC000256335399    0.0600
43     H43     5.0228   -0.2395    0.6766 H        1 ZINC000256335399    0.0600
44     H44     5.3909   -1.5878    1.7788 H        1 ZINC000256335399    0.0600
45     H45     2.4734    0.3414    4.5586 H        1 ZINC000256335399    0.3600
46     H46     2.1846    1.7835    2.5922 H        1 ZINC000256335399    0.0700
47     H47     3.9111    2.0209    2.1983 H        1 ZINC000256335399    0.0600
48     H48     1.9577    1.6591    0.2682 H        1 ZINC000256335399    0.0900
49     H49     3.6637    1.1623    0.0328 H        1 ZINC000256335399    0.0600
@<TRIPOS>BOND
1     1     2     1
2     1     28    1
3     1     29    1
4     1     30    1
5     2     3     1
6     2     26    1
7     2     4     1
8     4     5     1
9     4     31    1
10    4     32    1
11    5     11    1
12    5     6     2
13    6     7     1
14    6     33    1
15    7     8     2
16    7     9     1
17    9     10    1
18    9     34    1
19    9     35    1
20    10    11    1
21    10    36    1
22    10    37    1
23    11    12    1
24    11    13    1
25    13    14    1
26    13    26    1
27    13    15    1
28    15    16    1
29    15    38    1
30    15    39    1
31    16    17    1
32    16    40    1
33    16    41    1
34    17    24    1
35    17    18    1
36    17    19    1
37    18    42    1
38    18    43    1
39    18    44    1
40    19    20    1
41    19    21    1
42    19    22    1
43    21    45    1
44    22    23    1
45    22    46    1
46    22    47    1
47    23    24    1
48    23    48    1
49    23    49    1
50    24    25    1
51    24    26    1
52    26    27    1
@<TRIPOS>SUBSTRUCTURE
1   ZINC000256335399 1     RESIDUE    1   A     ZIN   1
