@<TRIPOS>MOLECULE
ZINC000035978229
38    40    1     0     0
SMALL
USER_CHARGES
@<TRIPOS>ATOM
1      C1     -0.0644    1.4669    0.0786 C.3      1 ZINC000035978229    0.0300
2      O2     -0.0253    0.0389    0.0443 O.3      1 ZINC000035978229   -0.3200
3      C3      0.6055   -0.5864    1.0740 C.ar     1 ZINC000035978229    0.0900
4      C4      1.1694    0.1609    2.0977 C.ar     1 ZINC000035978229   -0.1600
5      C5      1.8102   -0.4732    3.1437 C.ar     1 ZINC000035978229   -0.1400
6      C6      1.8901   -1.8594    3.1706 C.ar     1 ZINC000035978229    0.1800
7      N7      2.5391   -2.5031    4.2309 N.pl3    1 ZINC000035978229   -0.5800
8      C8      3.2428   -1.7150    5.2458 C.3      1 ZINC000035978229    0.1000
9      C9      2.5161   -3.8791    4.3201 C.ar     1 ZINC000035978229    0.4600
10     C10     3.5758   -4.6598    3.7976 C.ar     1 ZINC000035978229   -0.1600
11     C11     4.6870   -4.0832    3.1726 C.ar     1 ZINC000035978229   -0.0700
12     C12     5.6775   -4.8864    2.6888 C.ar     1 ZINC000035978229   -0.1200
13     C13     5.5974   -6.2711    2.8081 C.ar     1 ZINC000035978229   -0.0700
14     C14     4.5281   -6.8637    3.4113 C.ar     1 ZINC000035978229   -0.1000
15     C15     3.4926   -6.0684    3.9206 C.ar     1 ZINC000035978229    0.1700
16     N16     2.4190   -6.6003    4.5234 N.ar     1 ZINC000035978229   -0.5100
17     C17     1.4669   -5.8273    4.9898 C.ar     1 ZINC000035978229    0.3400
18     C18     0.2803   -6.4717    5.6591 C.3      1 ZINC000035978229   -0.0900
19     N19     1.5031   -4.5075    4.9026 N.ar     1 ZINC000035978229   -0.5300
20     C20     1.3253   -2.6067    2.1453 C.ar     1 ZINC000035978229   -0.1300
21     C21     0.6799   -1.9713    1.1030 C.ar     1 ZINC000035978229   -0.1000
22     H22     0.9530    1.8583    0.0797 H        1 ZINC000035978229    0.0500
23     H23    -0.5950    1.8370   -0.7986 H        1 ZINC000035978229    0.1000
24     H24    -0.5808    1.7947    0.9808 H        1 ZINC000035978229    0.0500
25     H25     1.1075    1.2389    2.0765 H        1 ZINC000035978229    0.1300
26     H26     2.2494    0.1087    3.9405 H        1 ZINC000035978229    0.1300
27     H27     2.5785   -1.5347    6.0909 H        1 ZINC000035978229    0.0600
28     H28     4.1224   -2.2620    5.5852 H        1 ZINC000035978229    0.0700
29     H29     3.5511   -0.7618    4.8162 H        1 ZINC000035978229    0.0800
30     H30     4.7596   -3.0102    3.0736 H        1 ZINC000035978229    0.1300
31     H31     6.5355   -4.4422    2.2062 H        1 ZINC000035978229    0.1300
32     H32     6.3946   -6.8854    2.4165 H        1 ZINC000035978229    0.1400
33     H33     4.4792   -7.9392    3.4961 H        1 ZINC000035978229    0.1400
34     H34     0.4779   -6.5775    6.7258 H        1 ZINC000035978229    0.0900
35     H35    -0.6020   -5.8484    5.5131 H        1 ZINC000035978229    0.0900
36     H36     0.1066   -7.4551    5.2224 H        1 ZINC000035978229    0.0900
37     H37     1.3870   -3.6848    2.1655 H        1 ZINC000035978229    0.1200
38     H38     0.2404   -2.5523    0.3057 H        1 ZINC000035978229    0.1300
@<TRIPOS>BOND
1     1     2     1
2     1     22    1
3     1     23    1
4     1     24    1
5     2     3     1
6     3     21    ar
7     3     4     ar
8     4     5     ar
9     4     25    1
10    5     6     ar
11    5     26    1
12    6     7     1
13    6     20    ar
14    7     8     1
15    7     9     1
16    8     27    1
17    8     28    1
18    8     29    1
19    9     19    ar
20    9     10    ar
21    10    15    ar
22    10    11    ar
23    11    12    ar
24    11    30    1
25    12    13    ar
26    12    31    1
27    13    14    ar
28    13    32    1
29    14    15    ar
30    14    33    1
31    15    16    ar
32    16    17    ar
33    17    18    1
34    17    19    ar
35    18    34    1
36    18    35    1
37    18    36    1
38    20    21    ar
39    20    37    1
40    21    38    1
@<TRIPOS>SUBSTRUCTURE
1   ZINC000035978229 1     RESIDUE    1   A     ZIN   1
