@<TRIPOS>MOLECULE
ZINC000014263648
77    78    1     0     0
SMALL
USER_CHARGES
@<TRIPOS>ATOM
1      C1     -0.0187    1.5258    0.0104 C.3      1 ZINC000014263648   -0.1500
2      C2      0.0021   -0.0041    0.0020 C.3      1 ZINC000014263648   -0.1300
3      C3      0.7421   -0.5109    1.2415 C.3      1 ZINC000014263648   -0.1200
4      C4      0.7628   -2.0407    1.2331 C.3      1 ZINC000014263648   -0.1200
5      C5      1.5028   -2.5476    2.4727 C.3      1 ZINC000014263648   -0.1200
6      C6      1.5236   -4.0774    2.4642 C.3      1 ZINC000014263648   -0.1200
7      C7      2.2636   -4.5842    3.7038 C.3      1 ZINC000014263648   -0.1200
8      C8      2.2843   -6.1141    3.6954 C.3      1 ZINC000014263648   -0.1200
9      C9      3.0243   -6.6209    4.9349 C.3      1 ZINC000014263648   -0.1200
10     C10     3.0450   -8.1508    4.9265 C.3      1 ZINC000014263648   -0.1200
11     C11     3.7850   -8.6576    6.1660 C.3      1 ZINC000014263648   -0.1200
12     C12     3.8058  -10.1874    6.1576 C.3      1 ZINC000014263648   -0.1200
13     C13     4.5458  -10.6943    7.3971 C.3      1 ZINC000014263648   -0.1200
14     C14     4.5665  -12.2241    7.3887 C.3      1 ZINC000014263648   -0.1100
15     C15     5.3065  -12.7309    8.6282 C.3      1 ZINC000014263648   -0.1400
16     C16     5.3270  -14.2378    8.6199 C.2      1 ZINC000014263648    0.4900
17     O17     4.8015  -14.8462    7.7122 O.2      1 ZINC000014263648   -0.4400
18     N18     5.9293  -14.9091    9.6215 N.am     1 ZINC000014263648   -0.6500
19     C19     5.9480  -16.2913    9.6139 C.2      1 ZINC000014263648    0.4800
20     N20     5.3796  -16.9598    8.6206 N.2      1 ZINC000014263648   -0.5300
21     C21     5.3917  -18.2921    8.6022 C.2      1 ZINC000014263648    0.6500
22     O22     4.8619  -18.8842    7.6767 O.2      1 ZINC000014263648   -0.5100
23     N23     5.9793  -18.9949    9.5879 N.am     1 ZINC000014263648   -0.5400
24     C24     5.9773  -20.4591    9.5404 C.3      1 ZINC000014263648    0.3000
25     H25     6.5790  -20.8572   10.3575 H        1 ZINC000014263648    0.1300
26     O26     6.5050  -20.9080    8.2810 O.3      1 ZINC000014263648   -0.3300
27     C27     5.7944  -22.1155    7.9324 C.3      1 ZINC000014263648    0.0600
28     H28     6.1832  -22.9653    8.4935 H        1 ZINC000014263648    0.1000
29     C29     5.8847  -22.3786    6.4279 C.3      1 ZINC000014263648    0.0800
30     O30     7.2383  -22.6719    6.0761 O.3      1 ZINC000014263648   -0.5600
31     C31     4.3335  -21.8084    8.3495 C.3      1 ZINC000014263648    0.0900
32     H32     3.8273  -21.2171    7.5866 H        1 ZINC000014263648    0.1000
33     O33     3.6152  -23.0146    8.6164 O.3      1 ZINC000014263648   -0.5500
34     C34     4.5328  -20.9849    9.6490 C.3      1 ZINC000014263648   -0.0200
35     H35     4.4206  -21.6227   10.5258 H        1 ZINC000014263648    0.1500
36     C36     3.5776  -19.8662    9.7016 C.1      1 ZINC000014263648    0.2000
37     N37     2.8404  -19.0028    9.7422 N.1      1 ZINC000014263648   -0.3900
38     C38     6.5763  -18.3515   10.6293 C.2      1 ZINC000014263648    0.2000
39     C39     6.5763  -16.9966   10.6585 C.2      1 ZINC000014263648   -0.2900
40     H40     1.0039    1.9031    0.0027 H        1 ZINC000014263648    0.0500
41     H41    -0.5459    1.8868   -0.8726 H        1 ZINC000014263648    0.0500
42     H42    -0.5289    1.8773    0.9072 H        1 ZINC000014263648    0.0500
43     H43    -1.0205   -0.3814    0.0098 H        1 ZINC000014263648    0.0600
44     H44     0.5123   -0.3556   -0.8948 H        1 ZINC000014263648    0.0600
45     H45     1.7647   -0.1336    1.2338 H        1 ZINC000014263648    0.0600
46     H46     0.2319   -0.1594    2.1383 H        1 ZINC000014263648    0.0600
47     H47    -0.2598   -2.4180    1.2409 H        1 ZINC000014263648    0.0600
48     H48     1.2730   -2.3923    0.3363 H        1 ZINC000014263648    0.0600
49     H49     2.5254   -2.1703    2.4649 H        1 ZINC000014263648    0.0600
50     H50     0.9926   -2.1961    3.3695 H        1 ZINC000014263648    0.0600
51     H51     0.5010   -4.4547    2.4720 H        1 ZINC000014263648    0.0600
52     H52     2.0337   -4.4289    1.5675 H        1 ZINC000014263648    0.0600
53     H53     3.2861   -4.2070    3.6960 H        1 ZINC000014263648    0.0600
54     H54     1.7534   -4.2327    4.6006 H        1 ZINC000014263648    0.0600
55     H55     1.2617   -6.4914    3.7031 H        1 ZINC000014263648    0.0600
56     H56     2.7945   -6.4656    2.7986 H        1 ZINC000014263648    0.0600
57     H57     4.0469   -6.2436    4.9271 H        1 ZINC000014263648    0.0600
58     H58     2.5141   -6.2694    5.8317 H        1 ZINC000014263648    0.0600
59     H59     2.0224   -8.5280    4.9342 H        1 ZINC000014263648    0.0600
60     H60     3.5552   -8.5023    4.0297 H        1 ZINC000014263648    0.0600
61     H61     4.8076   -8.2803    6.1583 H        1 ZINC000014263648    0.0600
62     H62     3.2748   -8.3061    7.0628 H        1 ZINC000014263648    0.0600
63     H63     2.7832  -10.5647    6.1653 H        1 ZINC000014263648    0.0600
64     H64     4.3160  -10.5389    5.2608 H        1 ZINC000014263648    0.0600
65     H65     5.5684  -10.3170    7.3894 H        1 ZINC000014263648    0.0600
66     H66     4.0356  -10.3427    8.2939 H        1 ZINC000014263648    0.0600
67     H67     3.5439  -12.6014    7.3964 H        1 ZINC000014263648    0.0700
68     H68     5.0767  -12.5756    6.4919 H        1 ZINC000014263648    0.0700
69     H69     6.3291  -12.3537    8.6205 H        1 ZINC000014263648    0.1000
70     H70     4.7963  -12.3794    9.5250 H        1 ZINC000014263648    0.1000
71     H71     6.3496  -14.4223   10.3476 H        1 ZINC000014263648    0.4200
72     H72     5.2501  -23.2259    6.1685 H        1 ZINC000014263648    0.0700
73     H73     5.5512  -21.4949    5.8839 H        1 ZINC000014263648    0.0700
74     H74     7.3703  -22.8496    5.1347 H        1 ZINC000014263648    0.3900
75     H75     3.5429  -23.6061    7.8548 H        1 ZINC000014263648    0.3900
76     H76     7.0481  -18.9147   11.4208 H        1 ZINC000014263648    0.1800
77     H77     7.0439  -16.4658   11.4747 H        1 ZINC000014263648    0.1600
@<TRIPOS>BOND
1     1     2     1
2     1     40    1
3     1     41    1
4     1     42    1
5     2     3     1
6     2     43    1
7     2     44    1
8     3     4     1
9     3     45    1
10    3     46    1
11    4     5     1
12    4     47    1
13    4     48    1
14    5     6     1
15    5     49    1
16    5     50    1
17    6     7     1
18    6     51    1
19    6     52    1
20    7     8     1
21    7     53    1
22    7     54    1
23    8     9     1
24    8     55    1
25    8     56    1
26    9     10    1
27    9     57    1
28    9     58    1
29    10    11    1
30    10    59    1
31    10    60    1
32    11    12    1
33    11    61    1
34    11    62    1
35    12    13    1
36    12    63    1
37    12    64    1
38    13    14    1
39    13    65    1
40    13    66    1
41    14    15    1
42    14    67    1
43    14    68    1
44    15    16    1
45    15    69    1
46    15    70    1
47    16    17    2
48    16    18    am
49    18    19    1
50    18    71    1
51    19    39    1
52    19    20    2
53    20    21    1
54    21    22    2
55    21    23    am
56    23    24    1
57    23    38    1
58    24    25    1
59    24    34    1
60    24    26    1
61    26    27    1
62    27    28    1
63    27    29    1
64    27    31    1
65    29    30    1
66    29    72    1
67    29    73    1
68    30    74    1
69    31    32    1
70    31    33    1
71    31    34    1
72    33    75    1
73    34    35    1
74    34    36    1
75    36    37    3
76    38    39    2
77    38    76    1
78    39    77    1
@<TRIPOS>SUBSTRUCTURE
1   ZINC000014263648 1     RESIDUE    1   A     ZIN   1
