@<TRIPOS>MOLECULE
ZINC000085548251
116   119   1     0     0
SMALL
USER_CHARGES
@<TRIPOS>ATOM
1      C1      1.1901   -2.0324   -1.0064 C.3      1 ZINC000085548251   -0.1400
2      C2      0.7040   -1.4651   -2.3416 C.3      1 ZINC000085548251   -0.1000
3      C3      1.6135   -1.9606   -3.4677 C.3      1 ZINC000085548251   -0.1400
4      C4     -0.7300   -1.9308   -2.6019 C.3      1 ZINC000085548251    0.1500
5      H5     -1.3603   -1.6562   -1.7561 H        1 ZINC000085548251    0.1100
6      N6     -0.7476   -3.3857   -2.7719 N.am     1 ZINC000085548251   -0.7200
7      C7     -0.8198   -4.1896   -1.6925 C.2      1 ZINC000085548251    0.7100
8      O8     -0.8703   -3.7072   -0.5776 O.2      1 ZINC000085548251   -0.5600
9      N9     -0.8360   -5.5281   -1.8490 N.am     1 ZINC000085548251   -0.6300
10     C10    -0.7752   -6.1094   -3.1924 C.3      1 ZINC000085548251    0.0800
11     C11    -0.9145   -6.4019   -0.6757 C.3      1 ZINC000085548251    0.1800
12     C12    -2.3600   -6.6754   -0.3489 C.ar     1 ZINC000085548251    0.1100
13     C13    -2.9635   -7.8221   -0.8290 C.ar     1 ZINC000085548251   -0.1600
14     C14    -4.2939   -8.0647   -0.5221 C.ar     1 ZINC000085548251   -0.0800
15     C15    -4.9699   -7.1406    0.2595 C.ar     1 ZINC000085548251   -0.1700
16     C16    -4.3001   -6.0161    0.7038 C.ar     1 ZINC000085548251    0.1000
17     N17    -3.0328   -5.8204    0.3964 N.ar     1 ZINC000085548251   -0.4500
18     C18    -1.2527   -1.2724   -3.8526 C.2      1 ZINC000085548251    0.5200
19     O19    -1.4138   -1.9273   -4.8606 O.2      1 ZINC000085548251   -0.5000
20     N20    -1.5413    0.0441   -3.8510 N.am     1 ZINC000085548251   -0.7200
21     C21    -1.9753    0.7004   -5.0868 C.3      1 ZINC000085548251    0.1300
22     H22    -1.4577    0.2545   -5.9361 H        1 ZINC000085548251    0.1100
23     C23    -3.4850    0.5193   -5.2573 C.3      1 ZINC000085548251   -0.0900
24     C24    -3.7968   -0.9423   -5.4513 C.ar     1 ZINC000085548251   -0.0600
25     C25    -3.8164   -1.4819   -6.7239 C.ar     1 ZINC000085548251   -0.1100
26     C26    -4.1025   -2.8225   -6.9018 C.ar     1 ZINC000085548251   -0.1100
27     C27    -4.3685   -3.6237   -5.8072 C.ar     1 ZINC000085548251   -0.1200
28     C28    -4.3481   -3.0844   -4.5346 C.ar     1 ZINC000085548251   -0.1100
29     C29    -4.0578   -1.7446   -4.3563 C.ar     1 ZINC000085548251   -0.1100
30     C30    -1.6456    2.1927   -5.0147 C.3      1 ZINC000085548251    0.0700
31     H31    -1.9686    2.6809   -5.9341 H        1 ZINC000085548251    0.1200
32     O32    -2.3243    2.7772   -3.9012 O.3      1 ZINC000085548251   -0.5400
33     C33    -0.1360    2.3738   -4.8441 C.3      1 ZINC000085548251    0.0700
34     H34     0.1870    1.8855   -3.9247 H        1 ZINC000085548251    0.1100
35     O35     0.5427    1.7893   -5.9576 O.3      1 ZINC000085548251   -0.5400
36     C36     0.1937    3.8661   -4.7720 C.3      1 ZINC000085548251    0.1200
37     H37    -0.3920    4.3297   -3.9783 H        1 ZINC000085548251    0.1100
38     C38    -0.1449    4.5284   -6.1090 C.3      1 ZINC000085548251   -0.1000
39     C39     0.0636    6.0168   -5.9994 C.ar     1 ZINC000085548251   -0.0600
40     C40    -0.9752    6.8319   -5.5900 C.ar     1 ZINC000085548251   -0.1000
41     C41    -0.7839    8.1973   -5.4894 C.ar     1 ZINC000085548251   -0.1100
42     C42     0.4461    8.7475   -5.7977 C.ar     1 ZINC000085548251   -0.1200
43     C43     1.4851    7.9323   -6.2062 C.ar     1 ZINC000085548251   -0.1100
44     C44     1.2951    6.5665   -6.3027 C.ar     1 ZINC000085548251   -0.1100
45     N45     1.6210    4.0378   -4.4897 N.am     1 ZINC000085548251   -0.7200
46     C46     2.0594    5.1650   -3.8950 C.2      1 ZINC000085548251    0.5200
47     O47     1.2641    5.9907   -3.4993 O.2      1 ZINC000085548251   -0.5100
48     C48     3.5380    5.3994   -3.7219 C.3      1 ZINC000085548251    0.1600
49     H49     4.0783    4.9373   -4.5480 H        1 ZINC000085548251    0.1000
50     N50     3.8057    6.8397   -3.7081 N.am     1 ZINC000085548251   -0.7300
51     C51     5.0197    7.3029   -4.0661 C.2      1 ZINC000085548251    0.7100
52     O52     5.8927    6.5254   -4.4005 O.2      1 ZINC000085548251   -0.5700
53     N53     5.2660    8.6279   -4.0534 N.am     1 ZINC000085548251   -0.6300
54     C54     4.2142    9.5647   -3.6505 C.3      1 ZINC000085548251    0.0800
55     C55     6.5856    9.1314   -4.4426 C.3      1 ZINC000085548251    0.1800
56     C56     6.6043    9.3976   -5.9258 C.ar     1 ZINC000085548251    0.1100
57     C57     6.3482   10.6721   -6.3941 C.ar     1 ZINC000085548251   -0.1600
58     C58     6.3683   10.9066   -7.7607 C.ar     1 ZINC000085548251   -0.0800
59     C59     6.6465    9.8454   -8.6082 C.ar     1 ZINC000085548251   -0.1700
60     C60     6.8929    8.5977   -8.0667 C.ar     1 ZINC000085548251    0.1000
61     N61     6.8703    8.4126   -6.7614 N.ar     1 ZINC000085548251   -0.4500
62     C62     4.0010    4.7820   -2.4008 C.3      1 ZINC000085548251   -0.1000
63     C63     3.2316    5.4200   -1.2423 C.3      1 ZINC000085548251   -0.1500
64     C64     3.7351    3.2754   -2.4211 C.3      1 ZINC000085548251   -0.1500
65     H65     2.1945   -1.6633   -0.7989 H        1 ZINC000085548251    0.0500
66     H66     0.5154   -1.7171   -0.2105 H        1 ZINC000085548251    0.0600
67     H67     1.2066   -3.1211   -1.0587 H        1 ZINC000085548251    0.0600
68     H68     0.7314   -0.3760   -2.3051 H        1 ZINC000085548251    0.0800
69     H69     1.5861   -3.0497   -3.5042 H        1 ZINC000085548251    0.0600
70     H70     1.2672   -1.5564   -4.4189 H        1 ZINC000085548251    0.0600
71     H71     2.6351   -1.6289   -3.2823 H        1 ZINC000085548251    0.0600
72     H72    -0.7073   -3.7706   -3.6614 H        1 ZINC000085548251    0.4000
73     H73     0.2659   -6.2723   -3.4710 H        1 ZINC000085548251    0.0600
74     H74    -1.3068   -7.0609   -3.2010 H        1 ZINC000085548251    0.0700
75     H75    -1.2394   -5.4273   -3.9047 H        1 ZINC000085548251    0.0700
76     H76    -0.4058   -7.3422   -0.8883 H        1 ZINC000085548251    0.0900
77     H77    -0.4361   -5.9138    0.1734 H        1 ZINC000085548251    0.1000
78     H78    -2.4061   -8.5204   -1.4358 H        1 ZINC000085548251    0.1300
79     H79    -4.7917   -8.9523   -0.8838 H        1 ZINC000085548251    0.1300
80     H80    -6.0068   -7.2971    0.5176 H        1 ZINC000085548251    0.1300
81     H81    -4.8197   -5.2911    1.3128 H        1 ZINC000085548251    0.1500
82     H82    -1.4616    0.5571   -3.0316 H        1 ZINC000085548251    0.3900
83     H83    -3.9976    0.8852   -4.3677 H        1 ZINC000085548251    0.0800
84     H84    -3.8223    1.0814   -6.1281 H        1 ZINC000085548251    0.0800
85     H85    -3.6086   -0.8559   -7.5791 H        1 ZINC000085548251    0.1100
86     H86    -4.1185   -3.2439   -7.8961 H        1 ZINC000085548251    0.1100
87     H87    -4.5927   -4.6710   -5.9463 H        1 ZINC000085548251    0.1100
88     H88    -4.5563   -3.7102   -3.6794 H        1 ZINC000085548251    0.1100
89     H89    -4.0418   -1.3232   -3.3620 H        1 ZINC000085548251    0.1100
90     H90    -2.0851    2.3906   -3.0477 H        1 ZINC000085548251    0.3700
91     H91     0.3035    2.1759   -6.8111 H        1 ZINC000085548251    0.3800
92     H92     0.5036    4.1271   -6.8879 H        1 ZINC000085548251    0.0800
93     H93    -1.1854    4.3249   -6.3621 H        1 ZINC000085548251    0.0800
94     H94    -1.9362    6.4021   -5.3491 H        1 ZINC000085548251    0.1200
95     H95    -1.5957    8.8342   -5.1703 H        1 ZINC000085548251    0.1200
96     H96     0.5953    9.8143   -5.7198 H        1 ZINC000085548251    0.1100
97     H97     2.4461    8.3622   -6.4474 H        1 ZINC000085548251    0.1100
98     H98     2.1069    5.9296   -6.6218 H        1 ZINC000085548251    0.1100
99     H99     2.2504    3.3402   -4.7306 H        1 ZINC000085548251    0.4000
100    H100    3.1093    7.4599   -3.4413 H        1 ZINC000085548251    0.4000
101    H101    4.2671    9.7293   -2.5743 H        1 ZINC000085548251    0.0600
102    H102    4.3532   10.5126   -4.1703 H        1 ZINC000085548251    0.0700
103    H103    3.2397    9.1491   -3.9070 H        1 ZINC000085548251    0.0700
104    H104    6.7947   10.0561   -3.9048 H        1 ZINC000085548251    0.0900
105    H105    7.3447    8.3887   -4.1971 H        1 ZINC000085548251    0.1000
106    H106    6.1347   11.4755   -5.7046 H        1 ZINC000085548251    0.1300
107    H107    6.1715   11.8925   -8.1554 H        1 ZINC000085548251    0.1300
108    H108    6.6701    9.9916   -9.6780 H        1 ZINC000085548251    0.1300
109    H109    7.1101    7.7657   -8.7202 H        1 ZINC000085548251    0.1500
110    H110    5.0682    4.9609   -2.2704 H        1 ZINC000085548251    0.0900
111    H111    2.1644    5.2411   -1.3727 H        1 ZINC000085548251    0.0600
112    H112    3.5615    4.9801   -0.3011 H        1 ZINC000085548251    0.0600
113    H113    3.4210    6.4933   -1.2278 H        1 ZINC000085548251    0.0600
114    H114    4.0802    2.8329   -1.4866 H        1 ZINC000085548251    0.0600
115    H115    2.6659    3.0966   -2.5348 H        1 ZINC000085548251    0.0600
116    H116    4.2699    2.8233   -3.2564 H        1 ZINC000085548251    0.0600
@<TRIPOS>BOND
1     1     2     1
2     1     65    1
3     1     66    1
4     1     67    1
5     2     3     1
6     2     4     1
7     2     68    1
8     3     69    1
9     3     70    1
10    3     71    1
11    4     5     1
12    4     6     1
13    4     18    1
14    6     7     am
15    6     72    1
16    7     8     2
17    7     9     am
18    9     10    1
19    9     11    1
20    10    73    1
21    10    74    1
22    10    75    1
23    11    12    1
24    11    76    1
25    11    77    1
26    12    17    ar
27    12    13    ar
28    13    14    ar
29    13    78    1
30    14    15    ar
31    14    79    1
32    15    16    ar
33    15    80    1
34    16    17    ar
35    16    81    1
36    18    19    2
37    18    20    am
38    20    21    1
39    20    82    1
40    21    22    1
41    21    23    1
42    21    30    1
43    23    24    1
44    23    83    1
45    23    84    1
46    24    29    ar
47    24    25    ar
48    25    26    ar
49    25    85    1
50    26    27    ar
51    26    86    1
52    27    28    ar
53    27    87    1
54    28    29    ar
55    28    88    1
56    29    89    1
57    30    31    1
58    30    32    1
59    30    33    1
60    32    90    1
61    33    34    1
62    33    35    1
63    33    36    1
64    35    91    1
65    36    37    1
66    36    38    1
67    36    45    1
68    38    39    1
69    38    92    1
70    38    93    1
71    39    44    ar
72    39    40    ar
73    40    41    ar
74    40    94    1
75    41    42    ar
76    41    95    1
77    42    43    ar
78    42    96    1
79    43    44    ar
80    43    97    1
81    44    98    1
82    45    46    am
83    45    99    1
84    46    47    2
85    46    48    1
86    48    49    1
87    48    50    1
88    48    62    1
89    50    51    am
90    50    100   1
91    51    52    2
92    51    53    am
93    53    54    1
94    53    55    1
95    54    101   1
96    54    102   1
97    54    103   1
98    55    56    1
99    55    104   1
100   55    105   1
101   56    61    ar
102   56    57    ar
103   57    58    ar
104   57    106   1
105   58    59    ar
106   58    107   1
107   59    60    ar
108   59    108   1
109   60    61    ar
110   60    109   1
111   62    63    1
112   62    64    1
113   62    110   1
114   63    111   1
115   63    112   1
116   63    113   1
117   64    114   1
118   64    115   1
119   64    116   1
@<TRIPOS>SUBSTRUCTURE
1   ZINC000085548251 1     RESIDUE    1   A     ZIN   1
