@<TRIPOS>MOLECULE
ZINC000000538116
39    41    1     0     0
SMALL
USER_CHARGES
@<TRIPOS>ATOM
1      N1     -0.0110    1.3392    0.0079 N.am     1 ZINC000000538116   -0.8400
2      C2      0.0031   -0.0084   -0.0016 C.2      1 ZINC000000538116    0.6200
3      O3      1.0631   -0.6058   -0.0190 O.2      1 ZINC000000538116   -0.5600
4      C4     -1.2605   -0.7557    0.0089 C.2      1 ZINC000000538116   -0.1800
5      C5     -1.3909   -2.1388    0.0065 C.2      1 ZINC000000538116    0.4100
6      N6     -0.3686   -3.0653   -0.0062 N.pl3    1 ZINC000000538116   -0.8100
7      N7     -2.7197   -2.3975    0.0199 N.pl3    1 ZINC000000538116   -0.4000
8      C8     -3.3511   -3.7194    0.0234 C.3      1 ZINC000000538116    0.1700
9      C9     -3.5527   -4.1761    1.4453 C.ar     1 ZINC000000538116   -0.0900
10     C10    -2.5592   -4.8971    2.0838 C.ar     1 ZINC000000538116   -0.0900
11     C11    -2.7361   -5.3191    3.3863 C.ar     1 ZINC000000538116    0.0000
12     Cl12   -1.4882   -6.2235    4.1853 Cl       1 ZINC000000538116   -0.0300
13     C13    -3.9232   -5.0156    4.0606 C.ar     1 ZINC000000538116   -0.1200
14     C14    -4.1204   -5.4625    5.4534 C.2      1 ZINC000000538116    0.4500
15     O15    -3.6957   -4.7905    6.3733 O.2      1 ZINC000000538116   -0.4100
16     C16    -4.8337   -6.7260    5.7296 C.ar     1 ZINC000000538116   -0.1600
17     C17    -5.1215   -7.0958    7.0458 C.ar     1 ZINC000000538116   -0.0400
18     C18    -5.7876   -8.2764    7.2971 C.ar     1 ZINC000000538116   -0.1200
19     C19    -6.1714   -9.0955    6.2477 C.ar     1 ZINC000000538116    0.0000
20     Cl20   -7.0097  -10.5805    6.5724 Cl       1 ZINC000000538116   -0.0500
21     C21    -5.8894   -8.7342    4.9403 C.ar     1 ZINC000000538116   -0.1200
22     C22    -5.2286   -7.5536    4.6755 C.ar     1 ZINC000000538116   -0.0500
23     C23    -4.9222   -4.2861    3.4082 C.ar     1 ZINC000000538116    0.0000
24     Cl24   -6.4000   -3.9025    4.2345 Cl       1 ZINC000000538116   -0.0300
25     C25    -4.7278   -3.8673    2.1071 C.ar     1 ZINC000000538116   -0.0700
26     N26    -3.3759   -1.1592    0.0302 N.2      1 ZINC000000538116   -0.0700
27     N27    -2.4957   -0.2208    0.0286 N.2      1 ZINC000000538116   -0.1700
28     H28     0.8239    1.8330    0.0010 H        1 ZINC000000538116    0.4100
29     H29    -0.8560    1.8154    0.0178 H        1 ZINC000000538116    0.4100
30     H30     0.5549   -2.7685   -0.0149 H        1 ZINC000000538116    0.4400
31     H31    -0.5733   -4.0134   -0.0063 H        1 ZINC000000538116    0.4000
32     H32    -4.3161   -3.6625   -0.4802 H        1 ZINC000000538116    0.1300
33     H33    -2.7101   -4.4296   -0.4989 H        1 ZINC000000538116    0.1100
34     H34    -1.6431   -5.1306    1.5617 H        1 ZINC000000538116    0.1500
35     H35    -4.8225   -6.4583    7.8647 H        1 ZINC000000538116    0.1500
36     H36    -6.0103   -8.5635    8.3141 H        1 ZINC000000538116    0.1400
37     H37    -6.1912   -9.3770    4.1265 H        1 ZINC000000538116    0.1400
38     H38    -5.0093   -7.2730    3.6559 H        1 ZINC000000538116    0.1400
39     H39    -5.4982   -3.3035    1.6020 H        1 ZINC000000538116    0.1600
@<TRIPOS>BOND
1     1     2     am
2     1     28    1
3     1     29    1
4     2     3     2
5     2     4     1
6     4     27    1
7     4     5     2
8     5     6     1
9     5     7     1
10    6     30    1
11    6     31    1
12    7     8     1
13    7     26    1
14    8     9     1
15    8     32    1
16    8     33    1
17    9     25    ar
18    9     10    ar
19    10    11    ar
20    10    34    1
21    11    12    1
22    11    13    ar
23    13    14    1
24    13    23    ar
25    14    15    2
26    14    16    1
27    16    22    ar
28    16    17    ar
29    17    18    ar
30    17    35    1
31    18    19    ar
32    18    36    1
33    19    20    1
34    19    21    ar
35    21    22    ar
36    21    37    1
37    22    38    1
38    23    24    1
39    23    25    ar
40    25    39    1
41    26    27    2
@<TRIPOS>SUBSTRUCTURE
1   ZINC000000538116 1     RESIDUE    1   A     ZIN   1
