@<TRIPOS>MOLECULE
ZINC000022065943
57    59    1     0     0
SMALL
USER_CHARGES
@<TRIPOS>ATOM
1      C1     -1.1826    1.5124    0.8793 C.3      1 ZINC000022065943    0.0300
2      O2     -1.2333    0.0907    1.0150 O.3      1 ZINC000022065943   -0.3500
3      C3     -1.2069   -0.6346   -0.1227 C.2      1 ZINC000022065943    0.5300
4      O4     -1.1426   -0.0736   -1.2006 O.2      1 ZINC000022065943   -0.4900
5      C5     -1.2540   -2.0467   -0.0623 C.2      1 ZINC000022065943   -0.2300
6      C6     -2.4388   -2.6584    0.1077 C.2      1 ZINC000022065943    0.1900
7      C7     -3.6915   -1.8311    0.2398 C.3      1 ZINC000022065943   -0.1400
8      N8     -2.5215   -4.0231    0.1618 N.pl3    1 ZINC000022065943   -0.6300
9      C9     -1.4935   -4.7959   -0.3052 C.2      1 ZINC000022065943    0.2500
10     C10    -1.7368   -6.2507   -0.6140 C.3      1 ZINC000022065943   -0.1200
11     C11    -0.2690   -4.2734   -0.4916 C.2      1 ZINC000022065943   -0.2600
12     C12     0.7681   -5.0996   -0.9831 C.2      1 ZINC000022065943    0.5200
13     O13     0.5472   -6.2699   -1.2325 O.2      1 ZINC000022065943   -0.5200
14     O14     2.0028   -4.5900   -1.1755 O.3      1 ZINC000022065943   -0.3400
15     C15     3.0021   -5.4815   -1.6742 C.3      1 ZINC000022065943    0.1000
16     C16     4.3061   -4.7412   -1.8243 C.2      1 ZINC000022065943   -0.1500
17     C17     5.4345   -5.2938   -1.4016 C.2      1 ZINC000022065943   -0.0900
18     C18     6.7135   -4.5676   -1.5487 C.ar     1 ZINC000022065943   -0.0600
19     C19     6.7358   -3.2979   -2.1270 C.ar     1 ZINC000022065943   -0.1100
20     C20     7.9330   -2.6254   -2.2615 C.ar     1 ZINC000022065943   -0.1200
21     C21     9.1096   -3.2074   -1.8250 C.ar     1 ZINC000022065943   -0.1200
22     C22     9.0944   -4.4662   -1.2512 C.ar     1 ZINC000022065943   -0.1200
23     C23     7.9030   -5.1465   -1.1048 C.ar     1 ZINC000022065943   -0.1100
24     C24     0.0205   -2.8309   -0.1955 C.3      1 ZINC000022065943    0.0900
25     H25     0.6237   -2.4132   -1.0016 H        1 ZINC000022065943    0.1000
26     C26     0.7865   -2.7340    1.0987 C.ar     1 ZINC000022065943   -0.0700
27     C27     0.2316   -3.2187    2.2681 C.ar     1 ZINC000022065943   -0.0500
28     C28     0.9344   -3.1298    3.4554 C.ar     1 ZINC000022065943   -0.1200
29     C29     2.1920   -2.5567    3.4729 C.ar     1 ZINC000022065943   -0.0600
30     C30     2.7474   -2.0727    2.3029 C.ar     1 ZINC000022065943   -0.0400
31     N31     4.0940   -1.4585    2.3218 N.pl3    1 ZINC000022065943    0.0300
32     O32     4.7127   -1.3795    3.3679 O.2      1 ZINC000022065943   -0.1600
33     O33     4.5833   -1.0321    1.2911 O.2      1 ZINC000022065943   -0.1500
34     C34     2.0467   -2.1655    1.1152 C.ar     1 ZINC000022065943   -0.0400
35     H35    -1.2108    1.9728    1.8669 H        1 ZINC000022065943    0.1000
36     H36    -0.2605    1.7964    0.3722 H        1 ZINC000022065943    0.0600
37     H37    -2.0379    1.8523    0.2954 H        1 ZINC000022065943    0.0600
38     H38    -4.1399   -1.6912   -0.7438 H        1 ZINC000022065943    0.0900
39     H39    -4.3985   -2.3439    0.8919 H        1 ZINC000022065943    0.0900
40     H40    -3.4420   -0.8598    0.6668 H        1 ZINC000022065943    0.0900
41     H41    -3.3122   -4.4445    0.5332 H        1 ZINC000022065943    0.4300
42     H42    -2.7777   -6.4974   -0.4047 H        1 ZINC000022065943    0.0700
43     H43    -1.5232   -6.4395   -1.6661 H        1 ZINC000022065943    0.1100
44     H44    -1.0856   -6.8674    0.0053 H        1 ZINC000022065943    0.1000
45     H45     3.1321   -6.3086   -0.9763 H        1 ZINC000022065943    0.0700
46     H46     2.6911   -5.8700   -2.6440 H        1 ZINC000022065943    0.0800
47     H47     4.3213   -3.7604   -2.2762 H        1 ZINC000022065943    0.1300
48     H48     5.4193   -6.2745   -0.9496 H        1 ZINC000022065943    0.1200
49     H49     5.8180   -2.8427   -2.4688 H        1 ZINC000022065943    0.1300
50     H50     7.9516   -1.6426   -2.7089 H        1 ZINC000022065943    0.1300
51     H51    10.0442   -2.6770   -1.9329 H        1 ZINC000022065943    0.1200
52     H52    10.0165   -4.9154   -0.9131 H        1 ZINC000022065943    0.1200
53     H53     7.8923   -6.1290   -0.6565 H        1 ZINC000022065943    0.1200
54     H54    -0.7511   -3.6665    2.2544 H        1 ZINC000022065943    0.1300
55     H55     0.5005   -3.5079    4.3693 H        1 ZINC000022065943    0.1500
56     H56     2.7406   -2.4867    4.4005 H        1 ZINC000022065943    0.1500
57     H57     2.4806   -1.7874    0.2013 H        1 ZINC000022065943    0.1500
@<TRIPOS>BOND
1     1     2     1
2     1     35    1
3     1     36    1
4     1     37    1
5     2     3     1
6     3     4     2
7     3     5     1
8     5     24    1
9     5     6     2
10    6     7     1
11    6     8     1
12    7     38    1
13    7     39    1
14    7     40    1
15    8     9     1
16    8     41    1
17    9     10    1
18    9     11    2
19    10    42    1
20    10    43    1
21    10    44    1
22    11    12    1
23    11    24    1
24    12    13    2
25    12    14    1
26    14    15    1
27    15    16    1
28    15    45    1
29    15    46    1
30    16    17    2
31    16    47    1
32    17    18    1
33    17    48    1
34    18    23    ar
35    18    19    ar
36    19    20    ar
37    19    49    1
38    20    21    ar
39    20    50    1
40    21    22    ar
41    21    51    1
42    22    23    ar
43    22    52    1
44    23    53    1
45    24    25    1
46    24    26    1
47    26    34    ar
48    26    27    ar
49    27    28    ar
50    27    54    1
51    28    29    ar
52    28    55    1
53    29    30    ar
54    29    56    1
55    30    31    1
56    30    34    ar
57    31    32    2
58    31    33    2
59    34    57    1
@<TRIPOS>SUBSTRUCTURE
1   ZINC000022065943 1     RESIDUE    1   A     ZIN   1
