@<TRIPOS>MOLECULE
ZINC000014943121
80    82    1     0     0
SMALL
USER_CHARGES
@<TRIPOS>ATOM
1      C1      0.6192    1.2519   -0.2086 C.3      1 ZINC000014943121   -0.1200
2      C2      0.4637   -0.2428   -0.0959 C.ar     1 ZINC000014943121   -0.0900
3      C3      0.5320   -1.0322   -1.2275 C.ar     1 ZINC000014943121   -0.1200
4      C4      0.3899   -2.4037   -1.1247 C.ar     1 ZINC000014943121   -0.1100
5      C5      0.1792   -2.9886    0.1103 C.ar     1 ZINC000014943121   -0.1200
6      C6      0.1102   -2.2036    1.2449 C.ar     1 ZINC000014943121   -0.0900
7      C7     -0.1195   -2.8417    2.5907 C.3      1 ZINC000014943121   -0.1200
8      C8      0.2577   -0.8277    1.1451 C.ar     1 ZINC000014943121    0.0900
9      O9      0.1902   -0.0533    2.2598 O.3      1 ZINC000014943121   -0.3000
10     C10     1.4149    0.1934    2.9535 C.3      1 ZINC000014943121    0.0500
11     C11     1.1458    1.0639    4.1539 C.2      1 ZINC000014943121    0.5100
12     O12     0.0164    1.4363    4.3919 O.2      1 ZINC000014943121   -0.4900
13     N13     2.1601    1.4285    4.9629 N.am     1 ZINC000014943121   -0.7200
14     C14     1.8985    2.2747    6.1299 C.3      1 ZINC000014943121    0.1300
15     H15     1.1046    2.9833    5.8941 H        1 ZINC000014943121    0.1100
16     C16     1.4674    1.3993    7.3083 C.3      1 ZINC000014943121   -0.1000
17     C17     0.1497    0.7412    6.9895 C.ar     1 ZINC000014943121   -0.0600
18     C18    -1.0355    1.3728    7.3173 C.ar     1 ZINC000014943121   -0.1000
19     C19    -2.2442    0.7691    7.0249 C.ar     1 ZINC000014943121   -0.1100
20     C20    -2.2678   -0.4659    6.4044 C.ar     1 ZINC000014943121   -0.1200
21     C21    -1.0827   -1.0971    6.0758 C.ar     1 ZINC000014943121   -0.1100
22     C22     0.1260   -0.4915    6.3643 C.ar     1 ZINC000014943121   -0.1100
23     C23     3.1708    3.0391    6.5011 C.3      1 ZINC000014943121    0.0900
24     H24     3.5056    3.6248    5.6449 H        1 ZINC000014943121    0.1300
25     O25     4.1925    2.1117    6.8725 O.3      1 ZINC000014943121   -0.5300
26     C26     2.8836    3.9604    7.6586 C.2      1 ZINC000014943121    0.5100
27     O27     3.2202    3.6472    8.7809 O.2      1 ZINC000014943121   -0.5000
28     N28     2.2528    5.1324    7.4466 N.am     1 ZINC000014943121   -0.5900
29     C29     1.7288    5.5211    6.1226 C.3      1 ZINC000014943121    0.1400
30     S30     0.3899    6.7091    6.5523 S.3      1 ZINC000014943121   -0.2200
31     C31     1.2710    7.3612    8.0328 C.3      1 ZINC000014943121   -0.0100
32     C32     2.2367    8.4836    7.6476 C.3      1 ZINC000014943121   -0.1400
33     C33     0.2798    7.8345    9.0980 C.3      1 ZINC000014943121   -0.1400
34     C34     2.0334    6.1035    8.5077 C.3      1 ZINC000014943121    0.1200
35     H35     3.0030    6.4092    8.9009 H        1 ZINC000014943121    0.1100
36     C36     1.2474    5.4495    9.6147 C.2      1 ZINC000014943121    0.5300
37     O37     0.5511    4.4855    9.3762 O.2      1 ZINC000014943121   -0.5100
38     N38     1.3181    5.9358   10.8696 N.am     1 ZINC000014943121   -0.7200
39     C39     0.5540    5.3000   11.9458 C.3      1 ZINC000014943121    0.1700
40     C40     0.9923    3.8412   12.0894 C.3      1 ZINC000014943121   -0.1600
41     C41     0.8098    6.0412   13.2596 C.3      1 ZINC000014943121   -0.1600
42     C42    -0.9383    5.3537   11.6121 C.3      1 ZINC000014943121   -0.1600
43     H43     1.6724    1.5159   -0.1126 H        1 ZINC000014943121    0.0700
44     H44     0.2484    1.5837   -1.1785 H        1 ZINC000014943121    0.0700
45     H45     0.0492    1.7373    0.5836 H        1 ZINC000014943121    0.0800
46     H46     0.6961   -0.5777   -2.1934 H        1 ZINC000014943121    0.1300
47     H47     0.4432   -3.0191   -2.0106 H        1 ZINC000014943121    0.1300
48     H48     0.0682   -4.0601    0.1880 H        1 ZINC000014943121    0.1300
49     H49     0.8403   -3.0912    3.0431 H        1 ZINC000014943121    0.0700
50     H50    -0.6554   -2.1458    3.2361 H        1 ZINC000014943121    0.0800
51     H51    -0.7095   -3.7498    2.4663 H        1 ZINC000014943121    0.0700
52     H52     1.8444   -0.7536    3.2804 H        1 ZINC000014943121    0.0800
53     H53     2.1142    0.6989    2.2876 H        1 ZINC000014943121    0.0800
54     H54     3.0634    1.1306    4.7726 H        1 ZINC000014943121    0.4100
55     H55     2.2221    0.6334    7.4872 H        1 ZINC000014943121    0.0800
56     H56     1.3586    2.0174    8.1994 H        1 ZINC000014943121    0.0900
57     H57    -1.0171    2.3377    7.8021 H        1 ZINC000014943121    0.1200
58     H58    -3.1701    1.2623    7.2816 H        1 ZINC000014943121    0.1100
59     H59    -3.2121   -0.9378    6.1766 H        1 ZINC000014943121    0.1100
60     H60    -1.1011   -2.0621    5.5913 H        1 ZINC000014943121    0.1100
61     H61     1.0520   -0.9846    6.1076 H        1 ZINC000014943121    0.1100
62     H62     3.9626    1.5556    7.6295 H        1 ZINC000014943121    0.3900
63     H63     2.5020    6.0083    5.5286 H        1 ZINC000014943121    0.1000
64     H64     1.3241    4.6558    5.5976 H        1 ZINC000014943121    0.1200
65     H65     1.6771    9.3098    7.2089 H        1 ZINC000014943121    0.0800
66     H66     2.7619    8.8322    8.5369 H        1 ZINC000014943121    0.0700
67     H67     2.9591    8.1086    6.9226 H        1 ZINC000014943121    0.0700
68     H68    -0.3661    7.0056    9.3872 H        1 ZINC000014943121    0.0800
69     H69     0.8271    8.1905    9.9709 H        1 ZINC000014943121    0.0800
70     H70    -0.3275    8.6448    8.6946 H        1 ZINC000014943121    0.0800
71     H71     1.8750    6.7068   11.0603 H        1 ZINC000014943121    0.4000
72     H72     2.0554    3.8030   12.3271 H        1 ZINC000014943121    0.0500
73     H73     0.4237    3.3682   12.8901 H        1 ZINC000014943121    0.0600
74     H74     0.8100    3.3132   11.1534 H        1 ZINC000014943121    0.0800
75     H75     0.4975    7.0805   13.1572 H        1 ZINC000014943121    0.0600
76     H76     0.2412    5.5681   14.0603 H        1 ZINC000014943121    0.0700
77     H77     1.8729    6.0029   13.4973 H        1 ZINC000014943121    0.0600
78     H78    -1.1205    4.8257   10.6761 H        1 ZINC000014943121    0.0800
79     H79    -1.5068    4.8807   12.4128 H        1 ZINC000014943121    0.0600
80     H80    -1.2505    6.3930   11.5098 H        1 ZINC000014943121    0.0500
@<TRIPOS>BOND
1     1     2     1
2     1     43    1
3     1     44    1
4     1     45    1
5     2     8     ar
6     2     3     ar
7     3     4     ar
8     3     46    1
9     4     5     ar
10    4     47    1
11    5     6     ar
12    5     48    1
13    6     7     1
14    6     8     ar
15    7     49    1
16    7     50    1
17    7     51    1
18    8     9     1
19    9     10    1
20    10    11    1
21    10    52    1
22    10    53    1
23    11    12    2
24    11    13    am
25    13    14    1
26    13    54    1
27    14    15    1
28    14    16    1
29    14    23    1
30    16    17    1
31    16    55    1
32    16    56    1
33    17    22    ar
34    17    18    ar
35    18    19    ar
36    18    57    1
37    19    20    ar
38    19    58    1
39    20    21    ar
40    20    59    1
41    21    22    ar
42    21    60    1
43    22    61    1
44    23    24    1
45    23    25    1
46    23    26    1
47    25    62    1
48    26    27    2
49    26    28    am
50    28    34    1
51    28    29    1
52    29    30    1
53    29    63    1
54    29    64    1
55    30    31    1
56    31    32    1
57    31    33    1
58    31    34    1
59    32    65    1
60    32    66    1
61    32    67    1
62    33    68    1
63    33    69    1
64    33    70    1
65    34    35    1
66    34    36    1
67    36    37    2
68    36    38    am
69    38    39    1
70    38    71    1
71    39    40    1
72    39    41    1
73    39    42    1
74    40    72    1
75    40    73    1
76    40    74    1
77    41    75    1
78    41    76    1
79    41    77    1
80    42    78    1
81    42    79    1
82    42    80    1
@<TRIPOS>SUBSTRUCTURE
1   ZINC000014943121 1     RESIDUE    1   A     ZIN   1
