@<TRIPOS>MOLECULE
ZINC000000388179
  16   16    0    0    0
SMALL
USER_CHARGES
NO_NAME
@<TRIPOS>ATOM
    1 N1       -0.0169     1.3929     0.0097 N.pl3  1 <0>      -0.8900
    2 C2        0.0021    -0.0041     0.0020 C.ar   1 <0>       0.1900
    3 C3       -1.1922    -0.7153     0.0038 C.ar   1 <0>      -0.2100
    4 C4       -1.1795    -2.0979    -0.0038 C.ar   1 <0>      -0.1000
    5 C5        0.0185    -2.7817    -0.0132 C.ar   1 <0>      -0.1400
    6 C6        1.2252    -2.0768    -0.0155 C.ar   1 <0>      -0.0900
    7 C7        2.5084    -2.8052    -0.0255 C.2    1 <0>       0.5200
    8 O8        2.5172    -4.0281    -0.0317 O.co2  1 <0>      -0.6900
    9 O9        3.5630    -2.1861    -0.0275 O.co2  1 <0>      -0.6900
   10 C10       1.2120    -0.6808    -0.0132 C.ar   1 <0>      -0.1600
   11 H11       0.8165     1.8893     0.0044 H      1 <0>       0.3900
   12 H12      -0.8634     1.8665     0.0163 H      1 <0>       0.3900
   13 H13      -2.1336    -0.1860     0.0115 H      1 <0>       0.1100
   14 H14      -2.1110    -2.6445    -0.0020 H      1 <0>       0.1100
   15 H15       0.0239    -3.8617    -0.0183 H      1 <0>       0.1200
   16 H16       2.1411    -0.1301    -0.0149 H      1 <0>       0.1200
@<TRIPOS>BOND
   1    1    2 1
   2    1   11 1
   3    1   12 1
   4    2   10 ar
   5    2    3 ar
   6    3    4 ar
   7    3   13 1
   8    4    5 ar
   9    4   14 1
  10    5    6 ar
  11    5   15 1
  12    6    7 1
  13    6   10 ar
  14    7    8 ar
  15    7    9 ar
  16   10   16 1
