@<TRIPOS>MOLECULE
ZINC000009302321
41    43    1     0     0
SMALL
USER_CHARGES
@<TRIPOS>ATOM
1      C1     -0.0187    1.5258    0.0104 C.3      1 ZINC000009302321   -0.1300
2      C2      0.0021   -0.0041    0.0020 C.3      1 ZINC000009302321    0.0300
3      C3     -1.4134   -0.5749   -0.1053 C.3      1 ZINC000009302321   -0.1200
4      S4      1.0907   -0.6522   -1.3359 S.3      1 ZINC000009302321   -0.3000
5      C5      2.6329   -0.5170   -0.3543 C.3      1 ZINC000009302321    0.0900
6      H6      3.2816    0.3031   -0.6620 H        1 ZINC000009302321    0.1400
7      C7      3.3483   -1.8438   -0.1277 C.3      1 ZINC000009302321    0.1000
8      H8      2.8545   -2.7047   -0.5783 H        1 ZINC000009302321    0.1600
9      N9      4.7915   -1.8039   -0.3764 N.am     1 ZINC000009302321   -0.7000
10     C10     5.4497   -2.9323   -0.7080 C.2      1 ZINC000009302321    0.5200
11     O11     4.8472   -3.9808   -0.8004 O.2      1 ZINC000009302321   -0.5000
12     C12     6.9342   -2.8912   -0.9638 C.3      1 ZINC000009302321    0.0400
13     O13     7.3969   -4.2020   -1.2954 O.3      1 ZINC000009302321   -0.2900
14     C14     8.7232   -4.3402   -1.5573 C.ar     1 ZINC000009302321    0.1300
15     C15     9.5632   -3.2380   -1.4908 C.ar     1 ZINC000009302321   -0.2100
16     C16    10.9111   -3.3812   -1.7570 C.ar     1 ZINC000009302321   -0.0800
17     C17    11.4233   -4.6216   -2.0899 C.ar     1 ZINC000009302321   -0.1600
18     C18    10.5882   -5.7215   -2.1572 C.ar     1 ZINC000009302321   -0.0800
19     C19     9.2406   -5.5847   -1.8859 C.ar     1 ZINC000009302321   -0.1500
20     C20     2.9546   -1.5777    1.3007 C.2      1 ZINC000009302321    0.4700
21     O21     3.2279   -2.1501    2.3345 O.2      1 ZINC000009302321   -0.4400
22     N22     2.1938   -0.4697    1.0469 N.am     1 ZINC000009302321   -0.4700
23     C23     0.7447   -0.5655    1.2444 C.3      1 ZINC000009302321    0.0200
24     H24     0.4661   -1.6109    1.3779 H        1 ZINC000009302321    0.0800
25     C25     0.3544    0.2166    2.4720 C.2      1 ZINC000009302321    0.5200
26     O26     1.1752    0.9242    3.0305 O.co2    1 ZINC000009302321   -0.6600
27     O27    -0.7823    0.1417    2.9067 O.co2    1 ZINC000009302321   -0.6800
28     H28     1.0039    1.9031    0.0027 H        1 ZINC000009302321    0.0600
29     H29    -0.5459    1.8868   -0.8726 H        1 ZINC000009302321    0.0600
30     H30    -0.5289    1.8773    0.9072 H        1 ZINC000009302321    0.0800
31     H31    -1.8805   -0.2180   -1.0232 H        1 ZINC000009302321    0.0600
32     H32    -1.3658   -1.6638   -0.1215 H        1 ZINC000009302321    0.0600
33     H33    -2.0023   -0.2497    0.7523 H        1 ZINC000009302321    0.1000
34     H34     5.2734   -0.9653   -0.3024 H        1 ZINC000009302321    0.4100
35     H35     7.1417   -2.2126   -1.7912 H        1 ZINC000009302321    0.1000
36     H36     7.4476   -2.5403   -0.0686 H        1 ZINC000009302321    0.1000
37     H37     9.1634   -2.2688   -1.2315 H        1 ZINC000009302321    0.1300
38     H38    11.5654   -2.5235   -1.7053 H        1 ZINC000009302321    0.1300
39     H39    12.4773   -4.7314   -2.2980 H        1 ZINC000009302321    0.1200
40     H40    10.9906   -6.6893   -2.4178 H        1 ZINC000009302321    0.1300
41     H41     8.5887   -6.4442   -1.9387 H        1 ZINC000009302321    0.1300
@<TRIPOS>BOND
1     1     2     1
2     1     28    1
3     1     29    1
4     1     30    1
5     2     23    1
6     2     3     1
7     2     4     1
8     3     31    1
9     3     32    1
10    3     33    1
11    4     5     1
12    5     6     1
13    5     22    1
14    5     7     1
15    7     8     1
16    7     9     1
17    7     20    1
18    9     10    am
19    9     34    1
20    10    11    2
21    10    12    1
22    12    13    1
23    12    35    1
24    12    36    1
25    13    14    1
26    14    19    ar
27    14    15    ar
28    15    16    ar
29    15    37    1
30    16    17    ar
31    16    38    1
32    17    18    ar
33    17    39    1
34    18    19    ar
35    18    40    1
36    19    41    1
37    20    21    2
38    20    22    am
39    22    23    1
40    23    24    1
41    23    25    1
42    25    26    ar
43    25    27    ar
@<TRIPOS>SUBSTRUCTURE
1   ZINC000009302321 1     RESIDUE    1   A     ZIN   1
