@<TRIPOS>MOLECULE
ZINC000034997331
58    61    1     0     0
SMALL
USER_CHARGES
@<TRIPOS>ATOM
1      C1      1.8166   -0.3817    0.7618 C.3      1 ZINC000034997331    0.0200
2      O2      1.1976   -1.5812    0.2926 O.3      1 ZINC000034997331   -0.3200
3      C3      1.2500   -1.8204   -1.0447 C.ar     1 ZINC000034997331    0.1600
4      C4      1.8866   -0.9253   -1.8819 C.ar     1 ZINC000034997331   -0.1800
5      C5      1.9389   -1.1752   -3.2579 C.ar     1 ZINC000034997331    0.0300
6      C6      2.6157   -0.2260   -4.1542 C.2      1 ZINC000034997331   -0.0700
7      C7      3.3499   -0.6826   -5.1903 C.2      1 ZINC000034997331   -0.1300
8      C8      3.6359   -2.1612   -5.3610 C.3      1 ZINC000034997331   -0.1000
9      C9      5.1008   -2.2915   -5.8025 C.3      1 ZINC000034997331   -0.1300
10     C10     5.2867   -1.5744   -7.1381 C.3      1 ZINC000034997331    0.1000
11     N11     4.8185   -0.1967   -7.0745 N.am     1 ZINC000034997331   -0.5900
12     C12     5.3781    0.7702   -8.0221 C.3      1 ZINC000034997331    0.1700
13     H13     5.0078    1.7676   -7.7848 H        1 ZINC000034997331    0.1200
14     C14     6.9048    0.7562   -7.9233 C.3      1 ZINC000034997331   -0.1600
15     C15     4.9619    0.3999   -9.4224 C.ar     1 ZINC000034997331   -0.1100
16     C16     4.2941    1.3188  -10.2103 C.ar     1 ZINC000034997331   -0.0700
17     C17     3.9120    0.9803  -11.4945 C.ar     1 ZINC000034997331   -0.1500
18     C18     4.1986   -0.2796  -11.9921 C.ar     1 ZINC000034997331    0.1000
19     F19     3.8258   -0.6114  -13.2476 F        1 ZINC000034997331   -0.1400
20     C20     4.8678   -1.1989  -11.2022 C.ar     1 ZINC000034997331   -0.1500
21     C21     5.2533   -0.8566   -9.9200 C.ar     1 ZINC000034997331   -0.0900
22     C22     3.8973    0.2330   -6.1987 C.2      1 ZINC000034997331    0.5500
23     O23     3.5222    1.3904   -6.2343 O.2      1 ZINC000034997331   -0.5300
24     C24     1.3460   -2.3306   -3.7786 C.ar     1 ZINC000034997331   -0.1300
25     C25     0.7128   -3.2188   -2.9371 C.ar     1 ZINC000034997331   -0.0500
26     C26     0.6656   -2.9733   -1.5706 C.ar     1 ZINC000034997331    0.0300
27     N27     0.0211   -3.8797   -0.7202 N.pl3    1 ZINC000034997331   -0.3400
28     C28     0.5241   -4.4106    0.4249 C.cat    1 ZINC000034997331    0.3000
29     N29    -0.3690   -5.2117    0.9388 N.pl3    1 ZINC000034997331   -0.4800
30     H30    -0.2620   -5.7187    1.7587 H        1 ZINC000034997331    0.4600
31     C31    -1.4582   -5.2238    0.1560 C.2      1 ZINC000034997331    0.0400
32     C32    -2.7130   -6.0220    0.4000 C.3      1 ZINC000034997331   -0.1000
33     C33    -1.2392   -4.3949   -0.8823 C.2      1 ZINC000034997331    0.0200
34     H34     2.8766   -0.3967    0.5083 H        1 ZINC000034997331    0.0700
35     H35     1.3427    0.4798    0.2913 H        1 ZINC000034997331    0.0700
36     H36     1.7027   -0.3133    1.8437 H        1 ZINC000034997331    0.1100
37     H37     2.3426   -0.0345   -1.4757 H        1 ZINC000034997331    0.1600
38     H38     2.5252    0.8365   -3.9832 H        1 ZINC000034997331    0.1500
39     H39     3.4859   -2.6802   -4.4143 H        1 ZINC000034997331    0.0900
40     H40     2.9796   -2.5807   -6.1235 H        1 ZINC000034997331    0.0900
41     H41     5.7490   -1.8385   -5.0524 H        1 ZINC000034997331    0.0800
42     H42     5.3546   -3.3454   -5.9164 H        1 ZINC000034997331    0.0900
43     H43     6.3446   -1.5793   -7.4006 H        1 ZINC000034997331    0.0900
44     H44     4.7274   -2.1055   -7.9083 H        1 ZINC000034997331    0.0700
45     H45     7.3212    1.4756   -8.6284 H        1 ZINC000034997331    0.0800
46     H46     7.2059    1.0240   -6.9105 H        1 ZINC000034997331    0.0700
47     H47     7.2751   -0.2411   -8.1606 H        1 ZINC000034997331    0.0600
48     H48     4.0707    2.3015   -9.8219 H        1 ZINC000034997331    0.1400
49     H49     3.3896    1.6981  -12.1096 H        1 ZINC000034997331    0.1400
50     H50     5.0917   -2.1821  -11.5892 H        1 ZINC000034997331    0.1400
51     H51     5.7756   -1.5734   -9.3038 H        1 ZINC000034997331    0.1300
52     H52     1.3845   -2.5260   -4.8400 H        1 ZINC000034997331    0.1500
53     H53     0.2553   -4.1101   -3.3404 H        1 ZINC000034997331    0.1500
54     H54     1.4995   -4.2045    0.8401 H        1 ZINC000034997331    0.2600
55     H55    -3.4093   -5.4314    0.9954 H        1 ZINC000034997331    0.1000
56     H56    -3.1745   -6.2744   -0.5547 H        1 ZINC000034997331    0.1100
57     H57    -2.4626   -6.9376    0.9359 H        1 ZINC000034997331    0.0900
58     H58    -1.9224   -4.1820   -1.6913 H        1 ZINC000034997331    0.2200
@<TRIPOS>BOND
1     1     2     1
2     1     34    1
3     1     35    1
4     1     36    1
5     2     3     1
6     3     26    ar
7     3     4     ar
8     4     5     ar
9     4     37    1
10    5     6     1
11    5     24    ar
12    6     7     2
13    6     38    1
14    7     22    1
15    7     8     1
16    8     9     1
17    8     39    1
18    8     40    1
19    9     10    1
20    9     41    1
21    9     42    1
22    10    11    1
23    10    43    1
24    10    44    1
25    11    12    1
26    11    22    am
27    12    13    1
28    12    14    1
29    12    15    1
30    14    45    1
31    14    46    1
32    14    47    1
33    15    21    ar
34    15    16    ar
35    16    17    ar
36    16    48    1
37    17    18    ar
38    17    49    1
39    18    19    1
40    18    20    ar
41    20    21    ar
42    20    50    1
43    21    51    1
44    22    23    2
45    24    25    ar
46    24    52    1
47    25    26    ar
48    25    53    1
49    26    27    1
50    27    33    1
51    27    28    ar
52    28    29    ar
53    28    54    1
54    29    30    1
55    29    31    1
56    31    32    1
57    31    33    2
58    32    55    1
59    32    56    1
60    32    57    1
61    33    58    1
@<TRIPOS>SUBSTRUCTURE
1   ZINC000034997331 1     RESIDUE    1   A     ZIN   1
