@<TRIPOS>MOLECULE
ZINC000000580328
50    52    1     0     0
SMALL
USER_CHARGES
@<TRIPOS>ATOM
1      C1     -0.0847    1.4108   -0.5308 C.3      1 ZINC000000580328   -0.1500
2      C2     -0.0495   -0.1136   -0.4042 C.3      1 ZINC000000580328   -0.0400
3      C3     -1.4779   -0.6531   -0.3061 C.3      1 ZINC000000580328   -0.1500
4      S4      0.7761   -0.8266   -1.8578 S.3      1 ZINC000000580328   -0.2100
5      C5      0.8639   -2.5901   -1.4271 C.3      1 ZINC000000580328   -0.1000
6      C6      1.5564   -2.7325   -0.0675 C.3      1 ZINC000000580328    0.0900
7      N7      0.8198   -1.9654    0.9383 N.am     1 ZINC000000580328   -0.9800
8      S8      0.0745   -2.7564    2.1878 S.o2     1 ZINC000000580328    2.6800
9      O9     -0.9629   -1.8989    2.6437 O.2      1 ZINC000000580328   -0.9300
10     O10    -0.1560   -4.0855    1.7408 O.2      1 ZINC000000580328   -0.9300
11     C11     1.2410   -2.8693    3.5035 C.ar     1 ZINC000000580328   -0.6700
12     C12     2.0886   -3.9588    3.5828 C.ar     1 ZINC000000580328    0.0000
13     C13     3.0040   -4.0497    4.6133 C.ar     1 ZINC000000580328   -0.1500
14     C14     3.0725   -3.0464    5.5693 C.ar     1 ZINC000000580328    0.1000
15     O15     3.9725   -3.1332    6.5838 O.3      1 ZINC000000580328   -0.2200
16     C16     5.2907   -3.0315    6.2766 C.ar     1 ZINC000000580328    0.2500
17     C17     6.2683   -3.2446    7.2456 C.ar     1 ZINC000000580328   -0.1500
18     C18     7.5975   -3.1322    6.8934 C.ar     1 ZINC000000580328    0.1700
19     N19     7.9462   -2.8275    5.6577 N.ar     1 ZINC000000580328   -0.4700
20     H20     8.8883   -2.7552    5.4381 H        1 ZINC000000580328    0.4600
21     C21     7.0497   -2.6188    4.7121 C.ar     1 ZINC000000580328    0.1700
22     C22     5.7004   -2.7171    4.9831 C.ar     1 ZINC000000580328   -0.2100
23     C23     2.2208   -1.9541    5.4874 C.ar     1 ZINC000000580328   -0.1200
24     C24     1.3111   -1.8653    4.4517 C.ar     1 ZINC000000580328    0.0000
25     C25     0.7354   -0.5066    0.8519 C.3      1 ZINC000000580328    0.1500
26     H26     0.2263   -0.1193    1.7344 H        1 ZINC000000580328    0.1300
27     C27     2.1243    0.0733    0.7781 C.2      1 ZINC000000580328    0.5300
28     O28     3.0356   -0.5903    0.3307 O.2      1 ZINC000000580328   -0.4900
29     N29     2.3538    1.3295    1.2092 N.am     1 ZINC000000580328   -0.5900
30     O30     3.6589    1.8745    1.1399 O.3      1 ZINC000000580328   -0.3200
31     H31     0.9334    1.7928   -0.6054 H        1 ZINC000000580328    0.0700
32     H32    -0.6434    1.6883   -1.4246 H        1 ZINC000000580328    0.0900
33     H33    -0.5693    1.8372    0.3476 H        1 ZINC000000580328    0.0800
34     H34    -2.0331   -0.3767   -1.2025 H        1 ZINC000000580328    0.0800
35     H35    -1.4507   -1.7390   -0.2160 H        1 ZINC000000580328    0.0500
36     H36    -1.9675   -0.2279    0.5701 H        1 ZINC000000580328    0.0800
37     H37    -0.1433   -3.0026   -1.3691 H        1 ZINC000000580328    0.0900
38     H38     1.4362   -3.1234   -2.1862 H        1 ZINC000000580328    0.1200
39     H39     1.5779   -3.7834    0.2209 H        1 ZINC000000580328    0.1000
40     H40     2.5762   -2.3542   -0.1378 H        1 ZINC000000580328    0.1300
41     H41     2.0346   -4.7397    2.8387 H        1 ZINC000000580328    0.1600
42     H42     3.6656   -4.9011    4.6750 H        1 ZINC000000580328    0.1500
43     H43     5.9896   -3.4939    8.2588 H        1 ZINC000000580328    0.2000
44     H44     8.3622   -3.2954    7.6384 H        1 ZINC000000580328    0.2200
45     H45     7.3763   -2.3715    3.7129 H        1 ZINC000000580328    0.2200
46     H46     4.9718   -2.5451    4.2046 H        1 ZINC000000580328    0.1900
47     H47     2.2719   -1.1720    6.2304 H        1 ZINC000000580328    0.1500
48     H48     0.6479   -1.0153    4.3874 H        1 ZINC000000580328    0.1600
49     H49     1.6250    1.8602    1.5670 H        1 ZINC000000580328    0.4100
50     H50     3.7251    2.7803    1.4720 H        1 ZINC000000580328    0.3900
@<TRIPOS>BOND
1     1     2     1
2     1     31    1
3     1     32    1
4     1     33    1
5     2     25    1
6     2     3     1
7     2     4     1
8     3     34    1
9     3     35    1
10    3     36    1
11    4     5     1
12    5     6     1
13    5     37    1
14    5     38    1
15    6     7     1
16    6     39    1
17    6     40    1
18    7     8     am
19    7     25    1
20    8     9     2
21    8     10    2
22    8     11    1
23    11    24    ar
24    11    12    ar
25    12    13    ar
26    12    41    1
27    13    14    ar
28    13    42    1
29    14    15    1
30    14    23    ar
31    15    16    1
32    16    22    ar
33    16    17    ar
34    17    18    ar
35    17    43    1
36    18    19    ar
37    18    44    1
38    19    20    1
39    19    21    ar
40    21    22    ar
41    21    45    1
42    22    46    1
43    23    24    ar
44    23    47    1
45    24    48    1
46    25    26    1
47    25    27    1
48    27    28    2
49    27    29    am
50    29    30    1
51    29    49    1
52    30    50    1
@<TRIPOS>SUBSTRUCTURE
1   ZINC000000580328 1     RESIDUE    1   A     ZIN   1
