@<TRIPOS>MOLECULE
ZINC000022440925
64    67    1     0     0
SMALL
USER_CHARGES
@<TRIPOS>ATOM
1      C1     -0.0173    1.4248    0.0099 C.3      1 ZINC000022440925    0.0300
2      O2      0.0021   -0.0041    0.0020 O.3      1 ZINC000022440925   -0.3100
3      C3     -1.2011   -0.6379    0.0101 C.ar     1 ZINC000022440925    0.1000
4      C4     -2.3739    0.0992    0.0195 C.ar     1 ZINC000022440925   -0.1700
5      C5     -3.5965   -0.5469    0.0272 C.ar     1 ZINC000022440925   -0.1100
6      C6     -3.6519   -1.9279    0.0261 C.ar     1 ZINC000022440925   -0.1200
7      C7     -4.9869   -2.6268    0.0350 C.3      1 ZINC000022440925    0.1500
8      H8     -4.8737   -3.6210    0.4674 H        1 ZINC000022440925    0.1100
9      O9     -5.9151   -1.8709    0.8154 O.3      1 ZINC000022440925   -0.5400
10     C10    -5.5075   -2.7504   -1.3984 C.3      1 ZINC000022440925    0.0300
11     N11    -6.8089   -3.4317   -1.3896 N.3      1 ZINC000022440925   -0.5300
12     C12    -6.7734   -4.6242   -0.5315 C.3      1 ZINC000022440925    0.0500
13     C13    -8.1654   -5.2586   -0.4864 C.3      1 ZINC000022440925    0.0600
14     N14    -8.5865   -5.6073   -1.8505 N.3      1 ZINC000022440925   -0.5300
15     C15    -9.8879   -6.2886   -1.8418 C.3      1 ZINC000022440925    0.1700
16     C16   -10.2858   -6.6298   -3.2547 C.ar     1 ZINC000022440925   -0.0800
17     C17    -9.3373   -7.0931   -4.1472 C.ar     1 ZINC000022440925   -0.0900
18     C18    -9.7022   -7.4060   -5.4432 C.ar     1 ZINC000022440925   -0.1200
19     C19   -11.0159   -7.2560   -5.8467 C.ar     1 ZINC000022440925   -0.1200
20     C20   -11.9646   -6.7936   -4.9539 C.ar     1 ZINC000022440925   -0.1200
21     C21   -11.6005   -6.4848   -3.6567 C.ar     1 ZINC000022440925   -0.1100
22     C22    -9.7872   -7.5536   -1.0289 C.ar     1 ZINC000022440925   -0.0800
23     C23    -8.6551   -8.3422   -1.1150 C.ar     1 ZINC000022440925   -0.0900
24     C24    -8.5628   -9.5026   -0.3694 C.ar     1 ZINC000022440925   -0.1200
25     C25    -9.6023   -9.8741    0.4626 C.ar     1 ZINC000022440925   -0.1200
26     C26   -10.7340   -9.0851    0.5494 C.ar     1 ZINC000022440925   -0.1200
27     C27   -10.8245   -7.9225   -0.1930 C.ar     1 ZINC000022440925   -0.1100
28     C28    -8.6221   -4.4148   -2.7086 C.3      1 ZINC000022440925    0.0600
29     C29    -7.2300   -3.7804   -2.7537 C.3      1 ZINC000022440925    0.0600
30     C30    -2.4848   -2.6697    0.0163 C.ar     1 ZINC000022440925   -0.1600
31     C31    -1.2569   -2.0287    0.0032 C.ar     1 ZINC000022440925    0.1000
32     O32    -0.1082   -2.7567   -0.0065 O.3      1 ZINC000022440925   -0.3100
33     C33    -0.2418   -4.1795   -0.0024 C.3      1 ZINC000022440925    0.0300
34     H34     1.0053    1.8021    0.0021 H        1 ZINC000022440925    0.1000
35     H35    -0.5445    1.7859   -0.8732 H        1 ZINC000022440925    0.0600
36     H36    -0.5275    1.7763    0.9067 H        1 ZINC000022440925    0.0600
37     H37    -2.3334    1.1784    0.0211 H        1 ZINC000022440925    0.1400
38     H38    -4.5102    0.0290    0.0345 H        1 ZINC000022440925    0.1300
39     H39    -6.0651   -0.9734    0.4879 H        1 ZINC000022440925    0.3700
40     H40    -5.6208   -1.7562   -1.8308 H        1 ZINC000022440925    0.0800
41     H41    -4.7995   -3.3270   -1.9936 H        1 ZINC000022440925    0.0500
42     H42    -6.0595   -5.3419   -0.9358 H        1 ZINC000022440925    0.0400
43     H43    -6.4711   -4.3383    0.4760 H        1 ZINC000022440925    0.0900
44     H44    -8.1347   -6.1597    0.1262 H        1 ZINC000022440925    0.0800
45     H45    -8.8741   -4.5505   -0.0569 H        1 ZINC000022440925    0.0400
46     H46   -10.6386   -5.6325   -1.4012 H        1 ZINC000022440925    0.0600
47     H47    -8.3109   -7.2102   -3.8319 H        1 ZINC000022440925    0.1300
48     H48    -8.9610   -7.7672   -6.1407 H        1 ZINC000022440925    0.1200
49     H49   -11.3009   -7.4998   -6.8594 H        1 ZINC000022440925    0.1200
50     H50   -12.9909   -6.6761   -5.2692 H        1 ZINC000022440925    0.1200
51     H51   -12.3417   -6.1235   -2.9592 H        1 ZINC000022440925    0.1200
52     H52    -7.8430   -8.0520   -1.7651 H        1 ZINC000022440925    0.1300
53     H53    -7.6786  -10.1191   -0.4372 H        1 ZINC000022440925    0.1200
54     H54    -9.5304  -10.7811    1.0446 H        1 ZINC000022440925    0.1200
55     H55   -11.5463   -9.3755    1.1992 H        1 ZINC000022440925    0.1200
56     H56   -11.7087   -7.3060   -0.1252 H        1 ZINC000022440925    0.1200
57     H57    -8.9243   -4.7007   -3.7161 H        1 ZINC000022440925    0.0800
58     H58    -9.3359   -3.6971   -2.3043 H        1 ZINC000022440925    0.0400
59     H59    -7.2607   -2.8793   -3.3663 H        1 ZINC000022440925    0.0800
60     H60    -6.5214   -4.4885   -3.1832 H        1 ZINC000022440925    0.0400
61     H61    -2.5308   -3.7487    0.0154 H        1 ZINC000022440925    0.1400
62     H62     0.7473   -4.6373   -0.0110 H        1 ZINC000022440925    0.1000
63     H63    -0.7788   -4.4914    0.8934 H        1 ZINC000022440925    0.0600
64     H64    -0.7960   -4.4949   -0.8864 H        1 ZINC000022440925    0.0500
@<TRIPOS>BOND
1     1     2     1
2     1     34    1
3     1     35    1
4     1     36    1
5     2     3     1
6     3     31    ar
7     3     4     ar
8     4     5     ar
9     4     37    1
10    5     6     ar
11    5     38    1
12    6     7     1
13    6     30    ar
14    7     8     1
15    7     9     1
16    7     10    1
17    9     39    1
18    10    11    1
19    10    40    1
20    10    41    1
21    11    29    1
22    11    12    1
23    12    13    1
24    12    42    1
25    12    43    1
26    13    14    1
27    13    44    1
28    13    45    1
29    14    15    1
30    14    28    1
31    15    16    1
32    15    22    1
33    15    46    1
34    16    21    ar
35    16    17    ar
36    17    18    ar
37    17    47    1
38    18    19    ar
39    18    48    1
40    19    20    ar
41    19    49    1
42    20    21    ar
43    20    50    1
44    21    51    1
45    22    27    ar
46    22    23    ar
47    23    24    ar
48    23    52    1
49    24    25    ar
50    24    53    1
51    25    26    ar
52    25    54    1
53    26    27    ar
54    26    55    1
55    27    56    1
56    28    29    1
57    28    57    1
58    28    58    1
59    29    59    1
60    29    60    1
61    30    31    ar
62    30    61    1
63    31    32    1
64    32    33    1
65    33    62    1
66    33    63    1
67    33    64    1
@<TRIPOS>SUBSTRUCTURE
1   ZINC000022440925 1     RESIDUE    1   A     ZIN   1
