@<TRIPOS>MOLECULE
ZINC000033996154
42    45    1     0     0
SMALL
USER_CHARGES
@<TRIPOS>ATOM
1      O1      0.5149    1.2937   -0.5672 O.3      1 ZINC000033996154   -0.4900
2      C2      0.4419   -0.0606   -0.4669 C.ar     1 ZINC000033996154    0.0800
3      C3      0.5207   -0.8469   -1.6023 C.ar     1 ZINC000033996154   -0.1300
4      C4      0.4458   -2.2288   -1.5054 C.ar     1 ZINC000033996154   -0.0700
5      C5      0.2896   -2.8253   -0.2724 C.ar     1 ZINC000033996154   -0.1100
6      C6      0.2131   -2.0406    0.8697 C.ar     1 ZINC000033996154   -0.1200
7      C7      0.2932   -0.6628    0.7793 C.ar     1 ZINC000033996154    0.0800
8      O8      0.2173    0.1009    1.9020 O.3      1 ZINC000033996154   -0.4900
9      C9      0.1915   -4.3208   -0.1201 C.3      1 ZINC000033996154    0.1300
10     H10    -0.8504   -4.5986    0.0391 H        1 ZINC000033996154    0.1000
11     C11     1.0214   -4.7608    1.0876 C.3      1 ZINC000033996154   -0.0800
12     C12     0.8553   -6.2438    1.2978 C.ar     1 ZINC000033996154   -0.0600
13     C13    -0.2581   -6.7375    1.9982 C.ar     1 ZINC000033996154   -0.0400
14     C14    -1.2372   -5.8721    2.5159 C.ar     1 ZINC000033996154   -0.1100
15     C15    -2.3025   -6.3863    3.1887 C.ar     1 ZINC000033996154   -0.1200
16     C16    -2.4388   -7.7610    3.3739 C.ar     1 ZINC000033996154   -0.1200
17     C17    -1.5107   -8.6292    2.8872 C.ar     1 ZINC000033996154   -0.1100
18     C18    -0.3971   -8.1356    2.1861 C.ar     1 ZINC000033996154   -0.0500
19     C19     0.5815   -9.0007    1.6685 C.ar     1 ZINC000033996154   -0.1100
20     C20     1.6465   -8.4865    0.9943 C.ar     1 ZINC000033996154   -0.1100
21     C21     1.7804   -7.1125    0.8053 C.ar     1 ZINC000033996154   -0.1000
22     N22     0.6933   -4.9938   -1.3222 N.3      1 ZINC000033996154   -0.6700
23     C23     0.0271   -4.4598   -2.5207 C.3      1 ZINC000033996154    0.0600
24     C24     0.5421   -3.0421   -2.7709 C.3      1 ZINC000033996154   -0.1200
25     H25     1.4143    1.6443   -0.5112 H        1 ZINC000033996154    0.3900
26     H26     0.6410   -0.3823   -2.5698 H        1 ZINC000033996154    0.1300
27     H27     0.0940   -2.5090    1.8356 H        1 ZINC000033996154    0.1400
28     H28     1.0730    0.2766    2.3168 H        1 ZINC000033996154    0.3900
29     H29     2.0725   -4.5348    0.9080 H        1 ZINC000033996154    0.0800
30     H30     0.6817   -4.2277    1.9756 H        1 ZINC000033996154    0.0800
31     H31    -1.1444   -4.8046    2.3807 H        1 ZINC000033996154    0.1200
32     H32    -3.0534   -5.7192    3.5855 H        1 ZINC000033996154    0.1200
33     H33    -3.2938   -8.1430    3.9120 H        1 ZINC000033996154    0.1200
34     H34    -1.6292   -9.6919    3.0390 H        1 ZINC000033996154    0.1300
35     H35     0.4895  -10.0680    1.8051 H        1 ZINC000033996154    0.1200
36     H36     2.3975   -9.1537    0.5978 H        1 ZINC000033996154    0.1200
37     H37     2.6349   -6.7305    0.2664 H        1 ZINC000033996154    0.1200
38     H38     1.6956   -4.9036   -1.3952 H        1 ZINC000033996154    0.3400
39     H39     0.2579   -5.0901   -3.3795 H        1 ZINC000033996154    0.0900
40     H40    -1.0507   -4.4350   -2.3602 H        1 ZINC000033996154    0.0800
41     H41    -0.0576   -2.5715   -3.5500 H        1 ZINC000033996154    0.0800
42     H42     1.5821   -3.0868   -3.0942 H        1 ZINC000033996154    0.0800
@<TRIPOS>BOND
1     1     2     1
2     1     25    1
3     2     7     ar
4     2     3     ar
5     3     4     ar
6     3     26    1
7     4     24    1
8     4     5     ar
9     5     6     ar
10    5     9     1
11    6     7     ar
12    6     27    1
13    7     8     1
14    8     28    1
15    9     10    1
16    9     11    1
17    9     22    1
18    11    12    1
19    11    29    1
20    11    30    1
21    12    21    ar
22    12    13    ar
23    13    18    ar
24    13    14    ar
25    14    15    ar
26    14    31    1
27    15    16    ar
28    15    32    1
29    16    17    ar
30    16    33    1
31    17    18    ar
32    17    34    1
33    18    19    ar
34    19    20    ar
35    19    35    1
36    20    21    ar
37    20    36    1
38    21    37    1
39    22    23    1
40    22    38    1
41    23    24    1
42    23    39    1
43    23    40    1
44    24    41    1
45    24    42    1
@<TRIPOS>SUBSTRUCTURE
1   ZINC000033996154 1     RESIDUE    1   A     ZIN   1
