@<TRIPOS>MOLECULE
ZINC000026496985
28    29    1     0     0
SMALL
USER_CHARGES
@<TRIPOS>ATOM
1      O1      0.0021   -0.0041    0.0020 O.2      1 ZINC000026496985   -0.4400
2      C2     -0.0144    1.2125    0.0087 C.2      1 ZINC000026496985    0.3500
3      C3     -1.0806    2.2519    0.0311 C.2      1 ZINC000026496985    0.3400
4      O4     -2.2971    2.2681    0.0522 O.2      1 ZINC000026496985   -0.3800
5      C5     -0.0108    3.2405    0.0170 C.2      1 ZINC000026496985    0.1300
6      C6      0.9974    2.2540    0.0046 C.2      1 ZINC000026496985    0.0300
7      N7      2.3776    2.4180   -0.0075 N.pl3    1 ZINC000026496985   -0.7200
8      C8      2.8582    3.3215   -1.0730 C.3      1 ZINC000026496985    0.1400
9      C9      2.4592    4.7463   -0.8041 C.3      1 ZINC000026496985   -0.1700
10     C10     1.0264    5.1243   -1.0568 C.3      1 ZINC000026496985    0.1200
11     N11     0.1374    4.6260    0.0158 N.pl3    1 ZINC000026496985   -0.6000
12     C12    -0.5258    5.5072    0.9802 C.3      1 ZINC000026496985    0.1700
13     C13    -1.8897    5.9299    0.4307 C.3      1 ZINC000026496985   -0.7400
14     P14    -2.7150    7.0264    1.6306 P.3      1 ZINC000026496985    2.2100
15     O15    -2.7966    6.3107    3.0219 O.co2    1 ZINC000026496985   -1.1800
16     O16    -1.8961    8.3544    1.7737 O.co2    1 ZINC000026496985   -1.1800
17     O17    -4.1615    7.3565    1.1276 O.co2    1 ZINC000026496985   -1.1800
18     H18     2.9696    1.9802    0.6241 H        1 ZINC000026496985    0.4100
19     H19     3.9450    3.2600   -1.1296 H        1 ZINC000026496985    0.0800
20     H20     2.4341    3.0061   -2.0263 H        1 ZINC000026496985    0.0600
21     H21     2.6831    4.9645    0.2401 H        1 ZINC000026496985    0.0700
22     H22     3.0881    5.3910   -1.4181 H        1 ZINC000026496985    0.0800
23     H23     0.9483    6.2103   -1.1074 H        1 ZINC000026496985    0.0900
24     H24     0.7094    4.7010   -2.0100 H        1 ZINC000026496985    0.0500
25     H25    -0.6623    4.9770    1.9227 H        1 ZINC000026496985    0.0800
26     H26     0.0889    6.3918    1.1466 H        1 ZINC000026496985    0.0800
27     H27    -1.7532    6.4601   -0.5119 H        1 ZINC000026496985    0.0500
28     H28    -2.5044    5.0453    0.2643 H        1 ZINC000026496985    0.0600
@<TRIPOS>BOND
1     1     2     2
2     2     6     1
3     2     3     1
4     3     4     2
5     3     5     1
6     5     11    1
7     5     6     2
8     6     7     1
9     7     8     1
10    7     18    1
11    8     9     1
12    8     19    1
13    8     20    1
14    9     10    1
15    9     21    1
16    9     22    1
17    10    11    1
18    10    23    1
19    10    24    1
20    11    12    1
21    12    13    1
22    12    25    1
23    12    26    1
24    13    14    1
25    13    27    1
26    13    28    1
27    14    15    ar
28    14    16    ar
29    14    17    ar
@<TRIPOS>SUBSTRUCTURE
1   ZINC000026496985 1     RESIDUE    1   A     ZIN   1
