@<TRIPOS>MOLECULE
ZINC000001529636
  17   16    0    0    0
SMALL
USER_CHARGES
NO_NAME
@<TRIPOS>ATOM
    1 N1       -0.0116     1.0048     0.0076 N.4    1 <0>      -0.6400
    2 H2        0.0021    -0.0041     0.0020 H      1 <0>       0.4400
    3 H3        0.9350     1.3541     0.0004 H      1 <0>       0.4400
    4 H4       -0.4996     1.3391    -0.8099 H      1 <0>       0.4300
    5 C5       -0.6992     1.4786     1.2162 C.3    1 <0>       0.0000
    6 C6        0.0408     0.9717     2.4557 C.3    1 <0>      -0.1300
    7 C7       -0.6753     1.4652     3.7145 C.3    1 <0>      -0.6800
    8 S8        0.2020     0.8642     5.1841 S.o2   1 <0>       2.6300
    9 O9       -0.4902     1.3412     6.3713 O.co2  1 <0>      -1.0500
   10 O10       0.2132    -0.5902     5.1616 O.co2  1 <0>      -1.0600
   11 O11       1.5636     1.3757     5.1593 O.co2  1 <0>      -1.0600
   12 H12      -0.7140     2.5685     1.2222 H      1 <0>       0.1300
   13 H13      -1.7218     1.1013     1.2239 H      1 <0>       0.1300
   14 H14       0.0556    -0.1181     2.4497 H      1 <0>       0.1000
   15 H15       1.0634     1.3490     2.4480 H      1 <0>       0.1000
   16 H16      -0.6901     2.5550     3.7205 H      1 <0>       0.1100
   17 H17      -1.6979     1.0879     3.7222 H      1 <0>       0.1100
@<TRIPOS>BOND
   1    1    2 1
   2    1    3 1
   3    1    4 1
   4    1    5 1
   5    5    6 1
   6    5   12 1
   7    5   13 1
   8    6    7 1
   9    6   14 1
  10    6   15 1
  11    7    8 1
  12    7   16 1
  13    7   17 1
  14    8    9 ar
  15    8   10 ar
  16    8   11 ar
