@<TRIPOS>MOLECULE
ZINC000029134545
73    76    1     0     0
SMALL
USER_CHARGES
@<TRIPOS>ATOM
1      C1     -4.5936   -1.1243   -0.8045 C.2      1 ZINC000029134545   -0.1900
2      C2     -3.4653   -1.4478   -0.2229 C.2      1 ZINC000029134545   -0.1400
3      C3     -2.5902   -2.5198   -0.8198 C.3      1 ZINC000029134545    0.0800
4      N4     -1.2489   -1.9747   -1.0685 N.3      1 ZINC000029134545   -0.5200
5      C5     -0.2752   -3.0524   -1.2883 C.3      1 ZINC000029134545    0.0700
6      C6     -0.1096   -3.8466   -0.0182 C.2      1 ZINC000029134545   -0.1500
7      C7     -0.2926   -5.1437   -0.0283 C.2      1 ZINC000029134545   -0.1900
8      C8     -1.2626   -1.0387   -2.2005 C.3      1 ZINC000029134545    0.1000
9      C9      0.0288   -0.2802   -2.2371 C.2      1 ZINC000029134545   -0.0600
10     C10     1.0258   -0.6355   -3.0401 C.2      1 ZINC000029134545   -0.1500
11     C11     0.8551   -1.7141   -4.1055 C.2      1 ZINC000029134545    0.3800
12     O12     0.5947   -2.8991   -3.9408 O.2      1 ZINC000029134545   -0.3600
13     C13     1.1777   -1.1447   -5.4390 C.2      1 ZINC000029134545    0.3400
14     O14     0.8454   -1.6747   -6.5266 O.2      1 ZINC000029134545   -0.3700
15     C15     1.9755    0.1511   -5.4961 C.2      1 ZINC000029134545   -0.1300
16     C16     2.5435    0.7298   -4.4361 C.2      1 ZINC000029134545   -0.0300
17     C17     3.2782    2.0129   -4.5394 C.3      1 ZINC000029134545    0.1500
18     H18     4.2334    1.9390   -4.1497 H        1 ZINC000029134545    0.1100
19     O19     2.5472    3.0753   -3.7116 O.3      1 ZINC000029134545   -0.3600
20     C20     3.2963    4.0502   -3.1731 C.2      1 ZINC000029134545    0.4700
21     C21     2.6470    5.1299   -2.3463 C.3      1 ZINC000029134545   -0.1500
22     O22     4.4913    4.0621   -3.3512 O.2      1 ZINC000029134545   -0.5100
23     C23     3.4184    2.6038   -5.8927 C.3      1 ZINC000029134545   -0.1300
24     C24     3.4757    1.5213   -6.9095 C.3      1 ZINC000029134545   -0.1100
25     C25     4.5114    0.5026   -6.6080 C.3      1 ZINC000029134545   -0.1500
26     C26     3.4972    1.9502   -8.3749 C.2      1 ZINC000029134545    0.3700
27     O27     4.1095    2.9154   -8.8549 O.2      1 ZINC000029134545   -0.4400
28     C28     2.7093    0.8729   -9.1547 C.3      1 ZINC000029134545   -0.1900
29     C29     1.9741   -0.0350   -8.0725 C.3      1 ZINC000029134545   -0.1000
30     C30     2.0244    0.8688   -6.8811 C.3      1 ZINC000029134545   -0.0500
31     H31     1.2506    1.6359   -6.8597 H        1 ZINC000029134545    0.1100
32     C32     2.4512    0.0141   -3.1119 C.3      1 ZINC000029134545    0.0100
33     C33     3.3978   -1.1466   -3.1611 C.3      1 ZINC000029134545   -0.1600
34     C34     2.6501    0.7013   -1.8287 C.3      1 ZINC000029134545    0.1000
35     H35     2.6751   -0.1249   -0.9983 H        1 ZINC000029134545    0.1100
36     C36     3.9298    1.4605   -1.6684 C.3      1 ZINC000029134545    0.0500
37     O37     4.0189    1.9677   -0.3354 O.3      1 ZINC000029134545   -0.3700
38     C38     5.2103    2.7127   -0.0755 C.3      1 ZINC000029134545    0.0300
39     O39     1.5202    1.5479   -1.4251 O.3      1 ZINC000029134545   -0.3000
40     C40     0.2779    0.9912   -1.4817 C.2      1 ZINC000029134545    0.4900
41     O41    -0.6628    1.4398   -0.7623 O.2      1 ZINC000029134545   -0.4400
42     H42    -5.2597   -0.4158   -0.3345 H        1 ZINC000029134545    0.1000
43     H43    -4.8558   -1.5628   -1.7560 H        1 ZINC000029134545    0.0900
44     H44    -3.1621   -0.9463    0.6843 H        1 ZINC000029134545    0.1200
45     H45    -2.5189   -3.3582   -0.1269 H        1 ZINC000029134545    0.0900
46     H46    -3.0237   -2.8611   -1.7598 H        1 ZINC000029134545    0.0400
47     H47    -0.6318   -3.7079   -2.0828 H        1 ZINC000029134545    0.0500
48     H48     0.6843   -2.6222   -1.5755 H        1 ZINC000029134545    0.0800
49     H49     0.1599   -3.3463    0.9002 H        1 ZINC000029134545    0.1200
50     H50    -0.5620   -5.6440   -0.9467 H        1 ZINC000029134545    0.1000
51     H51    -0.1739   -5.7128    0.8819 H        1 ZINC000029134545    0.1000
52     H52    -1.3839   -1.5946   -3.1302 H        1 ZINC000029134545    0.0500
53     H53    -2.0911   -0.3400   -2.0843 H        1 ZINC000029134545    0.1100
54     H54     1.5724    4.9534   -2.2975 H        1 ZINC000029134545    0.0900
55     H55     3.0635    5.1163   -1.3391 H        1 ZINC000029134545    0.1100
56     H56     2.8352    6.1010   -2.8042 H        1 ZINC000029134545    0.1100
57     H57     2.6299    3.3272   -6.1150 H        1 ZINC000029134545    0.1000
58     H58     4.3694    3.1311   -6.0139 H        1 ZINC000029134545    0.0900
59     H59     4.2911    0.0332   -5.6493 H        1 ZINC000029134545    0.0700
60     H60     4.5145   -0.2553   -7.3915 H        1 ZINC000029134545    0.0800
61     H61     5.4895    0.9815   -6.5619 H        1 ZINC000029134545    0.0700
62     H62     1.9254    1.4197   -9.8136 H        1 ZINC000029134545    0.1000
63     H63     3.2981    0.2037   -9.7904 H        1 ZINC000029134545    0.1100
64     H64     0.8684   -0.1687   -8.4007 H        1 ZINC000029134545    0.1000
65     H65     2.5075   -0.9196   -7.9335 H        1 ZINC000029134545    0.0900
66     H66     4.4115   -0.7820   -3.3274 H        1 ZINC000029134545    0.0900
67     H67     3.3571   -1.6888   -2.2164 H        1 ZINC000029134545    0.0900
68     H68     3.1133   -1.8132   -3.9752 H        1 ZINC000029134545    0.0700
69     H69     4.7726    0.7969   -1.8617 H        1 ZINC000029134545    0.0800
70     H70     3.9510    2.2901   -2.3751 H        1 ZINC000029134545    0.0700
71     H71     5.2582    3.5683   -0.7491 H        1 ZINC000029134545    0.0500
72     H72     5.2019    3.0629    0.9567 H        1 ZINC000029134545    0.0900
73     H73     6.0797    2.0751   -0.2357 H        1 ZINC000029134545    0.0400
@<TRIPOS>BOND
1     1     2     2
2     1     42    1
3     1     43    1
4     2     3     1
5     2     44    1
6     3     4     1
7     3     45    1
8     3     46    1
9     4     5     1
10    4     8     1
11    5     6     1
12    5     47    1
13    5     48    1
14    6     7     2
15    6     49    1
16    7     50    1
17    7     51    1
18    8     9     1
19    8     52    1
20    8     53    1
21    9     40    1
22    9     10    2
23    10    32    1
24    10    11    1
25    11    12    2
26    11    13    1
27    13    14    2
28    13    15    1
29    15    30    1
30    15    16    2
31    16    17    1
32    16    32    1
33    17    18    1
34    17    19    1
35    17    23    1
36    19    20    1
37    20    21    1
38    20    22    2
39    21    54    1
40    21    55    1
41    21    56    1
42    23    24    1
43    23    57    1
44    23    58    1
45    24    30    1
46    24    25    1
47    24    26    1
48    25    59    1
49    25    60    1
50    25    61    1
51    26    27    2
52    26    28    1
53    28    29    1
54    28    62    1
55    28    63    1
56    29    30    1
57    29    64    1
58    29    65    1
59    30    31    1
60    32    33    1
61    32    34    1
62    33    66    1
63    33    67    1
64    33    68    1
65    34    35    1
66    34    36    1
67    34    39    1
68    36    37    1
69    36    69    1
70    36    70    1
71    37    38    1
72    38    71    1
73    38    72    1
74    38    73    1
75    39    40    1
76    40    41    2
@<TRIPOS>SUBSTRUCTURE
1   ZINC000029134545 1     RESIDUE    1   A     ZIN   1
