@<TRIPOS>MOLECULE
ZINC000043196230
59    63    1     0     0
SMALL
USER_CHARGES
@<TRIPOS>ATOM
1      C1      0.6467    1.3462    0.5635 C.3      1 ZINC000043196230   -0.1700
2      C2      0.5142   -0.1474    0.4123 C.2      1 ZINC000043196230    0.5100
3      O3      1.5045   -0.8323    0.2668 O.2      1 ZINC000043196230   -0.5500
4      N4     -0.7046   -0.7219    0.4388 N.am     1 ZINC000043196230   -0.7200
5      C5     -0.8334   -2.1738    0.2918 C.3      1 ZINC000043196230    0.1000
6      C6     -2.2892   -2.5581    0.3560 C.2      1 ZINC000043196230    0.5400
7      O7     -3.1358   -1.7033    0.5093 O.2      1 ZINC000043196230   -0.5300
8      N8     -2.6503   -3.8516    0.2429 N.am     1 ZINC000043196230   -0.6300
9      C9     -1.8408   -5.1082    0.0557 C.3      1 ZINC000043196230    0.1800
10     H10    -0.7576   -4.9871    0.0549 H        1 ZINC000043196230    0.1300
11     C11    -2.4651   -5.6580   -1.2652 C.3      1 ZINC000043196230   -0.1300
12     C12    -3.9559   -5.2530   -1.1366 C.3      1 ZINC000043196230   -0.1300
13     C13    -3.9979   -4.5245    0.2681 C.3      1 ZINC000043196230    0.1800
14     H14    -4.8561   -3.8752    0.4412 H        1 ZINC000043196230    0.1200
15     C15    -3.7852   -5.6346    1.2943 C.ar     1 ZINC000043196230   -0.0900
16     C16    -4.6074   -6.2464    2.2068 C.ar     1 ZINC000043196230   -0.0800
17     C17    -4.0992   -7.2540    3.0217 C.ar     1 ZINC000043196230    0.1700
18     N18    -4.9286   -7.8834    3.9549 N.pl3    1 ZINC000043196230   -0.6300
19     C19    -6.2714   -8.0721    3.6719 C.ar     1 ZINC000043196230    0.6200
20     N20    -6.7286   -7.7559    2.4694 N.ar     1 ZINC000043196230   -0.5800
21     C21    -8.0065   -7.9224    2.1611 C.ar     1 ZINC000043196230    0.2700
22     C22    -8.8696   -8.4332    3.1104 C.ar     1 ZINC000043196230   -0.4100
23     C23   -10.3291   -8.6367    2.7951 C.3      1 ZINC000043196230    0.5300
24     F24   -10.5817   -8.2379    1.4781 F        1 ZINC000043196230   -0.1700
25     F25   -10.6541   -9.9893    2.9431 F        1 ZINC000043196230   -0.1800
26     F26   -11.1066   -7.8717    3.6712 F        1 ZINC000043196230   -0.1800
27     C27    -8.3589   -8.7575    4.3695 C.ar     1 ZINC000043196230    0.5300
28     N28    -9.1876   -9.2731    5.3526 N.pl3    1 ZINC000043196230   -0.6800
29     C29    -8.6407   -9.6095    6.6694 C.3      1 ZINC000043196230    0.1200
30     C30    -9.0610   -8.6314    7.7792 C.3      1 ZINC000043196230   -0.1500
31     C31   -10.2879   -9.5320    7.9997 C.3      1 ZINC000043196230   -0.1500
32     C32    -9.4501  -10.6823    7.4169 C.3      1 ZINC000043196230   -0.1500
33     N33    -7.0652   -8.5692    4.6087 N.ar     1 ZINC000043196230   -0.6100
34     C34    -2.7680   -7.6337    2.9081 C.ar     1 ZINC000043196230   -0.1400
35     C35    -1.9457   -7.0110    1.9853 C.ar     1 ZINC000043196230   -0.0700
36     C36    -2.4130   -5.9753    1.1745 C.ar     1 ZINC000043196230   -0.1300
37     H37     1.6996    1.6241    0.5171 H        1 ZINC000043196230    0.1000
38     H38     0.1041    1.8424   -0.2412 H        1 ZINC000043196230    0.0900
39     H39     0.2321    1.6523    1.5240 H        1 ZINC000043196230    0.0900
40     H40    -1.4966   -0.1741    0.5552 H        1 ZINC000043196230    0.4100
41     H41    -0.4188   -2.4800   -0.6686 H        1 ZINC000043196230    0.1000
42     H42    -0.2909   -2.6700    1.0965 H        1 ZINC000043196230    0.1000
43     H43    -2.0097   -5.1830   -2.1342 H        1 ZINC000043196230    0.0800
44     H44    -2.3628   -6.7418   -1.3186 H        1 ZINC000043196230    0.0900
45     H45    -4.2429   -4.5766   -1.9417 H        1 ZINC000043196230    0.0800
46     H46    -4.5959   -6.1353   -1.1258 H        1 ZINC000043196230    0.0900
47     H47    -5.6419   -5.9483    2.2918 H        1 ZINC000043196230    0.1400
48     H48    -4.5637   -8.1880    4.8004 H        1 ZINC000043196230    0.4300
49     H49    -8.3693   -7.6612    1.1779 H        1 ZINC000043196230    0.1800
50     H50   -10.1300   -9.4114    5.1691 H        1 ZINC000043196230    0.4100
51     H51    -7.5694   -9.8092    6.6444 H        1 ZINC000043196230    0.1100
52     H52    -8.3757   -8.6119    8.6266 H        1 ZINC000043196230    0.0900
53     H53    -9.3105   -7.6358    7.4123 H        1 ZINC000043196230    0.0700
54     H54   -10.5463   -9.6685    9.0498 H        1 ZINC000043196230    0.0700
55     H55   -11.1451   -9.2606    7.3836 H        1 ZINC000043196230    0.0800
56     H56   -10.0136  -11.3424    6.7575 H        1 ZINC000043196230    0.0700
57     H57    -8.8712  -11.2236    8.1652 H        1 ZINC000043196230    0.1000
58     H58    -2.3742   -8.4154    3.5407 H        1 ZINC000043196230    0.1300
59     H59    -0.9103   -7.3052    1.8960 H        1 ZINC000043196230    0.1300
@<TRIPOS>BOND
1     1     2     1
2     1     37    1
3     1     38    1
4     1     39    1
5     2     3     2
6     2     4     am
7     4     5     1
8     4     40    1
9     5     6     1
10    5     41    1
11    5     42    1
12    6     7     2
13    6     8     am
14    8     13    1
15    8     9     1
16    9     10    1
17    9     36    1
18    9     11    1
19    11    12    1
20    11    43    1
21    11    44    1
22    12    13    1
23    12    45    1
24    12    46    1
25    13    14    1
26    13    15    1
27    15    36    ar
28    15    16    ar
29    16    17    ar
30    16    47    1
31    17    18    1
32    17    34    ar
33    18    19    1
34    18    48    1
35    19    33    ar
36    19    20    ar
37    20    21    ar
38    21    22    ar
39    21    49    1
40    22    23    1
41    22    27    ar
42    23    24    1
43    23    25    1
44    23    26    1
45    27    28    1
46    27    33    ar
47    28    29    1
48    28    50    1
49    29    32    1
50    29    30    1
51    29    51    1
52    30    31    1
53    30    52    1
54    30    53    1
55    31    32    1
56    31    54    1
57    31    55    1
58    32    56    1
59    32    57    1
60    34    35    ar
61    34    58    1
62    35    36    ar
63    35    59    1
@<TRIPOS>SUBSTRUCTURE
1   ZINC000043196230 1     RESIDUE    1   A     ZIN   1
