@<TRIPOS>MOLECULE
ZINC000000538505
52    54    1     0     0
SMALL
USER_CHARGES
@<TRIPOS>ATOM
1      O1      0.0021   -0.0041    0.0020 O.2      1 ZINC000000538505   -0.4500
2      C2     -0.0144    1.2085    0.0087 C.2      1 ZINC000000538505    0.4000
3      C3      1.2803    1.9797    0.0005 C.3      1 ZINC000000538505   -0.1700
4      C4      2.4566    1.0014   -0.0160 C.3      1 ZINC000000538505   -0.1200
5      C5      3.7710    1.7844   -0.0244 C.3      1 ZINC000000538505    0.0600
6      N6      4.9004    0.8451   -0.0402 N.3      1 ZINC000000538505   -0.5400
7      C7      4.7031   -0.2317    0.9386 C.3      1 ZINC000000538505    0.0500
8      C8      5.8218   -1.2659    0.7937 C.3      1 ZINC000000538505   -0.1000
9      C9      7.1735   -0.5840    1.0227 C.3      1 ZINC000000538505    0.1700
10     O10     7.2287   -0.0682    2.3542 O.3      1 ZINC000000538505   -0.5500
11     C11     8.2825   -1.5847    0.8239 C.ar     1 ZINC000000538505   -0.1100
12     C12     8.1186   -2.6305   -0.0648 C.ar     1 ZINC000000538505   -0.0800
13     C13     9.1360   -3.5486   -0.2473 C.ar     1 ZINC000000538505   -0.1100
14     C14    10.3173   -3.4204    0.4588 C.ar     1 ZINC000000538505   -0.0700
15     C15    10.4817   -2.3738    1.3471 C.ar     1 ZINC000000538505   -0.1800
16     C16    11.7695   -2.2343    2.1172 C.3      1 ZINC000000538505    0.5100
17     F17    12.6377   -3.2736    1.7661 F        1 ZINC000000538505   -0.1800
18     F18    12.3650   -1.0059    1.8115 F        1 ZINC000000538505   -0.1800
19     F19    11.5013   -2.2940    3.4890 F        1 ZINC000000538505   -0.1800
20     C20     9.4661   -1.4535    1.5262 C.ar     1 ZINC000000538505   -0.0600
21     C21     7.3330    0.5642    0.0222 C.3      1 ZINC000000538505   -0.1400
22     C22     6.1705    1.5453    0.1895 C.3      1 ZINC000000538505    0.0600
23     C23    -1.2974    1.9262    0.0187 C.ar     1 ZINC000000538505   -0.1800
24     C24    -1.3199    3.3255    0.0206 C.ar     1 ZINC000000538505   -0.0400
25     C25    -2.5255    3.9917    0.0300 C.ar     1 ZINC000000538505   -0.1700
26     C26    -3.7154    3.2788    0.0380 C.ar     1 ZINC000000538505    0.1300
27     F27    -4.8945    3.9384    0.0477 F        1 ZINC000000538505   -0.1300
28     C28    -3.7002    1.8917    0.0357 C.ar     1 ZINC000000538505   -0.1700
29     C29    -2.5015    1.2132    0.0205 C.ar     1 ZINC000000538505   -0.0300
30     H30     1.3211    2.6119   -0.8866 H        1 ZINC000000538505    0.1000
31     H31     1.3381    2.6023    0.8933 H        1 ZINC000000538505    0.1000
32     H32     2.4158    0.3693    0.8710 H        1 ZINC000000538505    0.0700
33     H33     2.3988    0.3788   -0.9088 H        1 ZINC000000538505    0.0800
34     H34     3.8118    2.4165   -0.9114 H        1 ZINC000000538505    0.0800
35     H35     3.8288    2.4070    0.8685 H        1 ZINC000000538505    0.0400
36     H36     4.7219    0.1850    1.9457 H        1 ZINC000000538505    0.0400
37     H37     3.7402   -0.7110    0.7621 H        1 ZINC000000538505    0.0900
38     H38     5.6837   -2.0569    1.5308 H        1 ZINC000000538505    0.0800
39     H39     5.7948   -1.6930   -0.2087 H        1 ZINC000000538505    0.0900
40     H40     8.0592    0.3781    2.5690 H        1 ZINC000000538505    0.3700
41     H41     7.1955   -2.7306   -0.6165 H        1 ZINC000000538505    0.1400
42     H42     9.0076   -4.3662   -0.9412 H        1 ZINC000000538505    0.1400
43     H43    11.1118   -4.1380    0.3168 H        1 ZINC000000538505    0.1400
44     H44     9.5945   -0.6360    2.2201 H        1 ZINC000000538505    0.1300
45     H45     8.2747    1.0806    0.2081 H        1 ZINC000000538505    0.0700
46     H46     7.3299    0.1658   -0.9924 H        1 ZINC000000538505    0.0800
47     H47     6.2735    2.3566   -0.5311 H        1 ZINC000000538505    0.0800
48     H48     6.1825    1.9537    1.2001 H        1 ZINC000000538505    0.0400
49     H49    -0.3942    3.8817    0.0151 H        1 ZINC000000538505    0.1400
50     H50    -2.5443    5.0716    0.0315 H        1 ZINC000000538505    0.1400
51     H51    -4.6301    1.3426    0.0420 H        1 ZINC000000538505    0.1400
52     H52    -2.4909    0.1332    0.0184 H        1 ZINC000000538505    0.1400
@<TRIPOS>BOND
1     1     2     2
2     2     3     1
3     2     23    1
4     3     4     1
5     3     30    1
6     3     31    1
7     4     5     1
8     4     32    1
9     4     33    1
10    5     6     1
11    5     34    1
12    5     35    1
13    6     22    1
14    6     7     1
15    7     8     1
16    7     36    1
17    7     37    1
18    8     9     1
19    8     38    1
20    8     39    1
21    9     10    1
22    9     11    1
23    9     21    1
24    10    40    1
25    11    20    ar
26    11    12    ar
27    12    13    ar
28    12    41    1
29    13    14    ar
30    13    42    1
31    14    15    ar
32    14    43    1
33    15    16    1
34    15    20    ar
35    16    17    1
36    16    18    1
37    16    19    1
38    20    44    1
39    21    22    1
40    21    45    1
41    21    46    1
42    22    47    1
43    22    48    1
44    23    29    ar
45    23    24    ar
46    24    25    ar
47    24    49    1
48    25    26    ar
49    25    50    1
50    26    27    1
51    26    28    ar
52    28    29    ar
53    28    51    1
54    29    52    1
@<TRIPOS>SUBSTRUCTURE
1   ZINC000000538505 1     RESIDUE    1   A     ZIN   1
