@<TRIPOS>MOLECULE
ZINC000072267012
109   110   1     0     0
SMALL
USER_CHARGES
@<TRIPOS>ATOM
1      C1     -0.0187    1.5258    0.0104 C.3      1 ZINC000072267012   -0.1500
2      C2      0.0021   -0.0041    0.0020 C.3      1 ZINC000072267012   -0.1300
3      C3     -1.4333   -0.5336    0.0129 C.3      1 ZINC000072267012   -0.1200
4      C4     -1.4126   -2.0635    0.0045 C.3      1 ZINC000072267012   -0.1200
5      C5     -2.8479   -2.5931    0.0153 C.3      1 ZINC000072267012   -0.1200
6      C6     -2.8272   -4.1229    0.0069 C.3      1 ZINC000072267012   -0.1200
7      C7     -4.2626   -4.6525    0.0178 C.3      1 ZINC000072267012   -0.1200
8      C8     -4.2418   -6.1823    0.0094 C.3      1 ZINC000072267012   -0.1200
9      C9     -5.6772   -6.7119    0.0202 C.3      1 ZINC000072267012   -0.1200
10     C10    -5.6565   -8.2417    0.0118 C.3      1 ZINC000072267012   -0.1100
11     C11    -7.0918   -8.7713    0.0227 C.3      1 ZINC000072267012   -0.1000
12     C12    -7.0711  -10.3012    0.0143 C.3      1 ZINC000072267012   -0.0900
13     S13    -8.7729  -10.9290    0.0271 S.3      1 ZINC000072267012   -0.2400
14     C14    -8.5441  -12.7285    0.0153 C.3      1 ZINC000072267012   -0.0800
15     C15    -9.9106  -13.4165    0.0246 C.3      1 ZINC000072267012    0.1000
16     H16   -10.4747  -13.1161   -0.8584 H        1 ZINC000072267012    0.0800
17     C17    -9.7176  -14.9342    0.0146 C.3      1 ZINC000072267012    0.1200
18     O18   -10.9900  -15.5755   -0.0941 O.3      1 ZINC000072267012   -0.7600
19     P19   -11.1650  -17.1755   -0.1338 P.3      1 ZINC000072267012    2.2300
20     O20   -10.3011  -17.7599   -1.2737 O.co2    1 ZINC000072267012   -1.1000
21     O21   -10.7124  -17.7767    1.2155 O.co2    1 ZINC000072267012   -1.1000
22     O22   -12.7118  -17.5399   -0.3919 O.3      1 ZINC000072267012   -0.7600
23     C23   -13.1747  -18.8783   -0.5833 C.3      1 ZINC000072267012    0.1500
24     C24   -14.6889  -18.8679   -0.8019 C.3      1 ZINC000072267012    0.0900
25     H25   -15.1862  -18.3474    0.0166 H        1 ZINC000072267012    0.0900
26     O26   -15.0105  -18.2435   -2.0638 O.3      1 ZINC000072267012   -0.3300
27     C27   -16.3345  -18.7156   -2.3955 C.3      1 ZINC000072267012    0.3100
28     H28   -17.0857  -18.1729   -1.8216 H        1 ZINC000072267012    0.1000
29     N29   -16.5846  -18.5658   -3.8312 N.am     1 ZINC000072267012   -0.5400
30     C30   -17.6959  -17.8872   -4.2597 C.2      1 ZINC000072267012    0.1000
31     C31   -17.9253  -17.7494   -5.5836 C.2      1 ZINC000072267012   -0.1100
32     F32   -19.0151  -17.0834   -6.0240 F        1 ZINC000072267012   -0.1400
33     C33   -17.0067  -18.3126   -6.5045 C.2      1 ZINC000072267012    0.5100
34     O34   -17.1918  -18.2011   -7.7031 O.2      1 ZINC000072267012   -0.5900
35     N35   -15.9259  -18.9724   -6.0414 N.pl3    1 ZINC000072267012   -0.6800
36     C36   -15.7186  -19.0908   -4.7169 C.2      1 ZINC000072267012    0.6500
37     O37   -14.7390  -19.6885   -4.3148 O.2      1 ZINC000072267012   -0.5800
38     C38   -16.3315  -20.2090   -2.0006 C.3      1 ZINC000072267012    0.0400
39     H39   -16.0879  -20.8313   -2.8618 H        1 ZINC000072267012    0.1000
40     O40   -17.5973  -20.5852   -1.4546 O.3      1 ZINC000072267012   -0.5500
41     C41   -15.2244  -20.3116   -0.9251 C.3      1 ZINC000072267012    0.0500
42     H42   -14.4327  -20.9843   -1.2550 H        1 ZINC000072267012    0.0900
43     O43   -15.7728  -20.7569    0.3171 O.3      1 ZINC000072267012   -0.5400
44     O44   -10.6278  -13.0353    1.2004 O.3      1 ZINC000072267012   -0.3700
45     C45   -12.0472  -13.0194    1.0358 C.3      1 ZINC000072267012    0.0600
46     C46   -12.7083  -12.5996    2.3502 C.3      1 ZINC000072267012   -0.1100
47     C47   -14.2281  -12.5826    2.1741 C.3      1 ZINC000072267012   -0.1200
48     C48   -14.8892  -12.1628    3.4885 C.3      1 ZINC000072267012   -0.1200
49     C49   -16.4089  -12.1459    3.3123 C.3      1 ZINC000072267012   -0.1200
50     C50   -17.0700  -11.7261    4.6267 C.3      1 ZINC000072267012   -0.1200
51     C51   -18.5897  -11.7091    4.4505 C.3      1 ZINC000072267012   -0.1200
52     C52   -19.2509  -11.2893    5.7649 C.3      1 ZINC000072267012   -0.1200
53     C53   -20.7706  -11.2723    5.5887 C.3      1 ZINC000072267012   -0.1300
54     C54   -21.4317  -10.8525    6.9031 C.3      1 ZINC000072267012   -0.1500
55     H55     1.0039    1.9031    0.0027 H        1 ZINC000072267012    0.0500
56     H56    -0.5459    1.8868   -0.8726 H        1 ZINC000072267012    0.0500
57     H57    -0.5289    1.8773    0.9072 H        1 ZINC000072267012    0.0500
58     H58     0.5123   -0.3556   -0.8948 H        1 ZINC000072267012    0.0600
59     H59     0.5293   -0.3651    0.8851 H        1 ZINC000072267012    0.0600
60     H60    -1.9435   -0.1821    0.9097 H        1 ZINC000072267012    0.0600
61     H61    -1.9605   -0.1726   -0.8702 H        1 ZINC000072267012    0.0600
62     H62    -0.9024   -2.4150   -0.8923 H        1 ZINC000072267012    0.0600
63     H63    -0.8854   -2.4246    0.8875 H        1 ZINC000072267012    0.0600
64     H64    -3.3581   -2.2415    0.9121 H        1 ZINC000072267012    0.0600
65     H65    -3.3751   -2.2320   -0.8677 H        1 ZINC000072267012    0.0600
66     H66    -2.3170   -4.4744   -0.8899 H        1 ZINC000072267012    0.0600
67     H67    -2.3000   -4.4840    0.8900 H        1 ZINC000072267012    0.0600
68     H68    -4.7728   -4.3010    0.9146 H        1 ZINC000072267012    0.0600
69     H69    -4.7898   -4.2914   -0.8653 H        1 ZINC000072267012    0.0600
70     H70    -3.7316   -6.5338   -0.8874 H        1 ZINC000072267012    0.0600
71     H71    -3.7146   -6.5434    0.8924 H        1 ZINC000072267012    0.0600
72     H72    -6.1874   -6.3604    0.9170 H        1 ZINC000072267012    0.0600
73     H73    -6.2044   -6.3508   -0.8628 H        1 ZINC000072267012    0.0600
74     H74    -5.1463   -8.5933   -0.8850 H        1 ZINC000072267012    0.0600
75     H75    -5.1293   -8.6028    0.8949 H        1 ZINC000072267012    0.0600
76     H76    -7.6020   -8.4198    0.9195 H        1 ZINC000072267012    0.0700
77     H77    -7.6190   -8.4102   -0.8604 H        1 ZINC000072267012    0.0700
78     H78    -6.5609  -10.6527   -0.8825 H        1 ZINC000072267012    0.0800
79     H79    -6.5439  -10.6622    0.8973 H        1 ZINC000072267012    0.0800
80     H80    -7.9970  -13.0193   -0.8815 H        1 ZINC000072267012    0.1000
81     H81    -7.9800  -13.0289    0.8983 H        1 ZINC000072267012    0.0900
82     H82    -9.0951  -15.2157   -0.8347 H        1 ZINC000072267012    0.0600
83     H83    -9.2320  -15.2448    0.9398 H        1 ZINC000072267012    0.0600
84     H84   -12.6846  -19.3109   -1.4555 H        1 ZINC000072267012    0.0700
85     H85   -12.9389  -19.4739    0.2986 H        1 ZINC000072267012    0.0700
86     H86   -18.3845  -17.4654   -3.5426 H        1 ZINC000072267012    0.1500
87     H87   -17.6511  -21.5136   -1.1896 H        1 ZINC000072267012    0.3700
88     H88   -16.1752  -21.6352    0.2770 H        1 ZINC000072267012    0.3700
89     H89   -12.3142  -12.3104    0.2522 H        1 ZINC000072267012    0.0400
90     H90   -12.3919  -14.0153    0.7576 H        1 ZINC000072267012    0.0700
91     H91   -12.4413  -13.3086    3.1339 H        1 ZINC000072267012    0.0700
92     H92   -12.3637  -11.6037    2.6285 H        1 ZINC000072267012    0.0600
93     H93   -14.4951  -11.8736    1.3904 H        1 ZINC000072267012    0.0600
94     H94   -14.5727  -13.5786    1.8958 H        1 ZINC000072267012    0.0700
95     H95   -14.6221  -12.8718    4.2721 H        1 ZINC000072267012    0.0600
96     H96   -14.5445  -11.1669    3.7667 H        1 ZINC000072267012    0.0600
97     H97   -16.6759  -11.4369    2.5286 H        1 ZINC000072267012    0.0600
98     H98   -16.7536  -13.1418    3.0341 H        1 ZINC000072267012    0.0600
99     H99   -16.8030  -12.4351    5.4104 H        1 ZINC000072267012    0.0600
100    H100  -16.7253  -10.7301    4.9049 H        1 ZINC000072267012    0.0600
101    H101  -18.8568  -11.0001    3.6668 H        1 ZINC000072267012    0.0600
102    H102  -18.9344  -12.7050    4.1723 H        1 ZINC000072267012    0.0600
103    H103  -18.9838  -11.9983    6.5486 H        1 ZINC000072267012    0.0600
104    H104  -18.9062  -10.2934    6.0431 H        1 ZINC000072267012    0.0600
105    H105  -21.0376  -10.5633    4.8051 H        1 ZINC000072267012    0.0600
106    H106  -21.1153  -12.2683    5.3105 H        1 ZINC000072267012    0.0600
107    H107  -21.0870   -9.8566    7.1814 H        1 ZINC000072267012    0.0500
108    H108  -22.5144  -10.8404    6.7776 H        1 ZINC000072267012    0.0500
109    H109  -21.1647  -11.5615    7.6868 H        1 ZINC000072267012    0.0500
@<TRIPOS>BOND
1     1     2     1
2     1     55    1
3     1     56    1
4     1     57    1
5     2     3     1
6     2     58    1
7     2     59    1
8     3     4     1
9     3     60    1
10    3     61    1
11    4     5     1
12    4     62    1
13    4     63    1
14    5     6     1
15    5     64    1
16    5     65    1
17    6     7     1
18    6     66    1
19    6     67    1
20    7     8     1
21    7     68    1
22    7     69    1
23    8     9     1
24    8     70    1
25    8     71    1
26    9     10    1
27    9     72    1
28    9     73    1
29    10    11    1
30    10    74    1
31    10    75    1
32    11    12    1
33    11    76    1
34    11    77    1
35    12    13    1
36    12    78    1
37    12    79    1
38    13    14    1
39    14    15    1
40    14    80    1
41    14    81    1
42    15    16    1
43    15    17    1
44    15    44    1
45    17    18    1
46    17    82    1
47    17    83    1
48    18    19    1
49    19    20    ar
50    19    21    ar
51    19    22    1
52    22    23    1
53    23    24    1
54    23    84    1
55    23    85    1
56    24    25    1
57    24    41    1
58    24    26    1
59    26    27    1
60    27    28    1
61    27    29    1
62    27    38    1
63    29    36    am
64    29    30    1
65    30    31    2
66    30    86    1
67    31    32    1
68    31    33    1
69    33    34    2
70    33    35    1
71    35    36    1
72    36    37    2
73    38    39    1
74    38    40    1
75    38    41    1
76    40    87    1
77    41    42    1
78    41    43    1
79    43    88    1
80    44    45    1
81    45    46    1
82    45    89    1
83    45    90    1
84    46    47    1
85    46    91    1
86    46    92    1
87    47    48    1
88    47    93    1
89    47    94    1
90    48    49    1
91    48    95    1
92    48    96    1
93    49    50    1
94    49    97    1
95    49    98    1
96    50    51    1
97    50    99    1
98    50    100   1
99    51    52    1
100   51    101   1
101   51    102   1
102   52    53    1
103   52    103   1
104   52    104   1
105   53    54    1
106   53    105   1
107   53    106   1
108   54    107   1
109   54    108   1
110   54    109   1
@<TRIPOS>SUBSTRUCTURE
1   ZINC000072267012 1     RESIDUE    1   A     ZIN   1
