@<TRIPOS>MOLECULE
ZINC000040939374
47    50    1     0     0
SMALL
USER_CHARGES
@<TRIPOS>ATOM
1      C1     -0.0133    1.6511   -0.4529 C.3      1 ZINC000040939374   -0.1900
2      C2     -0.0660    0.1269   -0.3314 C.3      1 ZINC000040939374    0.2700
3      F3      0.4098   -0.2574    0.9268 F        1 ZINC000040939374   -0.2000
4      F4     -1.3872   -0.3076   -0.4831 F        1 ZINC000040939374   -0.1900
5      C5      0.8058   -0.5020   -1.4202 C.3      1 ZINC000040939374    0.0600
6      N6      0.7554   -1.9615   -1.3038 N.am     1 ZINC000040939374   -0.5900
7      C7      1.7514   -2.5500   -0.4492 C.3      1 ZINC000040939374    0.0700
8      C8      1.2654   -3.7238    0.3651 C.3      1 ZINC000040939374    0.0500
9      O9      1.1173   -4.8998   -0.3994 O.3      1 ZINC000040939374   -0.2800
10     C10     0.0996   -5.0156   -1.2736 C.2      1 ZINC000040939374    0.0700
11     C11    -0.5620   -6.1743   -1.6262 C.2      1 ZINC000040939374    0.0200
12     C12    -0.3036   -7.5346   -1.1083 C.ar     1 ZINC000040939374   -0.0100
13     C13     0.9858   -8.0674   -1.1511 C.ar     1 ZINC000040939374   -0.0700
14     C14     1.2207   -9.3373   -0.6664 C.ar     1 ZINC000040939374   -0.1100
15     C15     0.1805  -10.0832   -0.1382 C.ar     1 ZINC000040939374   -0.0300
16     Cl16    0.4839  -11.6806    0.4699 Cl       1 ZINC000040939374   -0.0600
17     C17    -1.1007   -9.5598   -0.0925 C.ar     1 ZINC000040939374   -0.1100
18     C18    -1.3469   -8.2890   -0.5694 C.ar     1 ZINC000040939374   -0.0800
19     N19    -1.5052   -5.8138   -2.5508 N.pl3    1 ZINC000040939374   -0.2100
20     C20    -2.3974   -6.6954   -3.1736 C.ar     1 ZINC000040939374    0.1300
21     C21    -1.9305   -7.8755   -3.7365 C.ar     1 ZINC000040939374   -0.0900
22     C22    -2.8132   -8.7433   -4.3498 C.ar     1 ZINC000040939374   -0.1000
23     C23    -4.1606   -8.4381   -4.4041 C.ar     1 ZINC000040939374   -0.0900
24     C24    -4.6299   -7.2634   -3.8451 C.ar     1 ZINC000040939374   -0.1000
25     C25    -3.7534   -6.3936   -3.2246 C.ar     1 ZINC000040939374   -0.0200
26     Cl26   -4.3428   -4.9192   -2.5229 Cl       1 ZINC000040939374   -0.0300
27     N27    -1.4514   -4.5499   -2.7628 N.2      1 ZINC000040939374   -0.1800
28     C28    -0.5083   -3.9841   -2.0220 C.2      1 ZINC000040939374   -0.0500
29     C29    -0.1994   -2.5533   -1.9925 C.2      1 ZINC000040939374    0.6000
30     O30    -0.8962   -1.8338   -2.6820 O.2      1 ZINC000040939374   -0.5100
31     H31     1.0160    1.9897   -0.3348 H        1 ZINC000040939374    0.0900
32     H32    -0.3840    1.9505   -1.4333 H        1 ZINC000040939374    0.0900
33     H33    -0.6344    2.0991    0.3227 H        1 ZINC000040939374    0.0900
34     H34     0.4351   -0.2026   -2.4005 H        1 ZINC000040939374    0.1300
35     H35     1.8352   -0.1634   -1.3020 H        1 ZINC000040939374    0.1100
36     H36     2.5854   -2.8809   -1.0682 H        1 ZINC000040939374    0.0800
37     H37     2.1165   -1.7833    0.2341 H        1 ZINC000040939374    0.1100
38     H38     1.9786   -3.9140    1.1671 H        1 ZINC000040939374    0.1300
39     H39     0.3024   -3.4693    0.8078 H        1 ZINC000040939374    0.0700
40     H40     1.7978   -7.4867   -1.5633 H        1 ZINC000040939374    0.1400
41     H41     2.2179   -9.7508   -0.6994 H        1 ZINC000040939374    0.1400
42     H42    -1.9079  -10.1461    0.3210 H        1 ZINC000040939374    0.1400
43     H43    -2.3466   -7.8819   -0.5333 H        1 ZINC000040939374    0.1300
44     H44    -0.8781   -8.1146   -3.6953 H        1 ZINC000040939374    0.1400
45     H45    -2.4502   -9.6614   -4.7877 H        1 ZINC000040939374    0.1400
46     H46    -4.8482   -9.1184   -4.8846 H        1 ZINC000040939374    0.1400
47     H47    -5.6830   -7.0277   -3.8896 H        1 ZINC000040939374    0.1500
@<TRIPOS>BOND
1     1     2     1
2     1     31    1
3     1     32    1
4     1     33    1
5     2     3     1
6     2     4     1
7     2     5     1
8     5     6     1
9     5     34    1
10    5     35    1
11    6     29    am
12    6     7     1
13    7     8     1
14    7     36    1
15    7     37    1
16    8     9     1
17    8     38    1
18    8     39    1
19    9     10    1
20    10    28    1
21    10    11    2
22    11    12    1
23    11    19    1
24    12    18    ar
25    12    13    ar
26    13    14    ar
27    13    40    1
28    14    15    ar
29    14    41    1
30    15    16    1
31    15    17    ar
32    17    18    ar
33    17    42    1
34    18    43    1
35    19    20    1
36    19    27    1
37    20    25    ar
38    20    21    ar
39    21    22    ar
40    21    44    1
41    22    23    ar
42    22    45    1
43    23    24    ar
44    23    46    1
45    24    25    ar
46    24    47    1
47    25    26    1
48    27    28    2
49    28    29    1
50    29    30    2
@<TRIPOS>SUBSTRUCTURE
1   ZINC000040939374 1     RESIDUE    1   A     ZIN   1
