@<TRIPOS>MOLECULE
ZINC000003875041
28    29    1     0     0
SMALL
USER_CHARGES
@<TRIPOS>ATOM
1      O1     -0.0173    1.4248    0.0099 O.3      1 ZINC000003875041   -0.5400
2      C2      0.0021   -0.0041    0.0020 C.3      1 ZINC000003875041    0.0600
3      H3      0.5375   -0.3799    0.8739 H        1 ZINC000003875041    0.1100
4      C4      0.6590   -0.5263   -1.2992 C.3      1 ZINC000003875041   -0.0400
5      N5     -0.3973   -1.2320   -2.0266 N.4      1 ZINC000003875041   -0.3800
6      H6     -0.9036   -0.5730   -2.5987 H        1 ZINC000003875041    0.4300
7      C7      0.0346   -2.3511   -2.8509 C.3      1 ZINC000003875041   -0.0100
8      C8     -1.1927   -2.8770   -3.6108 C.3      1 ZINC000003875041   -0.1500
9      C9     -2.2959   -3.2901   -2.6372 C.3      1 ZINC000003875041   -0.1800
10     C10    -2.6161   -2.1433   -1.6653 C.3      1 ZINC000003875041    0.1100
11     H11    -3.0158   -1.2919   -2.2160 H        1 ZINC000003875041    0.0900
12     O12    -3.5670   -2.5822   -0.6931 O.3      1 ZINC000003875041   -0.5500
13     C13    -1.3058   -1.7655   -0.9773 C.3      1 ZINC000003875041    0.0400
14     H14    -0.8752   -2.6257   -0.4648 H        1 ZINC000003875041    0.1600
15     C15    -1.4472   -0.5637   -0.0245 C.3      1 ZINC000003875041    0.1000
16     H16    -1.7681   -0.8874    0.9656 H        1 ZINC000003875041    0.1200
17     O17    -2.3490    0.4077   -0.5584 O.3      1 ZINC000003875041   -0.5500
18     H18     0.8606    1.8301    0.0037 H        1 ZINC000003875041    0.4000
19     H19     1.0312    0.3083   -1.8933 H        1 ZINC000003875041    0.1400
20     H20     1.4729   -1.2109   -1.0606 H        1 ZINC000003875041    0.1400
21     H21     0.7920   -2.0165   -3.5598 H        1 ZINC000003875041    0.1400
22     H22     0.4428   -3.1394   -2.2184 H        1 ZINC000003875041    0.1300
23     H23    -1.5696   -2.0944   -4.2693 H        1 ZINC000003875041    0.0900
24     H24    -0.9013   -3.7397   -4.2100 H        1 ZINC000003875041    0.1200
25     H25    -3.1940   -3.5461   -3.1993 H        1 ZINC000003875041    0.1000
26     H26    -1.9672   -4.1609   -2.0700 H        1 ZINC000003875041    0.0900
27     H27    -4.4080   -2.8753   -1.0699 H        1 ZINC000003875041    0.4000
28     H28    -2.4708    1.1834    0.0060 H        1 ZINC000003875041    0.4100
@<TRIPOS>BOND
1     1     2     1
2     1     18    1
3     2     3     1
4     2     15    1
5     2     4     1
6     4     5     1
7     4     19    1
8     4     20    1
9     5     6     1
10    5     13    1
11    5     7     1
12    7     8     1
13    7     21    1
14    7     22    1
15    8     9     1
16    8     23    1
17    8     24    1
18    9     10    1
19    9     25    1
20    9     26    1
21    10    11    1
22    10    12    1
23    10    13    1
24    12    27    1
25    13    14    1
26    13    15    1
27    15    16    1
28    15    17    1
29    17    28    1
@<TRIPOS>SUBSTRUCTURE
1   ZINC000003875041 1     RESIDUE    1   A     ZIN   1
