@<TRIPOS>MOLECULE
ZINC000003819454
  30   31    0    0    0
SMALL
USER_CHARGES
NO_NAME
@<TRIPOS>ATOM
    1 C1        0.1808    -1.1394    -0.1165 C.1    1 <0>      -0.1500
    2 C2        0.1392     0.0333    -0.0822 C.1    1 <0>      -0.1900
    3 C3        0.0870     1.5038    -0.0393 C.3    1 <0>       0.2300
    4 C4       -0.6476     2.0418    -1.2689 C.3    1 <0>       0.0800
    5 O5        0.0260     1.6098    -2.4529 O.3    1 <0>      -0.5400
    6 C6       -0.6013     1.9649     1.2251 C.2    1 <0>      -0.1300
    7 C7        0.0838     2.9650     1.7281 C.2    1 <0>      -0.2000
    8 C8        1.2697     3.2303     0.8290 C.3    1 <0>       0.3100
    9 H9        2.1662     3.3938     1.4270 H      1 <0>       0.1400
   10 N10       1.0097     4.3951    -0.0207 N.am   1 <0>      -0.5500
   11 C11       0.3312     5.4683     0.4896 C.2    1 <0>       0.1700
   12 C12       0.0921     6.5419    -0.2935 C.2    1 <0>      -0.2600
   13 C13      -0.6532     7.7333     0.2510 C.3    1 <0>      -0.0800
   14 C14       0.5512     6.5338    -1.6327 C.2    1 <0>       0.5500
   15 O15       0.3478     7.4907    -2.3579 O.2    1 <0>      -0.5100
   16 N16       1.2161     5.4568    -2.0976 N.am   1 <0>      -0.6600
   17 C17       1.4452     4.4019    -1.2936 C.2    1 <0>       0.6800
   18 O18       2.0465     3.4379    -1.7265 O.2    1 <0>      -0.4900
   19 O19       1.4195     2.0472     0.0213 O.3    1 <0>      -0.2900
   20 H20       0.2181    -2.1883    -0.1471 H      1 <0>       0.2300
   21 H21      -1.6704     1.6651    -1.2748 H      1 <0>       0.0600
   22 H22      -0.6617     3.1312    -1.2359 H      1 <0>       0.0500
   23 H23      -0.3857     1.9148    -3.2730 H      1 <0>       0.3800
   24 H24      -1.5031     1.5429     1.6435 H      1 <0>       0.1700
   25 H25      -0.1583     3.5061     2.6308 H      1 <0>       0.1700
   26 H26      -0.0118     5.4564     1.5136 H      1 <0>       0.1800
   27 H27       0.0561     8.4386     0.6841 H      1 <0>       0.0700
   28 H28      -1.2015     8.2188    -0.5562 H      1 <0>       0.0800
   29 H29      -1.3531     7.4040     1.0190 H      1 <0>       0.0700
   30 H30       1.5338     5.4438    -3.0140 H      1 <0>       0.4300
@<TRIPOS>BOND
   1    1    2 3
   2    1   20 1
   3    2    3 1
   4    3   19 1
   5    3    4 1
   6    3    6 1
   7    4    5 1
   8    4   21 1
   9    4   22 1
  10    5   23 1
  11    6    7 2
  12    6   24 1
  13    7    8 1
  14    7   25 1
  15    8    9 1
  16    8   10 1
  17    8   19 1
  18   10   17 am
  19   10   11 1
  20   11   12 2
  21   11   26 1
  22   12   13 1
  23   12   14 1
  24   13   27 1
  25   13   28 1
  26   13   29 1
  27   14   15 2
  28   14   16 am
  29   16   17 am
  30   16   30 1
  31   17   18 2
