@<TRIPOS>MOLECULE
ZINC000003934328
  85   87    0    0    0
SMALL
NO_CHARGES
@<TRIPOS>ATOM
   1 C1            -0.0160     1.3287     0.0093 C.2     
   2 C2             0.0021    -0.0041     0.0020 C.2     
   3 C3            -1.2458    -0.7957     0.0034 C.2     
   4 C4            -2.2960    -0.4616    -0.7746 C.2     
   5 C5            -2.2162     0.7110    -1.6487 C.2     
   6 C6            -3.2539     1.0410    -2.4175 C.2     
   7 C7            -4.5495     0.2423    -2.4253 C.3     
   8 C8            -5.7537     1.1643    -2.2439 C.3     
   9 C9            -5.6934     2.3748    -3.1905 C.3     
  10 C10           -4.4164     3.1245    -2.8908 C.3     
  11 C11           -4.3113     3.3616    -1.3830 C.3     
  12 C12           -3.2304     2.2297    -3.3318 C.3     
  13 H13           -3.3417     1.9207    -4.3712 H       
  14 C14           -2.0536     3.1956    -3.1768 C.3     
  15 C15           -2.6193     4.5221    -3.7584 C.3     
  16 C16           -4.1578     4.4317    -3.6239 C.3     
  17 H17           -4.6234     4.4099    -4.6092 H       
  18 C18           -4.6906     5.6136    -2.8113 C.3     
  19 H19           -4.2257     5.6157    -1.8254 H       
  20 C20           -6.2076     5.4857    -2.6597 C.3     
  21 C21           -4.3587     6.9205    -3.5344 C.3     
  22 C22           -4.7799     8.1061    -2.6639 C.3     
  23 C23           -4.4480     9.4130    -3.3869 C.3     
  24 C24           -4.8692    10.5986    -2.5164 C.3     
  25 C25           -4.1165    10.5469    -1.1853 C.3     
  26 C26           -4.5374    11.9055    -3.2394 C.3     
  27 O27           -6.2755    10.5337    -2.2712 O.3     
  28 C28           -1.2885    -2.0014     0.9209 C.3     
  29 C29            0.0115    -2.7917     0.7402 C.3     
  30 H30            0.0161    -3.6424     1.4216 H       
  31 O31            0.0985    -3.2615    -0.6066 O.3     
  32 C32            1.2108    -1.8923     1.0418 C.3     
  33 H33            1.0910    -1.4479     2.0299 H       
  34 O34            2.4082    -2.6718     1.0136 O.3     
  35 C35            3.4350    -2.1915     1.8836 C.3     
  36 C36            4.6630    -3.0973     1.7719 C.3     
  37 C37            5.7625    -2.5831     2.7034 C.3     
  38 O38            6.9094    -3.4291     2.5991 O.3     
  39 C39            1.3034    -0.7809    -0.0146 C.3     
  40 H40            1.4618    -1.2220    -0.9987 H       
  41 O41            2.3883     0.0940     0.3010 O.3     
  42 H42            0.9119     1.8814     0.0035 H       
  43 H43           -0.9585     1.8559     0.0167 H       
  44 H44           -3.1956    -1.0588    -0.7530 H       
  45 H45           -1.3166     1.3081    -1.6703 H       
  46 H46           -4.6406    -0.2845    -3.3752 H       
  47 H47           -4.5281    -0.4844    -1.6132 H       
  48 H48           -6.6653     0.6015    -2.4445 H       
  49 H49           -5.7768     1.5197    -1.2137 H       
  50 H50           -5.6885     2.0347    -4.2261 H       
  51 H51           -6.5524     3.0231    -3.0172 H       
  52 H52           -4.3145     2.4033    -0.8634 H       
  53 H53           -3.3847     3.8915    -1.1622 H       
  54 H54           -5.1598     3.9587    -1.0490 H       
  55 H55           -1.7888     3.3163    -2.1264 H       
  56 H56           -1.1954     2.8550    -3.7560 H       
  57 H57           -2.2419     5.3715    -3.1890 H       
  58 H58           -2.3400     4.6201    -4.8074 H       
  59 H59           -6.4440     4.5546    -2.1445 H       
  60 H60           -6.5872     6.3276    -2.0808 H       
  61 H61           -6.6725     5.4836    -3.6456 H       
  62 H62           -3.2860     6.9700    -3.7214 H       
  63 H63           -4.8950     6.9574    -4.4826 H       
  64 H64           -5.8526     8.0566    -2.4768 H       
  65 H65           -4.2437     8.0692    -1.7156 H       
  66 H66           -3.3754     9.4625    -3.5739 H       
  67 H67           -4.9843     9.4499    -4.3352 H       
  68 H68           -3.0438    10.5964    -1.3724 H       
  69 H69           -4.4166    11.3915    -0.5652 H       
  70 H70           -4.3529     9.6158    -0.6702 H       
  71 H71           -5.0736    11.9424    -4.1877 H       
  72 H72           -4.8374    12.7502    -2.6193 H       
  73 H73           -3.4647    11.9550    -3.4265 H       
  74 H74           -6.8162    10.5618    -3.0724 H       
  75 H75           -1.3771    -1.6721     1.9562 H       
  76 H76           -2.1398    -2.6306     0.6611 H       
  77 H77           -0.6284    -3.8432    -0.8680 H       
  78 H78            3.7063    -1.1749     1.5990 H       
  79 H79            3.0721    -2.1965     2.9114 H       
  80 H80            4.3917    -4.1139     2.0565 H       
  81 H81            5.0259    -3.0924     0.7441 H       
  82 H82            6.0338    -1.5665     2.4188 H       
  83 H83            5.3996    -2.5881     3.7312 H       
  84 H84            7.6477    -3.1622     3.1637 H       
  85 H85            2.5036     0.8201    -0.3272 H       
@<TRIPOS>BOND
   1    1    2 2
   2    1   42 1
   3    1   43 1
   4    2   39 1
   5    2    3 1
   6    3    4 2
   7    3   28 1
   8    4    5 1
   9    4   44 1
  10    5    6 2
  11    5   45 1
  12    6   12 1
  13    6    7 1
  14    7    8 1
  15    7   46 1
  16    7   47 1
  17    8    9 1
  18    8   48 1
  19    8   49 1
  20    9   10 1
  21    9   50 1
  22    9   51 1
  23   10   16 1
  24   10   11 1
  25   10   12 1
  26   11   52 1
  27   11   53 1
  28   11   54 1
  29   12   13 1
  30   12   14 1
  31   14   15 1
  32   14   55 1
  33   14   56 1
  34   15   16 1
  35   15   57 1
  36   15   58 1
  37   16   17 1
  38   16   18 1
  39   18   19 1
  40   18   20 1
  41   18   21 1
  42   20   59 1
  43   20   60 1
  44   20   61 1
  45   21   22 1
  46   21   62 1
  47   21   63 1
  48   22   23 1
  49   22   64 1
  50   22   65 1
  51   23   24 1
  52   23   66 1
  53   23   67 1
  54   24   25 1
  55   24   26 1
  56   24   27 1
  57   25   68 1
  58   25   69 1
  59   25   70 1
  60   26   71 1
  61   26   72 1
  62   26   73 1
  63   27   74 1
  64   28   29 1
  65   28   75 1
  66   28   76 1
  67   29   30 1
  68   29   31 1
  69   29   32 1
  70   31   77 1
  71   32   33 1
  72   32   34 1
  73   32   39 1
  74   34   35 1
  75   35   36 1
  76   35   78 1
  77   35   79 1
  78   36   37 1
  79   36   80 1
  80   36   81 1
  81   37   38 1
  82   37   82 1
  83   37   83 1
  84   38   84 1
  85   39   40 1
  86   39   41 1
  87   41   85 1
