@<TRIPOS>MOLECULE
ZINC000000405262
  31   31    0    0    0
SMALL
USER_CHARGES
NO_NAME
@<TRIPOS>ATOM
    1 C1       -0.0187     1.5258     0.0104 C.3    1 <0>      -0.1900
    2 C2        0.0021    -0.0041     0.0020 C.3    1 <0>       0.0200
    3 C3       -1.4333    -0.5336     0.0129 C.3    1 <0>      -0.1800
    4 N4        0.6897    -0.4778    -1.2066 N.4    1 <0>      -0.5000
    5 H5        0.6317    -1.4840    -1.2539 H      1 <0>       0.4300
    6 H6        0.2511    -0.0769    -2.0221 H      1 <0>       0.4300
    7 C7        2.1002    -0.0703    -1.1590 C.3    1 <0>      -0.0500
    8 C8        2.8163    -0.5637    -2.4178 C.3    1 <0>       0.1400
    9 H9        2.3425    -0.1306    -3.2988 H      1 <0>       0.1400
   10 O10       2.7343    -1.9888    -2.4849 O.3    1 <0>      -0.5400
   11 C11       4.2634    -0.1456    -2.3691 C.ar   1 <0>      -0.1300
   12 C12       5.1867    -0.9296    -1.7032 C.ar   1 <0>      -0.0900
   13 C13       6.5145    -0.5472    -1.6577 C.ar   1 <0>      -0.0900
   14 C14       6.9195     0.6204    -2.2786 C.ar   1 <0>      -0.0200
   15 Cl15      8.5868     1.1008    -2.2223 Cl     1 <0>      -0.0200
   16 C16       5.9944     1.4058    -2.9458 C.ar   1 <0>      -0.0300
   17 Cl17      6.5012     2.8716    -3.7257 Cl     1 <0>      -0.0300
   18 C18       4.6675     1.0189    -2.9951 C.ar   1 <0>      -0.0800
   19 H19       1.0039     1.9031     0.0027 H      1 <0>       0.0800
   20 H20      -0.5459     1.8868    -0.8726 H      1 <0>       0.0800
   21 H21      -0.5289     1.8773     0.9072 H      1 <0>       0.1100
   22 H22       0.5293    -0.3651     0.8851 H      1 <0>       0.1400
   23 H23      -1.9605    -0.1726    -0.8702 H      1 <0>       0.0800
   24 H24      -1.4185    -1.6235     0.0069 H      1 <0>       0.0800
   25 H25      -1.9435    -0.1821     0.9097 H      1 <0>       0.1100
   26 H26       2.1628     1.0167    -1.1079 H      1 <0>       0.1500
   27 H27       2.5740    -0.5034    -0.2781 H      1 <0>       0.1400
   28 H28       3.1369    -2.4418    -1.7314 H      1 <0>       0.3900
   29 H29       4.8707    -1.8412    -1.2179 H      1 <0>       0.1400
   30 H30       7.2354    -1.1600    -1.1370 H      1 <0>       0.1500
   31 H31       3.9455     1.6307    -3.5155 H      1 <0>       0.1500
@<TRIPOS>BOND
   1    1    2 1
   2    1   19 1
   3    1   20 1
   4    1   21 1
   5    2    3 1
   6    2    4 1
   7    2   22 1
   8    3   23 1
   9    3   24 1
  10    3   25 1
  11    4    5 1
  12    4    6 1
  13    4    7 1
  14    7    8 1
  15    7   26 1
  16    7   27 1
  17    8    9 1
  18    8   10 1
  19    8   11 1
  20   10   28 1
  21   11   18 ar
  22   11   12 ar
  23   12   13 ar
  24   12   29 1
  25   13   14 ar
  26   13   30 1
  27   14   15 1
  28   14   16 ar
  29   16   17 1
  30   16   18 ar
  31   18   31 1
