@<TRIPOS>MOLECULE
ZINC000013580622
58    61    1     0     0
SMALL
USER_CHARGES
@<TRIPOS>ATOM
1      C1     -0.0184    1.5028    0.0103 C.3      1 ZINC000013580622   -0.1100
2      C2      0.0021   -0.0041    0.0020 C.ar     1 ZINC000013580622   -0.0900
3      C3      0.0057   -0.6877   -1.2002 C.ar     1 ZINC000013580622   -0.1300
4      C4      0.0240   -2.0710   -1.2153 C.ar     1 ZINC000013580622   -0.1100
5      C5      0.0387   -2.7763   -0.0293 C.ar     1 ZINC000013580622   -0.1200
6      C6      0.0356   -2.0925    1.1852 C.ar     1 ZINC000013580622   -0.0200
7      C7      0.0518   -2.8454    2.4636 C.ar     1 ZINC000013580622   -0.0800
8      C8      0.0429   -2.1577    3.6797 C.ar     1 ZINC000013580622   -0.1000
9      C9      0.0578   -2.8453    4.8716 C.ar     1 ZINC000013580622   -0.1200
10     C10     0.0824   -4.2370    4.8749 C.ar     1 ZINC000013580622    0.0800
11     C11     0.0914   -4.9314    3.6540 C.ar     1 ZINC000013580622   -0.0600
12     C12     0.0701   -4.2357    2.4516 C.ar     1 ZINC000013580622   -0.0500
13     C13     0.1182   -6.3651    4.0062 C.2      1 ZINC000013580622   -0.2600
14     C14     0.1362   -7.4631    3.1090 C.2      1 ZINC000013580622    0.3600
15     O15     0.1299   -7.2679    1.9094 O.2      1 ZINC000013580622   -0.4700
16     C16     0.1627   -8.8590    3.6380 C.2      1 ZINC000013580622    0.4800
17     O17     0.1781   -9.8042    2.8657 O.co2    1 ZINC000013580622   -0.6500
18     O18     0.1689   -9.0551    4.8428 O.co2    1 ZINC000013580622   -0.6800
19     C19     0.1232   -6.4204    5.3890 C.2      1 ZINC000013580622    0.1600
20     N20     0.1022   -5.1731    5.8901 N.pl3    1 ZINC000013580622   -0.4600
21     C21     0.1009   -4.8507    7.3191 C.3      1 ZINC000013580622    0.1500
22     C22    -1.3170   -4.6444    7.7863 C.ar     1 ZINC000013580622   -0.1200
23     C23    -1.8862   -3.3859    7.7325 C.ar     1 ZINC000013580622   -0.1000
24     C24    -3.1868   -3.1966    8.1610 C.ar     1 ZINC000013580622   -0.1200
25     C25    -3.9182   -4.2660    8.6429 C.ar     1 ZINC000013580622   -0.0600
26     C26    -5.3359   -4.0597    9.1105 C.3      1 ZINC000013580622   -0.0300
27     C27    -6.1819   -3.5247    7.9533 C.3      1 ZINC000013580622   -0.1400
28     C28    -5.9136   -5.3924    9.5910 C.3      1 ZINC000013580622   -0.1500
29     C29    -5.3516   -3.0523   10.2619 C.3      1 ZINC000013580622   -0.1400
30     C30    -3.3494   -5.5248    8.6954 C.ar     1 ZINC000013580622   -0.1200
31     C31    -2.0502   -5.7148    8.2633 C.ar     1 ZINC000013580622   -0.0900
32     C32     0.0228   -0.6993    1.1943 C.ar     1 ZINC000013580622   -0.1200
33     H33     1.0042    1.8801    0.0026 H        1 ZINC000013580622    0.0700
34     H34    -0.5455    1.8639   -0.8728 H        1 ZINC000013580622    0.0600
35     H35    -0.5286    1.8543    0.9071 H        1 ZINC000013580622    0.0600
36     H36    -0.0061   -0.1397   -2.1308 H        1 ZINC000013580622    0.1200
37     H37     0.0264   -2.5998   -2.1569 H        1 ZINC000013580622    0.1200
38     H38     0.0522   -3.8561   -0.0422 H        1 ZINC000013580622    0.1300
39     H39     0.0245   -1.0778    3.6843 H        1 ZINC000013580622    0.1200
40     H40     0.0507   -2.3041    5.8062 H        1 ZINC000013580622    0.1200
41     H41     0.0771   -4.7710    1.5137 H        1 ZINC000013580622    0.1300
42     H42     0.1415   -7.3269    5.9758 H        1 ZINC000013580622    0.2100
43     H43     0.5515   -5.6714    7.8772 H        1 ZINC000013580622    0.1000
44     H44     0.6748   -3.9392    7.4865 H        1 ZINC000013580622    0.0900
45     H45    -1.3148   -2.5503    7.3560 H        1 ZINC000013580622    0.1200
46     H46    -3.6313   -2.2132    8.1196 H        1 ZINC000013580622    0.1200
47     H47    -6.1707   -4.2424    7.1329 H        1 ZINC000013580622    0.0600
48     H48    -7.2073   -3.3755    8.2915 H        1 ZINC000013580622    0.0600
49     H49    -5.7703   -2.5752    7.6109 H        1 ZINC000013580622    0.0600
50     H50    -5.3109   -5.7735   10.4154 H        1 ZINC000013580622    0.0600
51     H51    -6.9390   -5.2432    9.9292 H        1 ZINC000013580622    0.0600
52     H52    -5.9024   -6.1101    8.7707 H        1 ZINC000013580622    0.0600
53     H53    -4.9401   -2.1028    9.9196 H        1 ZINC000013580622    0.0600
54     H54    -6.3770   -2.9030   10.6001 H        1 ZINC000013580622    0.0600
55     H55    -4.7489   -3.4334   11.0863 H        1 ZINC000013580622    0.0600
56     H56    -3.9210   -6.3604    9.0716 H        1 ZINC000013580622    0.1300
57     H57    -1.6058   -6.6983    8.3044 H        1 ZINC000013580622    0.1300
58     H58     0.0204   -0.1645    2.1326 H        1 ZINC000013580622    0.1200
@<TRIPOS>BOND
1     1     2     1
2     1     33    1
3     1     34    1
4     1     35    1
5     2     32    ar
6     2     3     ar
7     3     4     ar
8     3     36    1
9     4     5     ar
10    4     37    1
11    5     6     ar
12    5     38    1
13    6     7     1
14    6     32    ar
15    7     12    ar
16    7     8     ar
17    8     9     ar
18    8     39    1
19    9     10    ar
20    9     40    1
21    10    20    1
22    10    11    ar
23    11    12    ar
24    11    13    1
25    12    41    1
26    13    14    1
27    13    19    2
28    14    15    2
29    14    16    1
30    16    17    ar
31    16    18    ar
32    19    20    1
33    19    42    1
34    20    21    1
35    21    22    1
36    21    43    1
37    21    44    1
38    22    31    ar
39    22    23    ar
40    23    24    ar
41    23    45    1
42    24    25    ar
43    24    46    1
44    25    26    1
45    25    30    ar
46    26    27    1
47    26    28    1
48    26    29    1
49    27    47    1
50    27    48    1
51    27    49    1
52    28    50    1
53    28    51    1
54    28    52    1
55    29    53    1
56    29    54    1
57    29    55    1
58    30    31    ar
59    30    56    1
60    31    57    1
61    32    58    1
@<TRIPOS>SUBSTRUCTURE
1   ZINC000013580622 1     RESIDUE    1   A     ZIN   1
