@<TRIPOS>MOLECULE
ZINC000004628914
63    68    1     0     0
SMALL
USER_CHARGES
@<TRIPOS>ATOM
1      C1     -6.0147   -3.4610    2.1813 C.3      1 ZINC000004628914   -0.1300
2      C2     -4.8238   -3.1643    1.2678 C.3      1 ZINC000004628914   -0.4700
3      S3     -3.4662   -4.3034    1.6549 S.o      1 ZINC000004628914    1.3200
4      O4     -2.8570   -3.9156    2.8787 O.2      1 ZINC000004628914   -0.7700
5      C5     -2.2451   -3.8871    0.4548 C.ar     1 ZINC000004628914   -0.2200
6      N6     -2.2839   -4.4502   -0.7368 N.ar     1 ZINC000004628914   -0.4200
7      C7     -1.3915   -4.1688   -1.6662 C.ar     1 ZINC000004628914    0.0800
8      C8     -0.3752   -3.2656   -1.4199 C.ar     1 ZINC000004628914   -0.1400
9      C9     -0.3018   -2.6530   -0.1780 C.ar     1 ZINC000004628914   -0.0900
10     C10    -1.2608   -2.9697    0.7716 C.ar     1 ZINC000004628914   -0.1100
11     C11    -1.2243   -2.3303    2.1357 C.3      1 ZINC000004628914    0.1800
12     O12    -1.0144   -3.3359    3.1291 O.3      1 ZINC000004628914   -0.4800
13     C13    -0.0852   -1.3085    2.1915 C.3      1 ZINC000004628914   -0.1400
14     C14    -0.0913   -0.6191    3.5579 C.3      1 ZINC000004628914    0.0600
15     N15    -1.3826    0.0488    3.7648 N.3      1 ZINC000004628914   -0.5300
16     C16    -1.3752    0.8363    5.0048 C.3      1 ZINC000004628914    0.0800
17     C17    -2.7663    1.4275    5.2419 C.3      1 ZINC000004628914    0.0200
18     C18    -3.4513    2.1538    4.0209 C.3      1 ZINC000004628914   -0.0900
19     C19    -4.7438    2.4878    4.8608 C.3      1 ZINC000004628914   -0.0100
20     C20    -5.0844    1.0862    5.3737 C.ar     1 ZINC000004628914   -0.1000
21     C21    -6.2730    0.4399    5.6124 C.ar     1 ZINC000004628914   -0.1000
22     C22    -6.2616   -0.8615    6.0870 C.ar     1 ZINC000004628914   -0.1200
23     C23    -5.0606   -1.5052    6.3193 C.ar     1 ZINC000004628914   -0.1100
24     C24    -3.8632   -0.8517    6.0779 C.ar     1 ZINC000004628914   -0.1000
25     C25    -3.8766    0.4387    5.6067 C.ar     1 ZINC000004628914   -0.0800
26     C26    -4.0956    3.1784    6.0634 C.ar     1 ZINC000004628914   -0.0900
27     C27    -4.4825    4.2280    6.8609 C.ar     1 ZINC000004628914   -0.1000
28     C28    -3.6626    4.6374    7.8997 C.ar     1 ZINC000004628914   -0.1200
29     C29    -2.4618    3.9932    8.1314 C.ar     1 ZINC000004628914   -0.1200
30     C30    -2.0733    2.9352    7.3259 C.ar     1 ZINC000004628914   -0.1000
31     C31    -2.8728    2.5186    6.3103 C.ar     1 ZINC000004628914   -0.0800
32     C32    -2.4873   -0.9188    3.7625 C.3      1 ZINC000004628914    0.0500
33     C33    -2.5527   -1.6170    2.4023 C.3      1 ZINC000004628914   -0.1200
34     H34    -6.8305   -2.7765    1.9487 H        1 ZINC000004628914    0.0700
35     H35    -6.3459   -4.4876    2.0246 H        1 ZINC000004628914    0.0700
36     H36    -5.7162   -3.3303    3.2215 H        1 ZINC000004628914    0.0600
37     H37    -5.1224   -3.2950    0.2276 H        1 ZINC000004628914    0.1100
38     H38    -4.4926   -2.1377    1.4244 H        1 ZINC000004628914    0.1000
39     H39    -1.4556   -4.6501   -2.6309 H        1 ZINC000004628914    0.1600
40     H40     0.3531   -3.0398   -2.1849 H        1 ZINC000004628914    0.1400
41     H41     0.4815   -1.9430    0.0428 H        1 ZINC000004628914    0.1400
42     H42    -0.1885   -3.8275    3.0227 H        1 ZINC000004628914    0.3400
43     H43     0.8675   -1.8172    2.0448 H        1 ZINC000004628914    0.0700
44     H44    -0.2254   -0.5641    1.4077 H        1 ZINC000004628914    0.0800
45     H45     0.0627   -1.3623    4.3402 H        1 ZINC000004628914    0.0400
46     H46     0.7096    0.1192    3.5957 H        1 ZINC000004628914    0.0700
47     H47    -1.1064    0.1927    5.8424 H        1 ZINC000004628914    0.0400
48     H48    -0.6474    1.6432    4.9185 H        1 ZINC000004628914    0.0800
49     H49    -2.9117    3.0471    3.7064 H        1 ZINC000004628914    0.0800
50     H50    -3.6531    1.4786    3.1893 H        1 ZINC000004628914    0.0900
51     H51    -5.5409    3.0254    4.3472 H        1 ZINC000004628914    0.1100
52     H52    -7.2110    0.9437    5.4315 H        1 ZINC000004628914    0.1200
53     H53    -7.1931   -1.3741    6.2763 H        1 ZINC000004628914    0.1200
54     H54    -5.0557   -2.5196    6.6900 H        1 ZINC000004628914    0.1200
55     H55    -2.9243   -1.3537    6.2595 H        1 ZINC000004628914    0.1200
56     H56    -5.4206    4.7314    6.6787 H        1 ZINC000004628914    0.1200
57     H57    -3.9620    5.4620    8.5296 H        1 ZINC000004628914    0.1200
58     H58    -1.8249    4.3156    8.9419 H        1 ZINC000004628914    0.1200
59     H59    -1.1351    2.4315    7.5061 H        1 ZINC000004628914    0.1200
60     H60    -2.3220   -1.6605    4.5439 H        1 ZINC000004628914    0.0600
61     H61    -3.4265   -0.3981    3.9490 H        1 ZINC000004628914    0.0900
62     H62    -2.7317   -0.8775    1.6218 H        1 ZINC000004628914    0.0600
63     H63    -3.3629   -2.3463    2.4062 H        1 ZINC000004628914    0.1000
@<TRIPOS>BOND
1     1     2     1
2     1     34    1
3     1     35    1
4     1     36    1
5     2     3     1
6     2     37    1
7     2     38    1
8     3     4     2
9     3     5     1
10    5     10    ar
11    5     6     ar
12    6     7     ar
13    7     8     ar
14    7     39    1
15    8     9     ar
16    8     40    1
17    9     10    ar
18    9     41    1
19    10    11    1
20    11    33    1
21    11    12    1
22    11    13    1
23    12    42    1
24    13    14    1
25    13    43    1
26    13    44    1
27    14    15    1
28    14    45    1
29    14    46    1
30    15    16    1
31    15    32    1
32    16    17    1
33    16    47    1
34    16    48    1
35    17    25    1
36    17    31    1
37    17    18    1
38    18    19    1
39    18    49    1
40    18    50    1
41    19    20    1
42    19    26    1
43    19    51    1
44    20    25    ar
45    20    21    ar
46    21    22    ar
47    21    52    1
48    22    23    ar
49    22    53    1
50    23    24    ar
51    23    54    1
52    24    25    ar
53    24    55    1
54    26    31    ar
55    26    27    ar
56    27    28    ar
57    27    56    1
58    28    29    ar
59    28    57    1
60    29    30    ar
61    29    58    1
62    30    31    ar
63    30    59    1
64    32    33    1
65    32    60    1
66    32    61    1
67    33    62    1
68    33    63    1
@<TRIPOS>SUBSTRUCTURE
1   ZINC000004628914 1     RESIDUE    1   A     ZIN   1
