@<TRIPOS>MOLECULE
ZINC000257362266
96    101   1     0     0
SMALL
USER_CHARGES
@<TRIPOS>ATOM
1      C1      1.2648   -2.3122    1.0193 C.3      1 ZINC000257362266   -0.1800
2      C2      0.8065   -2.8249   -0.3475 C.3      1 ZINC000257362266    0.1400
3      C3      1.5754   -4.1004   -0.6977 C.3      1 ZINC000257362266   -0.1800
4      C4     -0.6922   -3.1292   -0.3017 C.3      1 ZINC000257362266   -0.1400
5      O5      1.0642   -1.8122   -1.3556 O.3      1 ZINC000257362266   -0.3600
6      C6      2.3438   -1.4286   -1.5236 C.2      1 ZINC000257362266    0.6500
7      O7      3.2212   -1.9265   -0.8463 O.2      1 ZINC000257362266   -0.5600
8      N8      2.6515   -0.4924   -2.4429 N.am     1 ZINC000257362266   -0.7000
9      C9      4.0264    0.0052   -2.5508 C.3      1 ZINC000257362266    0.1600
10     H10     4.4845    0.0174   -1.5608 H        1 ZINC000257362266    0.1100
11     C11     4.8260   -0.9212   -3.4685 C.3      1 ZINC000257362266   -0.1100
12     C12     6.2546   -0.4013   -3.6304 C.3      1 ZINC000257362266   -0.1300
13     C13     6.7479   -0.7039   -5.0474 C.3      1 ZINC000257362266   -0.1100
14     C14     7.9693    0.1604   -5.3658 C.3      1 ZINC000257362266   -0.1100
15     C15     7.5183    1.5887   -5.6762 C.3      1 ZINC000257362266   -0.0900
16     C16     8.7220    2.4575   -5.9356 C.2      1 ZINC000257362266   -0.1700
17     C17     8.5872    3.7612   -5.9907 C.2      1 ZINC000257362266   -0.1000
18     C18     7.2303    4.3833   -5.7939 C.3      1 ZINC000257362266   -0.0900
19     H19     6.3890    3.7992   -6.1748 H        1 ZINC000257362266    0.1100
20     C20     7.1175    5.9046   -5.8853 C.3      1 ZINC000257362266   -0.1600
21     C21     6.9950    5.2069   -4.5281 C.3      1 ZINC000257362266    0.1300
22     C22     8.1373    5.3750   -3.5628 C.2      1 ZINC000257362266    0.5700
23     O23     9.2813    5.2861   -3.9556 O.2      1 ZINC000257362266   -0.6200
24     N24     7.8891    5.6242   -2.2617 N.pl3    1 ZINC000257362266   -1.1100
25     S25     9.1460    5.8091   -1.1996 S.o2     1 ZINC000257362266    2.5800
26     O26     9.7905    4.5427   -1.1954 O.2      1 ZINC000257362266   -1.0100
27     O27     9.8214    6.9734   -1.6551 O.2      1 ZINC000257362266   -1.0200
28     C28     8.3462    6.1214    0.3983 C.3      1 ZINC000257362266   -0.6400
29     C29     8.4629    5.0365    1.4708 C.3      1 ZINC000257362266   -0.1300
30     C30     9.2526    6.3393    1.6115 C.3      1 ZINC000257362266   -0.1500
31     N31     5.6552    5.1274   -3.9265 N.am     1 ZINC000257362266   -0.6800
32     C32     5.3168    4.0148   -3.2349 C.2      1 ZINC000257362266    0.5200
33     O33     6.1317    3.1395   -3.0347 O.2      1 ZINC000257362266   -0.4900
34     C34     3.9101    3.8585   -2.7140 C.3      1 ZINC000257362266    0.1200
35     H35     3.1971    4.1610   -3.4794 H        1 ZINC000257362266    0.1000
36     C36     3.7243    4.7164   -1.4558 C.3      1 ZINC000257362266   -0.1200
37     C37     3.0026    3.8134   -0.4439 C.3      1 ZINC000257362266    0.1100
38     H38     3.5105    3.8473    0.5198 H        1 ZINC000257362266    0.1100
39     O39     1.6213    4.2349   -0.2947 O.3      1 ZINC000257362266   -0.3500
40     C40     1.0428    4.0209    0.9022 C.2      1 ZINC000257362266    0.6800
41     O41     1.6751    3.4963    1.7974 O.2      1 ZINC000257362266   -0.5500
42     N42    -0.2375    4.3887    1.1072 N.am     1 ZINC000257362266   -0.6000
43     C43    -1.1309    5.0228    0.1326 C.3      1 ZINC000257362266    0.1500
44     C44    -2.4602    5.2479    0.8078 C.ar     1 ZINC000257362266   -0.0700
45     C45    -3.6369    5.8071    0.3404 C.ar     1 ZINC000257362266   -0.1000
46     C46    -4.7380    5.9021    1.1702 C.ar     1 ZINC000257362266   -0.0800
47     C47    -4.6656    5.4380    2.4696 C.ar     1 ZINC000257362266   -0.1500
48     C48    -3.4897    4.8784    2.9387 C.ar     1 ZINC000257362266    0.1300
49     F49    -3.4180    4.4245    4.2092 F        1 ZINC000257362266   -0.1300
50     C50    -2.3856    4.7835    2.1060 C.ar     1 ZINC000257362266   -0.1500
51     C51    -1.0056    4.2254    2.3456 C.3      1 ZINC000257362266    0.1800
52     C52     3.0620    2.3942   -1.0225 C.3      1 ZINC000257362266    0.0900
53     N53     3.6827    2.4567   -2.3465 N.am     1 ZINC000257362266   -0.5900
54     C54     4.0145    1.3996   -3.1154 C.2      1 ZINC000257362266    0.5400
55     O55     4.2932    1.5780   -4.2836 O.2      1 ZINC000257362266   -0.4900
56     H56     2.3325   -2.0954    0.9867 H        1 ZINC000257362266    0.0900
57     H57     0.7170   -1.4035    1.2688 H        1 ZINC000257362266    0.0600
58     H58     1.0714   -3.0724    1.7761 H        1 ZINC000257362266    0.0700
59     H59     1.3820   -4.8607    0.0591 H        1 ZINC000257362266    0.0700
60     H60     1.2489   -4.4657   -1.6714 H        1 ZINC000257362266    0.0600
61     H61     2.6432   -3.8836   -0.7304 H        1 ZINC000257362266    0.0900
62     H62    -1.2400   -2.2205   -0.0521 H        1 ZINC000257362266    0.0700
63     H63    -1.0187   -3.4945   -1.2754 H        1 ZINC000257362266    0.0700
64     H64    -0.8856   -3.8895    0.4551 H        1 ZINC000257362266    0.0800
65     H65     1.9633   -0.1477   -3.0333 H        1 ZINC000257362266    0.4100
66     H66     4.8549   -1.9217   -3.0325 H        1 ZINC000257362266    0.0700
67     H67     4.3432   -0.9710   -4.4446 H        1 ZINC000257362266    0.0700
68     H68     6.2798    0.6724   -3.4559 H        1 ZINC000257362266    0.0900
69     H69     6.9051   -0.8982   -2.9087 H        1 ZINC000257362266    0.0600
70     H70     7.0204   -1.7572   -5.1182 H        1 ZINC000257362266    0.0500
71     H71     5.9535   -0.4872   -5.7623 H        1 ZINC000257362266    0.0600
72     H72     8.6447    0.1682   -4.5113 H        1 ZINC000257362266    0.0600
73     H73     8.4870   -0.2511   -6.2334 H        1 ZINC000257362266    0.0500
74     H74     6.8775    1.5832   -6.5582 H        1 ZINC000257362266    0.0500
75     H75     6.9618    1.9852   -4.8277 H        1 ZINC000257362266    0.1000
76     H76     9.6937    2.0084   -6.0766 H        1 ZINC000257362266    0.1000
77     H77     9.4483    4.3845   -6.1818 H        1 ZINC000257362266    0.1100
78     H78     8.0310    6.4678   -6.0768 H        1 ZINC000257362266    0.1100
79     H79     6.2082    6.3194   -6.3194 H        1 ZINC000257362266    0.1000
80     H80     7.4170    6.6897    0.3558 H        1 ZINC000257362266    0.1500
81     H81     7.6103    4.8907    2.1341 H        1 ZINC000257362266    0.1000
82     H82     9.0203    4.1351    1.2163 H        1 ZINC000257362266    0.1100
83     H83    10.3296    6.2950    1.4495 H        1 ZINC000257362266    0.1000
84     H84     8.9196    7.0507    2.3673 H        1 ZINC000257362266    0.1000
85     H85     5.0243    5.8604   -4.0257 H        1 ZINC000257362266    0.3900
86     H86     4.6942    5.0227   -1.0623 H        1 ZINC000257362266    0.1200
87     H87     3.1160    5.5918   -1.6821 H        1 ZINC000257362266    0.1100
88     H88    -0.7121    5.9774   -0.1860 H        1 ZINC000257362266    0.0900
89     H89    -1.2606    4.3690   -0.7298 H        1 ZINC000257362266    0.0900
90     H90    -3.6946    6.1705   -0.6750 H        1 ZINC000257362266    0.1400
91     H91    -5.6548    6.3392    0.8031 H        1 ZINC000257362266    0.1400
92     H92    -5.5256    5.5122    3.1188 H        1 ZINC000257362266    0.1400
93     H93    -1.0742    3.1685    2.6032 H        1 ZINC000257362266    0.0900
94     H94    -0.5209    4.7729    3.1538 H        1 ZINC000257362266    0.0900
95     H95     3.6497    1.7522   -0.3661 H        1 ZINC000257362266    0.0900
96     H96     2.0491    1.9954   -1.1113 H        1 ZINC000257362266    0.0800
@<TRIPOS>BOND
1     1     2     1
2     1     56    1
3     1     57    1
4     1     58    1
5     2     3     1
6     2     4     1
7     2     5     1
8     3     59    1
9     3     60    1
10    3     61    1
11    4     62    1
12    4     63    1
13    4     64    1
14    5     6     1
15    6     7     2
16    6     8     am
17    8     9     1
18    8     65    1
19    9     10    1
20    9     54    1
21    9     11    1
22    11    12    1
23    11    66    1
24    11    67    1
25    12    13    1
26    12    68    1
27    12    69    1
28    13    14    1
29    13    70    1
30    13    71    1
31    14    15    1
32    14    72    1
33    14    73    1
34    15    16    1
35    15    74    1
36    15    75    1
37    16    17    2
38    16    76    1
39    17    18    1
40    17    77    1
41    18    19    1
42    18    21    1
43    18    20    1
44    20    21    1
45    20    78    1
46    20    79    1
47    21    22    1
48    21    31    1
49    22    23    2
50    22    24    1
51    24    25    1
52    25    26    2
53    25    27    2
54    25    28    1
55    28    30    1
56    28    29    1
57    28    80    1
58    29    30    1
59    29    81    1
60    29    82    1
61    30    83    1
62    30    84    1
63    31    32    am
64    31    85    1
65    32    33    2
66    32    34    1
67    34    35    1
68    34    53    1
69    34    36    1
70    36    37    1
71    36    86    1
72    36    87    1
73    37    38    1
74    37    39    1
75    37    52    1
76    39    40    1
77    40    41    2
78    40    42    am
79    42    51    1
80    42    43    1
81    43    44    1
82    43    88    1
83    43    89    1
84    44    50    ar
85    44    45    ar
86    45    46    ar
87    45    90    1
88    46    47    ar
89    46    91    1
90    47    48    ar
91    47    92    1
92    48    49    1
93    48    50    ar
94    50    51    1
95    51    93    1
96    51    94    1
97    52    53    1
98    52    95    1
99    52    96    1
100   53    54    am
101   54    55    2
@<TRIPOS>SUBSTRUCTURE
1   ZINC000257362266 1     RESIDUE    1   A     ZIN   1
