@<TRIPOS>MOLECULE
ZINC000000004107
  31   31    0    0    0
SMALL
USER_CHARGES
NO_NAME
@<TRIPOS>ATOM
    1 C1       -0.0184     1.5028     0.0103 C.3    1 <0>      -0.1700
    2 C2        0.0021    -0.0041     0.0020 C.2    1 <0>       0.5100
    3 O3        1.0605    -0.5961    -0.0113 O.2    1 <0>      -0.5400
    4 N4       -1.1558    -0.6938     0.0094 N.am   1 <0>      -0.7300
    5 C5       -1.1360    -2.1586     0.0013 C.3    1 <0>       0.1000
    6 C6       -2.5713    -2.6882     0.0122 C.3    1 <0>       0.0900
    7 N7       -2.5515    -4.1530     0.0041 N.pl3  1 <0>      -0.4300
    8 C8       -2.5457    -4.9254    -1.1213 C.2    1 <0>       0.0000
    9 C9       -2.5583    -4.4071    -2.5363 C.3    1 <0>      -0.0900
   10 C10      -2.5266    -6.2212    -0.7668 C.2    1 <0>      -0.1300
   11 C11      -2.5201    -6.2482     0.7019 C.2    1 <0>      -0.2800
   12 C12      -2.5003    -7.4328     1.5628 C.2    1 <0>       0.4100
   13 O13      -2.4878    -8.5413     1.0694 O.2    1 <0>      -0.4700
   14 C14      -2.5305    -4.9260     1.1045 C.2    1 <0>       0.1000
   15 C15      -2.5289    -4.4356     2.5295 C.3    1 <0>      -0.1000
   16 H16       1.0042     1.8801     0.0026 H      1 <0>       0.1000
   17 H17      -0.5455     1.8639    -0.8728 H      1 <0>       0.0900
   18 H18      -0.5286     1.8543     0.9071 H      1 <0>       0.0900
   19 H19      -2.0023    -0.2203     0.0200 H      1 <0>       0.4000
   20 H20      -0.6258    -2.5101    -0.8955 H      1 <0>       0.0800
   21 H21      -0.6088    -2.5197     0.8844 H      1 <0>       0.0800
   22 H22      -3.0815    -2.3367     0.9090 H      1 <0>       0.1000
   23 H23      -3.0985    -2.3271    -0.8709 H      1 <0>       0.1000
   24 H24      -1.5337    -4.2685    -2.8815 H      1 <0>       0.0700
   25 H25      -3.0652    -5.1245    -3.1815 H      1 <0>       0.0800
   26 H26      -3.0849    -3.4533    -2.5692 H      1 <0>       0.0600
   27 H27      -2.5179    -7.0736    -1.4299 H      1 <0>       0.1500
   28 H28      -2.4970    -7.3198     2.6369 H      1 <0>       0.1000
   29 H29      -1.5009    -4.3083     2.8688 H      1 <0>       0.0800
   30 H30      -3.0510    -3.4804     2.5856 H      1 <0>       0.0700
   31 H31      -3.0338    -5.1634     3.1647 H      1 <0>       0.0900
@<TRIPOS>BOND
   1    1    2 1
   2    1   16 1
   3    1   17 1
   4    1   18 1
   5    2    3 2
   6    2    4 am
   7    4    5 1
   8    4   19 1
   9    5    6 1
  10    5   20 1
  11    5   21 1
  12    6    7 1
  13    6   22 1
  14    6   23 1
  15    7   14 1
  16    7    8 1
  17    8    9 1
  18    8   10 2
  19    9   24 1
  20    9   25 1
  21    9   26 1
  22   10   11 1
  23   10   27 1
  24   11   12 1
  25   11   14 2
  26   12   13 2
  27   12   28 1
  28   14   15 1
  29   15   29 1
  30   15   30 1
  31   15   31 1
