@<TRIPOS>MOLECULE
ZINC000005752118
  41   42    0    0    0
SMALL
USER_CHARGES
NO_NAME
@<TRIPOS>ATOM
    1 C1        0.0341     1.3745    -0.3889 C.3    1 <0>      -0.1500
    2 C2        0.0532    -0.1476    -0.2348 C.3    1 <0>      -0.0900
    3 H3       -0.9694    -0.5249    -0.2271 H      1 <0>       0.0800
    4 C4        0.8173    -0.7691    -1.4057 C.3    1 <0>      -0.1300
    5 C5        0.8364    -2.2912    -1.2517 C.3    1 <0>       0.0900
    6 H6        1.3808    -2.7340    -2.0858 H      1 <0>       0.0900
    7 O7       -0.5258    -2.7938    -1.2414 O.3    1 <0>      -0.3300
    8 C8       -1.0622    -3.1246    -2.4265 C.2    1 <0>       0.4400
    9 O9       -0.4150    -2.9985    -3.4389 O.2    1 <0>      -0.4900
   10 C10      -2.4718    -3.6535    -2.4942 C.3    1 <0>       0.1400
   11 H11      -3.1151    -3.0998    -1.8103 H      1 <0>       0.1300
   12 C12      -2.4950    -5.1591    -2.1494 C.3    1 <0>      -0.1200
   13 C13      -2.3969    -5.8051    -3.5508 C.3    1 <0>      -0.1600
   14 C14      -2.9489    -4.7508    -4.4848 C.2    1 <0>       0.5300
   15 O15      -3.3075    -4.9525    -5.6257 O.2    1 <0>      -0.5200
   16 N16      -2.9854    -3.5560    -3.8656 N.am   1 <0>      -0.7100
   17 C17       1.5269    -2.6622     0.0623 C.3    1 <0>      -0.1100
   18 C18       0.7628    -2.0407     1.2331 C.3    1 <0>      -0.0600
   19 C19      -0.6726    -2.5703     1.2440 C.3    1 <0>      -0.1400
   20 C20       1.4533    -2.4118     2.5471 C.3    1 <0>      -0.1400
   21 C21       0.7437    -0.5186     1.0791 C.3    1 <0>      -0.1000
   22 H22       1.0567     1.7518    -0.3966 H      1 <0>       0.0500
   23 H23      -0.4578     1.6388    -1.3250 H      1 <0>       0.0500
   24 H24      -0.5102     1.8173     0.4453 H      1 <0>       0.0600
   25 H25       0.3254    -0.5048    -2.3418 H      1 <0>       0.0700
   26 H26       1.8399    -0.3918    -1.4134 H      1 <0>       0.0800
   27 H27      -1.6380    -5.4315    -1.5334 H      1 <0>       0.1000
   28 H28      -3.4290    -5.4324    -1.6584 H      1 <0>       0.1000
   29 H29      -1.3584    -6.0267    -3.7968 H      1 <0>       0.1100
   30 H30      -3.0024    -6.7103    -3.5968 H      1 <0>       0.1100
   31 H31      -3.3090    -2.7377    -4.2737 H      1 <0>       0.4200
   32 H32       1.5405    -3.7466     0.1720 H      1 <0>       0.0700
   33 H33       2.5495    -2.2850     0.0546 H      1 <0>       0.0800
   34 H34      -0.6600    -3.6561     1.1485 H      1 <0>       0.0500
   35 H35      -1.1548    -2.2936     2.1815 H      1 <0>       0.0500
   36 H36      -1.2255    -2.1386     0.4097 H      1 <0>       0.0800
   37 H37       2.4759    -2.0345     2.5394 H      1 <0>       0.0500
   38 H38       0.9089    -1.9690     3.3812 H      1 <0>       0.0600
   39 H39       1.4669    -3.4961     2.6568 H      1 <0>       0.0600
   40 H40       1.7663    -0.1413     1.0714 H      1 <0>       0.0600
   41 H41       0.1994    -0.0759     1.9132 H      1 <0>       0.0700
@<TRIPOS>BOND
   1    1    2 1
   2    1   22 1
   3    1   23 1
   4    1   24 1
   5    2    3 1
   6    2   21 1
   7    2    4 1
   8    4    5 1
   9    4   25 1
  10    4   26 1
  11    5    6 1
  12    5    7 1
  13    5   17 1
  14    7    8 1
  15    8    9 2
  16    8   10 1
  17   10   11 1
  18   10   16 1
  19   10   12 1
  20   12   13 1
  21   12   27 1
  22   12   28 1
  23   13   14 1
  24   13   29 1
  25   13   30 1
  26   14   15 2
  27   14   16 am
  28   16   31 1
  29   17   18 1
  30   17   32 1
  31   17   33 1
  32   18   19 1
  33   18   20 1
  34   18   21 1
  35   19   34 1
  36   19   35 1
  37   19   36 1
  38   20   37 1
  39   20   38 1
  40   20   39 1
  41   21   40 1
  42   21   41 1
