@<TRIPOS>MOLECULE
ZINC000022048199
27    26    1     0     0
SMALL
USER_CHARGES
@<TRIPOS>ATOM
1      C1      0.1085    1.1855    0.3999 C.3      1 ZINC000022048199   -0.0600
2      N2      0.0793   -0.2523    0.1002 N.4      1 ZINC000022048199   -0.2600
3      C3      0.9274   -0.9702    1.0611 C.3      1 ZINC000022048199   -0.0500
4      C4     -1.3007   -0.7456    0.2011 C.3      1 ZINC000022048199   -0.0400
5      C5      0.5820   -0.4790   -1.2614 C.3      1 ZINC000022048199    0.0000
6      C6      2.0496   -0.0538   -1.3405 C.3      1 ZINC000022048199    0.0900
7      H7      2.6320   -0.6219   -0.6152 H        1 ZINC000022048199    0.1000
8      N8      2.1607    1.3803   -1.0425 N.3      1 ZINC000022048199   -0.8500
9      C9      2.5839   -0.3250   -2.7483 C.3      1 ZINC000022048199   -0.2200
10     C10     4.0594   -0.0218   -2.7927 C.2      1 ZINC000022048199    0.4900
11     O11     4.6307    0.3745   -1.7912 O.co2    1 ZINC000022048199   -0.6900
12     O12     4.6818   -0.1727   -3.8301 O.co2    1 ZINC000022048199   -0.6800
13     H13     1.1408    1.5071    0.5373 H        1 ZINC000022048199    0.1700
14     H14    -0.3373    1.7382   -0.4271 H        1 ZINC000022048199    0.1100
15     H15    -0.4565    1.3780    1.3120 H        1 ZINC000022048199    0.1000
16     H16     0.5544   -0.8020    2.0714 H        1 ZINC000022048199    0.1100
17     H17     0.9058   -2.0370    0.8387 H        1 ZINC000022048199    0.1100
18     H18     1.9514   -0.6041    0.9862 H        1 ZINC000022048199    0.1300
19     H19    -1.9300   -0.2130   -0.5119 H        1 ZINC000022048199    0.1100
20     H20    -1.3224   -1.8125   -0.0213 H        1 ZINC000022048199    0.1100
21     H21    -1.6737   -0.5775    1.2114 H        1 ZINC000022048199    0.1200
22     H22     0.4963   -1.5370   -1.5088 H        1 ZINC000022048199    0.1200
23     H23    -0.0050    0.1080   -1.9678 H        1 ZINC000022048199    0.1200
24     H24     3.1264    1.6722   -1.0250 H        1 ZINC000022048199    0.3800
25     H25     1.6290    1.9289   -1.7016 H        1 ZINC000022048199    0.3300
26     H26     2.4203   -1.3720   -3.0036 H        1 ZINC000022048199    0.0700
27     H27     2.0609    0.3094   -3.4639 H        1 ZINC000022048199    0.0700
@<TRIPOS>BOND
1     1     2     1
2     1     13    1
3     1     14    1
4     1     15    1
5     2     3     1
6     2     4     1
7     2     5     1
8     3     16    1
9     3     17    1
10    3     18    1
11    4     19    1
12    4     20    1
13    4     21    1
14    5     6     1
15    5     22    1
16    5     23    1
17    6     7     1
18    6     8     1
19    6     9     1
20    8     24    1
21    8     25    1
22    9     10    1
23    9     26    1
24    9     27    1
25    10    11    ar
26    10    12    ar
@<TRIPOS>SUBSTRUCTURE
1   ZINC000022048199 1     RESIDUE    1   A     ZIN   1
