@<TRIPOS>MOLECULE
ZINC000002556396
  24   23    0    0    0
SMALL
USER_CHARGES
NO_NAME
@<TRIPOS>ATOM
    1 O1        0.0021    -0.0041     0.0020 O.2    1 <0>      -0.4400
    2 C2       -0.0143     1.2034     0.0087 C.2    1 <0>       0.3200
    3 C3        1.2804     1.9746     0.0004 C.3    1 <0>       0.0100
    4 H4        1.3381     2.5972     0.8933 H      1 <0>       0.1400
    5 O5        2.3790     1.0609    -0.0150 O.3    1 <0>      -0.5300
    6 C6        1.3376     2.8619    -1.2447 C.3    1 <0>       0.0600
    7 H7        1.2799     2.2393    -2.1375 H      1 <0>       0.1200
    8 O8        0.2390     3.7756    -1.2293 O.3    1 <0>      -0.5400
    9 C9        2.6520     3.6449    -1.2530 C.3    1 <0>       0.0500
   10 H10       3.4872     2.9518    -1.3543 H      1 <0>       0.1200
   11 O11       2.7816     4.3713    -0.0292 O.3    1 <0>      -0.5400
   12 C12       2.6556     4.6230    -2.4295 C.3    1 <0>       0.0800
   13 H13       1.8204     5.3162    -2.3282 H      1 <0>       0.1100
   14 O14       2.5260     3.8967    -3.6533 O.3    1 <0>      -0.5400
   15 C15       3.9700     5.4060    -2.4378 C.3    1 <0>       0.0400
   16 O16       3.9263     6.3993    -3.4642 O.3    1 <0>      -0.5700
   17 H17      -0.9568     1.7306     0.0160 H      1 <0>       0.1100
   18 H18       2.3916     0.4739    -0.7833 H      1 <0>       0.3800
   19 H19       0.2264     4.3626    -0.4609 H      1 <0>       0.3800
   20 H20       2.0710     5.0082     0.1272 H      1 <0>       0.3700
   21 H21       3.2366     3.2597    -3.8097 H      1 <0>       0.3700
   22 H22       4.1116     5.8887    -1.4708 H      1 <0>       0.0600
   23 H23       4.7983     4.7234    -2.6279 H      1 <0>       0.0500
   24 H24       4.7288     6.9351    -3.5275 H      1 <0>       0.3800
@<TRIPOS>BOND
   1    1    2 2
   2    2    3 1
   3    2   17 1
   4    3    4 1
   5    3    5 1
   6    3    6 1
   7    5   18 1
   8    6    7 1
   9    6    8 1
  10    6    9 1
  11    8   19 1
  12    9   10 1
  13    9   11 1
  14    9   12 1
  15   11   20 1
  16   12   13 1
  17   12   14 1
  18   12   15 1
  19   14   21 1
  20   15   16 1
  21   15   22 1
  22   15   23 1
  23   16   24 1
