@<TRIPOS>MOLECULE
ZINC000100472223
63    66    1     0     0
SMALL
USER_CHARGES
@<TRIPOS>ATOM
1      C1      1.0811    1.3603   -0.5543 C.3      1 ZINC000100472223    0.0200
2      O2      1.1343   -0.0676   -0.5365 O.3      1 ZINC000100472223   -0.3100
3      C3      1.1584   -0.6691    0.6822 C.ar     1 ZINC000100472223    0.1600
4      C4      1.1256    0.1002    1.8364 C.ar     1 ZINC000100472223   -0.2100
5      C5      1.1500   -0.5094    3.0769 C.ar     1 ZINC000100472223   -0.0500
6      C6      1.2077   -1.8868    3.1715 C.ar     1 ZINC000100472223   -0.1100
7      Cl7     1.2383   -2.6490    4.7309 Cl       1 ZINC000100472223   -0.0700
8      C8      1.2409   -2.6625    2.0178 C.ar     1 ZINC000100472223    0.2000
9      N9      1.2987   -4.0560    2.1126 N.pl3    1 ZINC000100472223   -0.6500
10     C10     0.6485   -4.8429    1.1729 C.ar     1 ZINC000100472223    0.3600
11     C11     0.6415   -6.2508    1.3182 C.ar     1 ZINC000100472223    0.3400
12     N12     1.2847   -6.8352    2.3989 N.am     1 ZINC000100472223   -1.0300
13     S13     1.2796   -8.4819    2.5738 S.o2     1 ZINC000100472223    2.6900
14     O14     2.0399   -8.7638    3.7408 O.2      1 ZINC000100472223   -0.9400
15     O15    -0.0681   -8.8993    2.4046 O.2      1 ZINC000100472223   -0.9100
16     C16     2.1824   -9.1532    1.2177 C.ar     1 ZINC000100472223   -0.6500
17     C17     1.5270   -9.4760    0.0439 C.ar     1 ZINC000100472223    0.0100
18     C18     2.2319  -10.0036   -1.0227 C.ar     1 ZINC000100472223   -0.1200
19     C19     3.5934  -10.2092   -0.9183 C.ar     1 ZINC000100472223   -0.0500
20     C20     4.2549   -9.8855    0.2593 C.ar     1 ZINC000100472223    0.0900
21     N21     5.6345  -10.0922    0.3681 N.am     1 ZINC000100472223   -0.6700
22     C22     6.4301   -9.9079   -0.7040 C.2      1 ZINC000100472223    0.5000
23     O23     5.9433   -9.6329   -1.7804 O.2      1 ZINC000100472223   -0.4600
24     C24     7.9246  -10.0434   -0.5655 C.3      1 ZINC000100472223    0.0500
25     C25     8.3188  -11.5148   -0.7096 C.3      1 ZINC000100472223   -0.1800
26     C26     8.6145   -9.2214   -1.6560 C.3      1 ZINC000100472223   -0.1700
27     N27     8.3405   -9.5522    0.7549 N.4      1 ZINC000100472223   -0.6400
28     H28     7.8856  -10.0943    1.4741 H        1 ZINC000100472223    0.4300
29     H29     9.3412   -9.6429    0.8477 H        1 ZINC000100472223    0.4500
30     H30     8.0806   -8.5819    0.8500 H        1 ZINC000100472223    0.4400
31     C31     3.5451   -9.3512    1.3264 C.ar     1 ZINC000100472223   -0.0400
32     N32     0.0277   -7.0091    0.4337 N.ar     1 ZINC000100472223   -0.4500
33     C33    -0.5943   -6.4438   -0.6114 C.ar     1 ZINC000100472223    0.0800
34     C34    -1.2561   -7.2308   -1.5675 C.ar     1 ZINC000100472223   -0.0800
35     C35    -1.8809   -6.6330   -2.6201 C.ar     1 ZINC000100472223   -0.1000
36     C36    -1.8735   -5.2480   -2.7634 C.ar     1 ZINC000100472223   -0.0900
37     C37    -1.2409   -4.4542   -1.8550 C.ar     1 ZINC000100472223   -0.0900
38     C38    -0.5868   -5.0358   -0.7571 C.ar     1 ZINC000100472223    0.1100
39     N39     0.0370   -4.2748    0.1540 N.ar     1 ZINC000100472223   -0.4500
40     C40     1.2101   -2.0514    0.7722 C.ar     1 ZINC000100472223   -0.1400
41     H41     1.9573    1.7629   -0.0463 H        1 ZINC000100472223    0.0600
42     H42     1.0666    1.7104   -1.5864 H        1 ZINC000100472223    0.1000
43     H43     0.1786    1.6966   -0.0439 H        1 ZINC000100472223    0.0600
44     H44     1.0812    1.1770    1.7656 H        1 ZINC000100472223    0.1400
45     H45     1.1244    0.0919    3.9736 H        1 ZINC000100472223    0.1400
46     H46     1.7935   -4.4728    2.8354 H        1 ZINC000100472223    0.4200
47     H47     1.7374   -6.2794    3.0523 H        1 ZINC000100472223    0.4300
48     H48     0.4622   -9.3162   -0.0402 H        1 ZINC000100472223    0.1600
49     H49     1.7169  -10.2554   -1.9380 H        1 ZINC000100472223    0.1500
50     H50     4.1433  -10.6215   -1.7514 H        1 ZINC000100472223    0.1500
51     H51     6.0183  -10.3682    1.2151 H        1 ZINC000100472223    0.4000
52     H52     8.0102  -11.8793   -1.6894 H        1 ZINC000100472223    0.1200
53     H53     9.3997  -11.6128   -0.6095 H        1 ZINC000100472223    0.1000
54     H54     7.8273  -12.1004    0.0673 H        1 ZINC000100472223    0.0900
55     H55     8.3337   -8.1733   -1.5534 H        1 ZINC000100472223    0.0900
56     H56     9.6955   -9.3195   -1.5558 H        1 ZINC000100472223    0.1000
57     H57     8.3059   -9.5860   -2.6358 H        1 ZINC000100472223    0.1200
58     H58     4.0566   -9.0985    2.2435 H        1 ZINC000100472223    0.1400
59     H59    -1.2695   -8.3062   -1.4690 H        1 ZINC000100472223    0.1400
60     H60    -2.3886   -7.2417   -3.3536 H        1 ZINC000100472223    0.1400
61     H61    -2.3759   -4.7971   -3.6064 H        1 ZINC000100472223    0.1400
62     H62    -1.2428   -3.3813   -1.9787 H        1 ZINC000100472223    0.1400
63     H63     1.2354   -2.6514   -0.1255 H        1 ZINC000100472223    0.1600
@<TRIPOS>BOND
1     1     2     1
2     1     41    1
3     1     42    1
4     1     43    1
5     2     3     1
6     3     40    ar
7     3     4     ar
8     4     5     ar
9     4     44    1
10    5     6     ar
11    5     45    1
12    6     7     1
13    6     8     ar
14    8     9     1
15    8     40    ar
16    9     10    1
17    9     46    1
18    10    39    ar
19    10    11    ar
20    11    12    1
21    11    32    ar
22    12    13    am
23    12    47    1
24    13    14    2
25    13    15    2
26    13    16    1
27    16    31    ar
28    16    17    ar
29    17    18    ar
30    17    48    1
31    18    19    ar
32    18    49    1
33    19    20    ar
34    19    50    1
35    20    21    1
36    20    31    ar
37    21    22    am
38    21    51    1
39    22    23    2
40    22    24    1
41    24    25    1
42    24    26    1
43    24    27    1
44    25    52    1
45    25    53    1
46    25    54    1
47    26    55    1
48    26    56    1
49    26    57    1
50    27    28    1
51    27    29    1
52    27    30    1
53    31    58    1
54    32    33    ar
55    33    38    ar
56    33    34    ar
57    34    35    ar
58    34    59    1
59    35    36    ar
60    35    60    1
61    36    37    ar
62    36    61    1
63    37    38    ar
64    37    62    1
65    38    39    ar
66    40    63    1
@<TRIPOS>SUBSTRUCTURE
1   ZINC000100472223 1     RESIDUE    1   A     ZIN   1
