@<TRIPOS>MOLECULE
ZINC000008613151
  29   30    0    0    0
SMALL
USER_CHARGES
NO_NAME
@<TRIPOS>ATOM
    1 O1        0.0021    -0.0041     0.0020 O.2    1 <0>      -0.5200
    2 C2       -0.0144     1.2136     0.0087 C.2    1 <0>       0.5500
    3 C3       -1.2461     1.9113     0.0302 C.2    1 <0>      -0.2900
    4 C4       -1.2363     3.2615     0.0376 C.2    1 <0>       0.1700
    5 N5       -0.0428     3.9305     0.0245 N.am   1 <0>      -0.5200
    6 C6       -0.0320     5.3955     0.0326 C.3    1 <0>       0.3100
    7 H7       -1.0476     5.7821    -0.0523 H      1 <0>       0.1300
    8 O8        0.7890     5.8982    -1.0439 O.3    1 <0>      -0.3400
    9 C9        1.1321     7.2482    -0.6623 C.3    1 <0>       0.0500
   10 H10       0.2956     7.9206    -0.8527 H      1 <0>       0.0900
   11 C11       2.3746     7.7170    -1.4221 C.3    1 <0>       0.0800
   12 O12       2.0691     7.8258    -2.8138 O.3    1 <0>      -0.5600
   13 C13       1.4237     7.1681     0.8526 C.3    1 <0>       0.0500
   14 H14       1.0583     8.0611     1.3596 H      1 <0>       0.0800
   15 O15       2.8235     6.9994     1.0849 O.3    1 <0>      -0.5300
   16 C16       0.6375     5.9212     1.3217 C.3    1 <0>       0.0800
   17 H17      -0.1146     6.1993     2.0599 H      1 <0>       0.0900
   18 O18       1.5275     4.9414     1.8602 O.3    1 <0>      -0.5200
   19 C19       1.1209     3.2557     0.0046 C.2    1 <0>       0.7000
   20 O20       2.1700     3.8702    -0.0065 O.2    1 <0>      -0.4800
   21 N21       1.1403     1.9098     0.0014 N.am   1 <0>      -0.6600
   22 H22      -2.1811     1.3708     0.0400 H      1 <0>       0.1700
   23 H23      -2.1661     3.8107     0.0536 H      1 <0>       0.1800
   24 H24       2.6877     8.6894    -1.0418 H      1 <0>       0.0600
   25 H25       3.1798     6.9958    -1.2822 H      1 <0>       0.0700
   26 H26       2.8126     8.1190    -3.3580 H      1 <0>       0.3900
   27 H27       3.3674     7.7282     0.7561 H      1 <0>       0.3800
   28 H28       2.0205     5.2419     2.6359 H      1 <0>       0.3800
   29 H29       1.9882     1.4389    -0.0127 H      1 <0>       0.4300
@<TRIPOS>BOND
   1    1    2 2
   2    2   21 am
   3    2    3 1
   4    3    4 2
   5    3   22 1
   6    4    5 1
   7    4   23 1
   8    5    6 1
   9    5   19 am
  10    6    7 1
  11    6   16 1
  12    6    8 1
  13    8    9 1
  14    9   10 1
  15    9   11 1
  16    9   13 1
  17   11   12 1
  18   11   24 1
  19   11   25 1
  20   12   26 1
  21   13   14 1
  22   13   15 1
  23   13   16 1
  24   15   27 1
  25   16   17 1
  26   16   18 1
  27   18   28 1
  28   19   20 2
  29   19   21 am
  30   21   29 1
