@<TRIPOS>MOLECULE
ZINC000001550030
  33   35    0    0    0
SMALL
USER_CHARGES
NO_NAME
@<TRIPOS>ATOM
    1 N1       -0.0165     1.3681     0.0096 N.pl3  1 <0>      -0.8200
    2 C2        0.0021    -0.0041     0.0020 C.2    1 <0>       0.6600
    3 N3       -1.1382    -0.6578     0.0040 N.2    1 <0>      -0.5700
    4 C4       -1.1685    -1.9955    -0.0031 C.2    1 <0>       0.3300
    5 C5        0.0312    -2.7162    -0.0129 C.2    1 <0>      -0.1500
    6 N6       -0.2906    -4.0328    -0.0184 N.2    1 <0>      -0.4200
    7 C7       -1.5853    -4.1598    -0.0128 C.2    1 <0>       0.2200
    8 N8       -2.1710    -2.9271    -0.0033 N.pl3  1 <0>      -0.4500
    9 C9       -3.6099    -2.6516     0.0052 C.3    1 <0>       0.3100
   10 H10      -3.8269    -1.7691     0.6070 H      1 <0>       0.1200
   11 O11      -4.3435    -3.7943     0.4956 O.3    1 <0>      -0.3500
   12 C12      -5.6917    -3.6657     0.0139 C.3    1 <0>       0.0500
   13 H13      -6.3034    -3.1539     0.7567 H      1 <0>       0.1000
   14 C14      -6.2750    -5.0503    -0.2756 C.3    1 <0>       0.0800
   15 O15      -6.4145    -5.7738     0.9488 O.3    1 <0>      -0.5600
   16 C16      -5.6375    -2.8349    -1.2829 C.3    1 <0>       0.0400
   17 H17      -5.9782    -3.4289    -2.1310 H      1 <0>       0.0900
   18 O18      -6.4284    -1.6519    -1.1523 O.3    1 <0>      -0.5400
   19 C19      -4.1394    -2.4703    -1.4401 C.3    1 <0>       0.0800
   20 H20      -3.6413    -3.1582    -2.1233 H      1 <0>       0.0900
   21 O21      -3.9869    -1.1192    -1.8797 O.3    1 <0>      -0.5200
   22 C22       1.2511    -2.0002    -0.0145 C.2    1 <0>       0.6000
   23 O23       2.3198    -2.5868    -0.0229 O.2    1 <0>      -0.5100
   24 N24       1.2025    -0.6496    -0.0129 N.am   1 <0>      -0.6600
   25 H25       0.8168     1.8644     0.0043 H      1 <0>       0.4200
   26 H26      -0.8631     1.8416     0.0162 H      1 <0>       0.4300
   27 H27      -2.1170    -5.0999    -0.0150 H      1 <0>       0.2200
   28 H28      -7.2519    -4.9417    -0.7468 H      1 <0>       0.0700
   29 H29      -5.6073    -5.5933    -0.9444 H      1 <0>       0.0600
   30 H30      -6.7797    -6.6627     0.8409 H      1 <0>       0.3900
   31 H31      -7.3671    -1.8219    -0.9941 H      1 <0>       0.3900
   32 H32      -4.3841    -0.9391    -2.7428 H      1 <0>       0.3900
   33 H33       2.0260    -0.1371    -0.0140 H      1 <0>       0.4200
@<TRIPOS>BOND
   1    1    2 1
   2    1   25 1
   3    1   26 1
   4    2   24 1
   5    2    3 2
   6    3    4 1
   7    4    8 1
   8    4    5 2
   9    5    6 1
  10    5   22 1
  11    6    7 2
  12    7    8 1
  13    7   27 1
  14    8    9 1
  15    9   10 1
  16    9   19 1
  17    9   11 1
  18   11   12 1
  19   12   13 1
  20   12   14 1
  21   12   16 1
  22   14   15 1
  23   14   28 1
  24   14   29 1
  25   15   30 1
  26   16   17 1
  27   16   18 1
  28   16   19 1
  29   18   31 1
  30   19   20 1
  31   19   21 1
  32   21   32 1
  33   22   23 2
  34   22   24 am
  35   24   33 1
