@<TRIPOS>MOLECULE
ZINC000000599047
61    64    1     0     0
SMALL
USER_CHARGES
@<TRIPOS>ATOM
1      C1     -0.0187    1.5258    0.0104 C.3      1 ZINC000000599047   -0.1500
2      C2      0.0021   -0.0041    0.0020 C.3      1 ZINC000000599047    0.0600
3      O3      0.6817   -0.4723   -1.1926 O.3      1 ZINC000000599047   -0.3500
4      C4      0.7867   -1.8065   -1.3537 C.2      1 ZINC000000599047    0.5100
5      O5      0.3228   -2.5578   -0.5186 O.2      1 ZINC000000599047   -0.4600
6      C6      1.4630   -2.3534   -2.5411 C.ar     1 ZINC000000599047   -0.1300
7      C7      2.8427   -2.6116   -2.5162 C.ar     1 ZINC000000599047    0.1700
8      C8      3.6216   -2.3222   -1.2590 C.3      1 ZINC000000599047    0.1800
9      N9      3.6260   -3.5109   -0.4027 N.pl3    1 ZINC000000599047   -0.3800
10     C10     4.7038   -4.1388    0.0986 C.2      1 ZINC000000599047    0.2600
11     N11     4.2873   -5.1537    0.8114 N.2      1 ZINC000000599047   -0.5400
12     C12     2.9561   -5.2058    0.7890 C.2      1 ZINC000000599047    0.1900
13     N13     2.5048   -4.2173    0.0625 N.2      1 ZINC000000599047   -0.2900
14     N14     3.4691   -3.0974   -3.5569 N.ar     1 ZINC000000599047   -0.4500
15     C15     2.8344   -3.3765   -4.7036 C.ar     1 ZINC000000599047    0.1600
16     C16     3.5375   -3.8977   -5.8012 C.ar     1 ZINC000000599047   -0.1700
17     C17     2.8681   -4.1782   -6.9700 C.ar     1 ZINC000000599047    0.1500
18     O18     3.5505   -4.6829   -8.0305 O.3      1 ZINC000000599047   -0.3000
19     C19     4.9532   -4.8944   -7.8581 C.3      1 ZINC000000599047    0.0200
20     C20     1.4881   -3.9491   -7.0783 C.ar     1 ZINC000000599047    0.1300
21     O21     0.8475   -4.2338   -8.2431 O.3      1 ZINC000000599047   -0.3000
22     C22    -0.5577   -3.9783   -8.2899 C.3      1 ZINC000000599047    0.0200
23     C23     0.7828   -3.4435   -6.0247 C.ar     1 ZINC000000599047   -0.1700
24     C24     1.4409   -3.1484   -4.8221 C.ar     1 ZINC000000599047   -0.0700
25     C25     0.7334   -2.6287   -3.7113 C.ar     1 ZINC000000599047    0.0700
26     C26    -0.7207   -2.3793   -3.7810 C.ar     1 ZINC000000599047   -0.0800
27     C27    -1.2240   -1.4134   -4.6554 C.ar     1 ZINC000000599047   -0.0900
28     C28    -2.5817   -1.1818   -4.7191 C.ar     1 ZINC000000599047   -0.1800
29     C29    -3.4508   -1.9061   -3.9157 C.ar     1 ZINC000000599047    0.1200
30     O30    -4.7878   -1.6741   -3.9822 O.3      1 ZINC000000599047   -0.3000
31     C31    -5.2274   -0.6713   -4.9005 C.3      1 ZINC000000599047    0.0200
32     C32    -2.9551   -2.8717   -3.0407 C.ar     1 ZINC000000599047    0.1000
33     O33    -3.8095   -3.5798   -2.2546 O.3      1 ZINC000000599047   -0.3000
34     C34    -3.2325   -4.5531   -1.3817 C.3      1 ZINC000000599047    0.0200
35     C35    -1.5964   -3.1131   -2.9763 C.ar     1 ZINC000000599047   -0.1400
36     H36     1.0039    1.9031    0.0027 H        1 ZINC000000599047    0.0700
37     H37    -0.5459    1.8868   -0.8726 H        1 ZINC000000599047    0.0700
38     H38    -0.5289    1.8773    0.9072 H        1 ZINC000000599047    0.0800
39     H39     0.5293   -0.3651    0.8851 H        1 ZINC000000599047    0.0700
40     H40    -1.0205   -0.3814    0.0098 H        1 ZINC000000599047    0.0700
41     H41     4.6466   -2.0582   -1.5193 H        1 ZINC000000599047    0.1300
42     H42     3.1568   -1.4925   -0.7264 H        1 ZINC000000599047    0.1000
43     H43     5.7338   -3.8553   -0.0601 H        1 ZINC000000599047    0.2200
44     H44     2.3483   -5.9428    1.2929 H        1 ZINC000000599047    0.2200
45     H45     4.6000   -4.0774   -5.7285 H        1 ZINC000000599047    0.1600
46     H46     5.3753   -5.2992   -8.7780 H        1 ZINC000000599047    0.1100
47     H47     5.4373   -3.9466   -7.6225 H        1 ZINC000000599047    0.0600
48     H48     5.1169   -5.5987   -7.0425 H        1 ZINC000000599047    0.0600
49     H49    -1.0606   -4.5718   -7.5265 H        1 ZINC000000599047    0.0600
50     H50    -0.7408   -2.9196   -8.1061 H        1 ZINC000000599047    0.0600
51     H51    -0.9436   -4.2484   -9.2729 H        1 ZINC000000599047    0.1100
52     H52    -0.2792   -3.2704   -6.1174 H        1 ZINC000000599047    0.1500
53     H53    -0.5497   -0.8478   -5.2813 H        1 ZINC000000599047    0.1300
54     H54    -2.9696   -0.4347   -5.3957 H        1 ZINC000000599047    0.1400
55     H55    -4.7769    0.2855   -4.6367 H        1 ZINC000000599047    0.0600
56     H56    -4.9274   -0.9477   -5.9113 H        1 ZINC000000599047    0.0600
57     H57    -6.3131   -0.5869   -4.8540 H        1 ZINC000000599047    0.1000
58     H58    -4.0219   -5.0444   -0.8129 H        1 ZINC000000599047    0.1000
59     H59    -2.6933   -5.2950   -1.9707 H        1 ZINC000000599047    0.0600
60     H60    -2.5422   -4.0621   -0.6958 H        1 ZINC000000599047    0.0600
61     H61    -1.2111   -3.8611   -2.2992 H        1 ZINC000000599047    0.1400
@<TRIPOS>BOND
1     1     2     1
2     1     36    1
3     1     37    1
4     1     38    1
5     2     3     1
6     2     39    1
7     2     40    1
8     3     4     1
9     4     5     2
10    4     6     1
11    6     25    ar
12    6     7     ar
13    7     8     1
14    7     14    ar
15    8     9     1
16    8     41    1
17    8     42    1
18    9     13    1
19    9     10    1
20    10    11    2
21    10    43    1
22    11    12    1
23    12    13    2
24    12    44    1
25    14    15    ar
26    15    24    ar
27    15    16    ar
28    16    17    ar
29    16    45    1
30    17    18    1
31    17    20    ar
32    18    19    1
33    19    46    1
34    19    47    1
35    19    48    1
36    20    21    1
37    20    23    ar
38    21    22    1
39    22    49    1
40    22    50    1
41    22    51    1
42    23    24    ar
43    23    52    1
44    24    25    ar
45    25    26    1
46    26    35    ar
47    26    27    ar
48    27    28    ar
49    27    53    1
50    28    29    ar
51    28    54    1
52    29    30    1
53    29    32    ar
54    30    31    1
55    31    55    1
56    31    56    1
57    31    57    1
58    32    33    1
59    32    35    ar
60    33    34    1
61    34    58    1
62    34    59    1
63    34    60    1
64    35    61    1
@<TRIPOS>SUBSTRUCTURE
1   ZINC000000599047 1     RESIDUE    1   A     ZIN   1
