@<TRIPOS>MOLECULE
ZINC000000596753
63    66    1     0     0
SMALL
USER_CHARGES
@<TRIPOS>ATOM
1      C1     -0.5223    1.3401    2.1802 C.3      1 ZINC000000596753    0.0300
2      O2     -0.3782   -0.0815    2.2007 O.3      1 ZINC000000596753   -0.3500
3      C3      0.3706   -0.6356    1.2241 C.2      1 ZINC000000596753    0.5300
4      O4      0.8869    0.0708    0.3783 O.2      1 ZINC000000596753   -0.4900
5      C5      0.5552   -2.0362    1.1838 C.2      1 ZINC000000596753   -0.2400
6      C6      1.3805   -2.6169    2.0731 C.2      1 ZINC000000596753    0.2000
7      C7      2.0849   -1.7682    3.1001 C.3      1 ZINC000000596753   -0.1300
8      N8      1.5875   -3.9680    2.0564 N.pl3    1 ZINC000000596753   -0.6300
9      C9      1.2634   -4.7037    0.9422 C.2      1 ZINC000000596753    0.2200
10     C10     1.8465   -6.0819    0.7647 C.3      1 ZINC000000596753   -0.1200
11     C11     0.4345   -4.2106    0.0116 C.2      1 ZINC000000596753   -0.1600
12     C12     0.1157   -5.0212   -1.1635 C.2      1 ZINC000000596753    0.2500
13     N13     0.5624   -6.2417   -1.4308 N.2      1 ZINC000000596753   -0.4700
14     C14     0.0069   -6.5775   -2.6040 C.2      1 ZINC000000596753    0.1900
15     C15     0.2030   -7.8776   -3.3405 C.3      1 ZINC000000596753    0.1400
16     N16    -0.8179   -8.8426   -2.9108 N.3      1 ZINC000000596753   -0.5300
17     C17    -2.1595   -8.4074   -3.3213 C.3      1 ZINC000000596753    0.0200
18     C18    -0.5206  -10.1867   -3.4236 C.3      1 ZINC000000596753    0.1000
19     C19    -1.4379  -11.1879   -2.7700 C.ar     1 ZINC000000596753   -0.0800
20     C20    -1.0626  -11.8012   -1.5893 C.ar     1 ZINC000000596753   -0.1000
21     C21    -1.9040  -12.7196   -0.9897 C.ar     1 ZINC000000596753   -0.1200
22     C22    -3.1209  -13.0244   -1.5706 C.ar     1 ZINC000000596753   -0.1200
23     C23    -3.4965  -12.4104   -2.7507 C.ar     1 ZINC000000596753   -0.1200
24     C24    -2.6570  -11.4888   -3.3481 C.ar     1 ZINC000000596753   -0.1100
25     N25    -0.7325   -5.5799   -2.9919 N.2      1 ZINC000000596753   -0.3800
26     O26    -0.6921   -4.6782   -2.1820 O.3      1 ZINC000000596753    0.0800
27     C27    -0.1795   -2.8447    0.1525 C.3      1 ZINC000000596753    0.0900
28     H28    -0.1264   -2.3270   -0.8052 H        1 ZINC000000596753    0.1000
29     C29    -1.6235   -2.9895    0.5585 C.ar     1 ZINC000000596753   -0.0800
30     C30    -1.9481   -3.6243    1.7426 C.ar     1 ZINC000000596753   -0.0400
31     C31    -3.2729   -3.7572    2.1151 C.ar     1 ZINC000000596753   -0.1100
32     C32    -4.2727   -3.2548    1.3037 C.ar     1 ZINC000000596753   -0.0500
33     C33    -3.9479   -2.6190    0.1197 C.ar     1 ZINC000000596753   -0.0400
34     N34    -5.0186   -2.0814   -0.7495 N.pl3    1 ZINC000000596753    0.0300
35     O35    -6.1858   -2.1992   -0.4218 O.2      1 ZINC000000596753   -0.1600
36     O36    -4.7325   -1.5213   -1.7926 O.2      1 ZINC000000596753   -0.1600
37     C37    -2.6233   -2.4824   -0.2506 C.ar     1 ZINC000000596753   -0.0400
38     H38    -0.9903    1.6444    1.2440 H        1 ZINC000000596753    0.0600
39     H39    -1.1461    1.6542    3.0171 H        1 ZINC000000596753    0.1000
40     H40     0.4595    1.8060    2.2639 H        1 ZINC000000596753    0.0600
41     H41     1.4471   -1.6544    3.9766 H        1 ZINC000000596753    0.1000
42     H42     3.0189   -2.2493    3.3903 H        1 ZINC000000596753    0.0900
43     H43     2.2981   -0.7869    2.6760 H        1 ZINC000000596753    0.0900
44     H44     1.9648   -4.4088    2.8337 H        1 ZINC000000596753    0.4300
45     H45     2.4918   -6.3152    1.6116 H        1 ZINC000000596753    0.0700
46     H46     1.0401   -6.8133    0.7100 H        1 ZINC000000596753    0.1000
47     H47     2.4292   -6.1141   -0.1558 H        1 ZINC000000596753    0.1000
48     H48     0.1115   -7.7050   -4.4128 H        1 ZINC000000596753    0.0700
49     H49     1.1939   -8.2744   -3.1196 H        1 ZINC000000596753    0.1100
50     H50    -2.1967   -8.3195   -4.4071 H        1 ZINC000000596753    0.0300
51     H51    -2.8960   -9.1397   -2.9907 H        1 ZINC000000596753    0.0800
52     H52    -2.3814   -7.4400   -2.8707 H        1 ZINC000000596753    0.0700
53     H53    -0.6721  -10.2056   -4.5029 H        1 ZINC000000596753    0.0500
54     H54     0.5149  -10.4410   -3.1976 H        1 ZINC000000596753    0.0900
55     H55    -0.1120  -11.5632   -1.1355 H        1 ZINC000000596753    0.1200
56     H56    -1.6106  -13.1993   -0.0677 H        1 ZINC000000596753    0.1200
57     H57    -3.7779  -13.7424   -1.1025 H        1 ZINC000000596753    0.1200
58     H58    -4.4470  -12.6487   -3.2047 H        1 ZINC000000596753    0.1200
59     H59    -2.9504  -11.0091   -4.2701 H        1 ZINC000000596753    0.1200
60     H60    -1.1669   -4.0169    2.3766 H        1 ZINC000000596753    0.1400
61     H61    -3.5266   -4.2539    3.0399 H        1 ZINC000000596753    0.1500
62     H62    -5.3076   -3.3593    1.5943 H        1 ZINC000000596753    0.1500
63     H63    -2.3696   -1.9857   -1.1754 H        1 ZINC000000596753    0.1500
@<TRIPOS>BOND
1     1     2     1
2     1     38    1
3     1     39    1
4     1     40    1
5     2     3     1
6     3     4     2
7     3     5     1
8     5     27    1
9     5     6     2
10    6     7     1
11    6     8     1
12    7     41    1
13    7     42    1
14    7     43    1
15    8     9     1
16    8     44    1
17    9     10    1
18    9     11    2
19    10    45    1
20    10    46    1
21    10    47    1
22    11    12    1
23    11    27    1
24    12    26    1
25    12    13    2
26    13    14    1
27    14    15    1
28    14    25    2
29    15    16    1
30    15    48    1
31    15    49    1
32    16    17    1
33    16    18    1
34    17    50    1
35    17    51    1
36    17    52    1
37    18    19    1
38    18    53    1
39    18    54    1
40    19    24    ar
41    19    20    ar
42    20    21    ar
43    20    55    1
44    21    22    ar
45    21    56    1
46    22    23    ar
47    22    57    1
48    23    24    ar
49    23    58    1
50    24    59    1
51    25    26    1
52    27    28    1
53    27    29    1
54    29    37    ar
55    29    30    ar
56    30    31    ar
57    30    60    1
58    31    32    ar
59    31    61    1
60    32    33    ar
61    32    62    1
62    33    34    1
63    33    37    ar
64    34    35    2
65    34    36    2
66    37    63    1
@<TRIPOS>SUBSTRUCTURE
1   ZINC000000596753 1     RESIDUE    1   A     ZIN   1
