@<TRIPOS>MOLECULE
ZINC000014953650
66    70    1     0     0
SMALL
USER_CHARGES
@<TRIPOS>ATOM
1      C1     -0.0309    1.4305    0.0014 C.3      1 ZINC000014953650    0.0300
2      O2     -0.0136    0.0016   -0.0024 O.3      1 ZINC000014953650   -0.3100
3      C3      0.5985   -0.6053   -1.0532 C.ar     1 ZINC000014953650    0.1400
4      C4      1.1739    0.1588   -2.0542 C.ar     1 ZINC000014953650   -0.1700
5      C5      1.8013   -0.4684   -3.1312 C.ar     1 ZINC000014953650   -0.0300
6      C6      2.4185    0.3405   -4.2039 C.2      1 ZINC000014953650    0.5600
7      O7      2.3800    1.5542   -4.1486 O.2      1 ZINC000014953650   -0.6300
8      N8      3.0239   -0.2678   -5.2431 N.pl3    1 ZINC000014953650   -1.1100
9      S9      3.7152    0.6382   -6.4446 S.o2     1 ZINC000014953650    2.6400
10     O10     2.6503    1.3078   -7.1056 O.2      1 ZINC000014953650   -1.0200
11     O11     4.8129    1.3192   -5.8525 O.2      1 ZINC000014953650   -1.0200
12     C12     4.4002   -0.4852   -7.6165 C.ar     1 ZINC000014953650   -0.6200
13     C13     5.7029   -0.9248   -7.4729 C.ar     1 ZINC000014953650   -0.0200
14     C14     6.2403   -1.8061   -8.3923 C.ar     1 ZINC000014953650   -0.1500
15     C15     5.4749   -2.2483   -9.4550 C.ar     1 ZINC000014953650   -0.0800
16     C16     4.1719   -1.8094   -9.5982 C.ar     1 ZINC000014953650   -0.1500
17     C17     3.6331   -0.9314   -8.6764 C.ar     1 ZINC000014953650   -0.0200
18     C18     1.8444   -1.8620   -3.1920 C.ar     1 ZINC000014953650   -0.1000
19     C19     1.2677   -2.6140   -2.1888 C.ar     1 ZINC000014953650   -0.0800
20     C20     0.6514   -1.9912   -1.1195 C.ar     1 ZINC000014953650   -0.1500
21     C21     0.0244   -2.8195   -0.0278 C.3      1 ZINC000014953650    0.2000
22     N22    -1.4045   -2.9891   -0.3030 N.pl3    1 ZINC000014953650   -0.3900
23     N23    -2.4215   -2.1316    0.1290 N.2      1 ZINC000014953650   -0.2300
24     C24    -3.5780   -2.5651   -0.2840 C.2      1 ZINC000014953650    0.0600
25     C25    -3.3500   -3.7903   -1.0439 C.ar     1 ZINC000014953650   -0.1900
26     C26    -4.1904   -4.6852   -1.7161 C.ar     1 ZINC000014953650   -0.0200
27     C27    -3.6598   -5.7693   -2.3501 C.ar     1 ZINC000014953650   -0.1600
28     C28    -2.2830   -5.9967   -2.3352 C.ar     1 ZINC000014953650    0.2000
29     N29    -1.7570   -7.1152   -2.9913 N.am     1 ZINC000014953650   -0.6500
30     C30    -2.4487   -8.2718   -3.0115 C.2      1 ZINC000014953650    0.6500
31     O31    -3.5644   -8.3209   -2.5328 O.2      1 ZINC000014953650   -0.5500
32     O32    -1.9033   -9.3729   -3.5622 O.3      1 ZINC000014953650   -0.3600
33     C33    -2.7055  -10.5831   -3.5487 C.3      1 ZINC000014953650    0.1000
34     C34    -3.4729  -10.7397   -4.8850 C.3      1 ZINC000014953650   -0.1400
35     C35    -3.7426  -12.2636   -4.9477 C.3      1 ZINC000014953650   -0.1200
36     C36    -2.4594  -12.8989   -4.3734 C.3      1 ZINC000014953650   -0.1200
37     C37    -1.8001  -11.8304   -3.4839 C.3      1 ZINC000014953650   -0.1200
38     C38    -1.4347   -5.1253   -1.6776 C.ar     1 ZINC000014953650   -0.1600
39     C39    -1.9587   -4.0105   -1.0302 C.ar     1 ZINC000014953650    0.1500
40     H40     0.9923    1.8063    0.0015 H        1 ZINC000014953650    0.0500
41     H41    -0.5498    1.7899   -0.8873 H        1 ZINC000014953650    0.0500
42     H42    -0.5484    1.7853    0.8927 H        1 ZINC000014953650    0.1000
43     H43     1.1370    1.2369   -2.0018 H        1 ZINC000014953650    0.1400
44     H44     6.3010   -0.5793   -6.6425 H        1 ZINC000014953650    0.1400
45     H45     7.2583   -2.1490   -8.2804 H        1 ZINC000014953650    0.1300
46     H46     5.8950   -2.9363  -10.1737 H        1 ZINC000014953650    0.1200
47     H47     3.5740   -2.1546  -10.4287 H        1 ZINC000014953650    0.1300
48     H48     2.6151   -0.5885   -8.7882 H        1 ZINC000014953650    0.1400
49     H49     2.3287   -2.3518   -4.0239 H        1 ZINC000014953650    0.1500
50     H50     1.3014   -3.6924   -2.2372 H        1 ZINC000014953650    0.1200
51     H51     0.5058   -3.7967    0.0089 H        1 ZINC000014953650    0.0900
52     H52     0.1526   -2.3152    0.9300 H        1 ZINC000014953650    0.1000
53     H53    -4.5352   -2.1011   -0.0972 H        1 ZINC000014953650    0.1900
54     H54    -5.2571   -4.5174   -1.7322 H        1 ZINC000014953650    0.1300
55     H55    -4.3106   -6.4582   -2.8681 H        1 ZINC000014953650    0.1400
56     H56    -0.8945   -7.0582   -3.4315 H        1 ZINC000014953650    0.4200
57     H57    -3.3987  -10.5708   -2.7076 H        1 ZINC000014953650    0.1000
58     H58    -4.4093  -10.1823   -4.8604 H        1 ZINC000014953650    0.0800
59     H59    -2.8549  -10.4219   -5.7248 H        1 ZINC000014953650    0.0800
60     H60    -4.6049  -12.5240   -4.3338 H        1 ZINC000014953650    0.0700
61     H61    -3.8972  -12.5816   -5.9787 H        1 ZINC000014953650    0.0700
62     H62    -2.7114  -13.7766   -3.7782 H        1 ZINC000014953650    0.0700
63     H63    -1.7859  -13.1776   -5.1838 H        1 ZINC000014953650    0.0700
64     H64    -0.8065  -11.5905   -3.8626 H        1 ZINC000014953650    0.0800
65     H65    -1.7320  -12.1895   -2.4570 H        1 ZINC000014953650    0.0800
66     H66    -0.3701   -5.3068   -1.6698 H        1 ZINC000014953650    0.1300
@<TRIPOS>BOND
1     1     2     1
2     1     40    1
3     1     41    1
4     1     42    1
5     2     3     1
6     3     20    ar
7     3     4     ar
8     4     5     ar
9     4     43    1
10    5     6     1
11    5     18    ar
12    6     7     2
13    6     8     1
14    8     9     1
15    9     10    2
16    9     11    2
17    9     12    1
18    12    17    ar
19    12    13    ar
20    13    14    ar
21    13    44    1
22    14    15    ar
23    14    45    1
24    15    16    ar
25    15    46    1
26    16    17    ar
27    16    47    1
28    17    48    1
29    18    19    ar
30    18    49    1
31    19    20    ar
32    19    50    1
33    20    21    1
34    21    22    1
35    21    51    1
36    21    52    1
37    22    39    1
38    22    23    1
39    23    24    2
40    24    25    1
41    24    53    1
42    25    39    ar
43    25    26    ar
44    26    27    ar
45    26    54    1
46    27    28    ar
47    27    55    1
48    28    29    1
49    28    38    ar
50    29    30    am
51    29    56    1
52    30    31    2
53    30    32    1
54    32    33    1
55    33    37    1
56    33    34    1
57    33    57    1
58    34    35    1
59    34    58    1
60    34    59    1
61    35    36    1
62    35    60    1
63    35    61    1
64    36    37    1
65    36    62    1
66    36    63    1
67    37    64    1
68    37    65    1
69    38    39    ar
70    38    66    1
@<TRIPOS>SUBSTRUCTURE
1   ZINC000014953650 1     RESIDUE    1   A     ZIN   1
