@<TRIPOS>MOLECULE
ZINC000000003857
28    31    1     0     0
SMALL
USER_CHARGES
@<TRIPOS>ATOM
1      O1      0.0021   -0.0041    0.0020 O.2      1 ZINC000000003857   -0.6100
2      C2     -0.0144    1.2112    0.0087 C.2      1 ZINC000000003857    0.6600
3      N3     -1.1371    1.9409    0.0291 N.pl3    1 ZINC000000003857   -0.7100
4      C4     -0.8696    3.2642    0.0331 C.2      1 ZINC000000003857    0.5100
5      O5     -1.6688    4.1756    0.0504 O.2      1 ZINC000000003857   -0.5400
6      C6      0.6356    3.3674    0.0120 C.3      1 ZINC000000003857    0.1500
7      N7      1.0953    1.9761    0.0022 N.am     1 ZINC000000003857   -0.7500
8      C8      1.1494    4.1052    1.2154 C.ar     1 ZINC000000003857   -0.0600
9      C9      1.0309    3.8812    2.5705 C.ar     1 ZINC000000003857   -0.0800
10     C10     1.6224    4.7483    3.4721 C.ar     1 ZINC000000003857   -0.1100
11     C11     2.3348    5.8429    3.0170 C.ar     1 ZINC000000003857   -0.1200
12     C12     2.4601    6.0756    1.6630 C.ar     1 ZINC000000003857   -0.1000
13     C13     1.8674    5.2054    0.7475 C.ar     1 ZINC000000003857   -0.0500
14     C14     1.8458    5.2144   -0.7370 C.ar     1 ZINC000000003857   -0.0600
15     C15     2.4106    6.0973   -1.6583 C.ar     1 ZINC000000003857   -0.0700
16     C16     2.2454    5.8832   -3.0107 C.ar     1 ZINC000000003857   -0.1600
17     C17     1.5189    4.7925   -3.4597 C.ar     1 ZINC000000003857    0.1000
18     F18     1.3605    4.5867   -4.7855 F        1 ZINC000000003857   -0.1400
19     C19     0.9549    3.9120   -2.5501 C.ar     1 ZINC000000003857   -0.1200
20     C20     1.1147    4.1193   -1.1970 C.ar     1 ZINC000000003857   -0.0300
21     H21     2.0147    1.6673   -0.0116 H        1 ZINC000000003857    0.4000
22     H22     0.4751    3.0275    2.9291 H        1 ZINC000000003857    0.1200
23     H23     1.5274    4.5702    4.5331 H        1 ZINC000000003857    0.1300
24     H24     2.7941    6.5179    3.7239 H        1 ZINC000000003857    0.1200
25     H25     3.0171    6.9316    1.3116 H        1 ZINC000000003857    0.1200
26     H26     2.9772    6.9490   -1.3121 H        1 ZINC000000003857    0.1300
27     H27     2.6834    6.5681   -3.7217 H        1 ZINC000000003857    0.1400
28     H28     0.3890    3.0622   -2.9022 H        1 ZINC000000003857    0.1400
@<TRIPOS>BOND
1     1     2     2
2     2     7     am
3     2     3     1
4     3     4     1
5     4     5     2
6     4     6     1
7     6     20    1
8     6     7     1
9     6     8     1
10    7     21    1
11    8     13    ar
12    8     9     ar
13    9     10    ar
14    9     22    1
15    10    11    ar
16    10    23    1
17    11    12    ar
18    11    24    1
19    12    13    ar
20    12    25    1
21    13    14    1
22    14    20    ar
23    14    15    ar
24    15    16    ar
25    15    26    1
26    16    17    ar
27    16    27    1
28    17    18    1
29    17    19    ar
30    19    20    ar
31    19    28    1
@<TRIPOS>SUBSTRUCTURE
1   ZINC000000003857 1     RESIDUE    1   A     ZIN   1
