@<TRIPOS>MOLECULE
ZINC000242548680
64    66    1     0     0
SMALL
USER_CHARGES
@<TRIPOS>ATOM
1      C1      1.6870    1.7747   -1.2450 C.3      1 ZINC000242548680    0.0300
2      O2      1.8089    0.3538   -1.1551 O.3      1 ZINC000242548680   -0.3800
3      C3      0.5646   -0.3262   -0.9773 C.3      1 ZINC000242548680    0.1000
4      C4      0.8207   -1.7973   -0.7739 C.2      1 ZINC000242548680   -0.1200
5      C5      0.3322   -2.3234    0.3406 C.2      1 ZINC000242548680    0.1500
6      C6     -0.3646   -1.4645    1.3151 C.2      1 ZINC000242548680    0.5200
7      O7      0.2445   -0.9952    2.2560 O.2      1 ZINC000242548680   -0.4500
8      O8     -1.6772   -1.1996    1.1624 O.3      1 ZINC000242548680   -0.3400
9      C9     -2.2719   -0.2565    2.0926 C.3      1 ZINC000242548680    0.2800
10     H10    -3.3184   -0.0994    1.8313 H        1 ZINC000242548680    0.1400
11     C11    -1.5221    1.0751    2.0180 C.3      1 ZINC000242548680   -0.1900
12     O12    -2.1842   -0.7865    3.4415 O.3      1 ZINC000242548680   -0.3300
13     C13    -2.9305   -1.8702    3.7217 C.2      1 ZINC000242548680    0.6000
14     O14    -3.5678   -2.4125    2.8418 O.2      1 ZINC000242548680   -0.5300
15     O15    -2.9707   -2.3531    4.9767 O.3      1 ZINC000242548680   -0.3200
16     C16    -3.7968   -3.5250    5.2060 C.3      1 ZINC000242548680    0.1000
17     C17    -3.2031   -4.3519    6.3482 C.3      1 ZINC000242548680   -0.1500
18     C18    -5.2141   -3.0850    5.5781 C.3      1 ZINC000242548680   -0.1700
19     N19     0.4761   -3.6932    0.5943 N.am     1 ZINC000242548680   -0.5700
20     C20    -0.0615   -4.7058    1.2629 C.2      1 ZINC000242548680    0.5200
21     O21    -0.7995   -4.7456    2.2247 O.2      1 ZINC000242548680   -0.4500
22     C22     0.5597   -5.7920    0.4162 C.3      1 ZINC000242548680    0.1500
23     H23     1.0991   -6.5515    0.9821 H        1 ZINC000242548680    0.1700
24     N24    -0.3320   -6.3492   -0.6040 N.am     1 ZINC000242548680   -0.6900
25     C25    -0.8861   -7.5644   -0.4236 C.2      1 ZINC000242548680    0.5900
26     O26    -0.6461   -8.1979    0.5851 O.2      1 ZINC000242548680   -0.4600
27     C27    -1.7881   -8.1280   -1.4554 C.2      1 ZINC000242548680    0.1900
28     N28    -2.0455   -7.4488   -2.5370 N.2      1 ZINC000242548680   -0.2800
29     O29    -3.0210   -7.9157   -3.4510 O.3      1 ZINC000242548680   -0.2100
30     C30    -3.2000   -7.0729   -4.5910 C.3      1 ZINC000242548680    0.0300
31     C31    -2.3960   -9.4614   -1.2575 C.2      1 ZINC000242548680    0.1000
32     C32    -3.0440  -10.1132   -2.2430 C.2      1 ZINC000242548680   -0.2300
33     S33    -3.6132  -11.6539   -1.6054 S.3      1 ZINC000242548680    0.0600
34     C34    -2.9107  -11.2691   -0.0374 C.2      1 ZINC000242548680    0.3500
35     N35    -2.9584  -12.0841    1.0811 N.pl3    1 ZINC000242548680   -0.8100
36     N36    -2.3376  -10.1078   -0.0926 N.2      1 ZINC000242548680   -0.5000
37     C37     1.4210   -4.6375   -0.0645 C.3      1 ZINC000242548680    0.1200
38     H38     2.4330   -4.6289    0.3403 H        1 ZINC000242548680    0.1600
39     S39     1.3449   -4.2966   -1.8550 S.3      1 ZINC000242548680   -0.2000
40     C40     1.5885   -2.4838   -1.8558 C.3      1 ZINC000242548680   -0.0300
41     H41     1.1294    2.0354   -2.1446 H        1 ZINC000242548680    0.0500
42     H42     1.1589    2.1503   -0.3686 H        1 ZINC000242548680    0.0400
43     H43     2.6798    2.2224   -1.2904 H        1 ZINC000242548680    0.0900
44     H44     0.0515    0.0774   -0.1044 H        1 ZINC000242548680    0.0500
45     H45    -0.0565   -0.1844   -1.8617 H        1 ZINC000242548680    0.0800
46     H46    -1.9185    1.7578    2.7695 H        1 ZINC000242548680    0.1000
47     H47    -0.4616    0.9058    2.2042 H        1 ZINC000242548680    0.1000
48     H48    -1.6521    1.5103    1.0271 H        1 ZINC000242548680    0.1000
49     H49    -3.8301   -4.1291    4.2993 H        1 ZINC000242548680    0.0900
50     H50    -3.1697   -3.7479    7.2549 H        1 ZINC000242548680    0.0700
51     H51    -3.8232   -5.2317    6.5203 H        1 ZINC000242548680    0.0900
52     H52    -2.1933   -4.6654    6.0831 H        1 ZINC000242548680    0.0700
53     H53    -5.6370   -2.4959    4.7644 H        1 ZINC000242548680    0.0600
54     H54    -5.8342   -3.9647    5.7502 H        1 ZINC000242548680    0.0800
55     H55    -5.1807   -2.4809    6.4848 H        1 ZINC000242548680    0.0700
56     H56    -0.5236   -5.8434   -1.4092 H        1 ZINC000242548680    0.4200
57     H57    -3.5138   -6.0815   -4.2643 H        1 ZINC000242548680    0.0600
58     H58    -2.2595   -6.9950   -5.1364 H        1 ZINC000242548680    0.0600
59     H59    -3.9632   -7.4995   -5.2420 H        1 ZINC000242548680    0.1000
60     H60    -3.1900   -9.7527   -3.2506 H        1 ZINC000242548680    0.2000
61     H61    -3.4062  -12.9434    1.0363 H        1 ZINC000242548680    0.4200
62     H62    -2.5441  -11.7958    1.9093 H        1 ZINC000242548680    0.4200
63     H63     1.2895   -2.0870   -2.8260 H        1 ZINC000242548680    0.1400
64     H64     2.6453   -2.2687   -1.6978 H        1 ZINC000242548680    0.1200
@<TRIPOS>BOND
1     1     2     1
2     1     41    1
3     1     42    1
4     1     43    1
5     2     3     1
6     3     4     1
7     3     44    1
8     3     45    1
9     4     40    1
10    4     5     2
11    5     6     1
12    5     19    1
13    6     7     2
14    6     8     1
15    8     9     1
16    9     10    1
17    9     11    1
18    9     12    1
19    11    46    1
20    11    47    1
21    11    48    1
22    12    13    1
23    13    14    2
24    13    15    1
25    15    16    1
26    16    17    1
27    16    18    1
28    16    49    1
29    17    50    1
30    17    51    1
31    17    52    1
32    18    53    1
33    18    54    1
34    18    55    1
35    19    37    1
36    19    20    am
37    20    21    2
38    20    22    1
39    22    23    1
40    22    24    1
41    22    37    1
42    24    25    am
43    24    56    1
44    25    26    2
45    25    27    1
46    27    28    2
47    27    31    1
48    28    29    1
49    29    30    1
50    30    57    1
51    30    58    1
52    30    59    1
53    31    36    1
54    31    32    2
55    32    33    1
56    32    60    1
57    33    34    1
58    34    35    1
59    34    36    2
60    35    61    1
61    35    62    1
62    37    38    1
63    37    39    1
64    39    40    1
65    40    63    1
66    40    64    1
@<TRIPOS>SUBSTRUCTURE
1   ZINC000242548680 1     RESIDUE    1   A     ZIN   1
