@<TRIPOS>MOLECULE
ZINC000000001560
39    40    1     0     0
SMALL
USER_CHARGES
@<TRIPOS>ATOM
1      C1     -1.0164   -0.4863    0.4677 C.3      1 ZINC000000001560   -0.1500
2      C2      0.4218   -0.5945   -0.0429 C.3      1 ZINC000000001560    0.0500
3      N3      0.7197    0.5504   -0.9138 N.3      1 ZINC000000001560   -0.5300
4      C4      2.1659    0.6801   -1.1366 C.3      1 ZINC000000001560    0.0400
5      C5      2.8551    1.0367    0.1820 C.3      1 ZINC000000001560   -0.1500
6      C6     -0.0019    0.4438   -2.1888 C.3      1 ZINC000000001560    0.0300
7      C7      0.0049    1.8017   -2.8938 C.3      1 ZINC000000001560    0.1400
8      N8     -0.8054    1.7237   -4.1118 N.pl3    1 ZINC000000001560   -0.5400
9      C9     -0.3799    1.4729   -5.4013 C.2      1 ZINC000000001560    0.4700
10     N10     0.8425    1.2526   -5.7982 N.2      1 ZINC000000001560   -0.7100
11     O11    -1.4911    1.5025   -6.1647 O.3      1 ZINC000000001560   -0.0300
12     N12    -2.4699    1.7322   -5.4927 N.2      1 ZINC000000001560   -0.3400
13     C13    -2.1797    1.8788   -4.2359 C.2      1 ZINC000000001560    0.2800
14     C14    -3.1342    2.1676   -3.1412 C.ar     1 ZINC000000001560   -0.0400
15     C15    -2.7071    2.1376   -1.8140 C.ar     1 ZINC000000001560   -0.1100
16     C16    -3.6011    2.4081   -0.7982 C.ar     1 ZINC000000001560   -0.1100
17     C17    -4.9187    2.7080   -1.0943 C.ar     1 ZINC000000001560   -0.1000
18     C18    -5.3484    2.7388   -2.4089 C.ar     1 ZINC000000001560   -0.1200
19     C19    -4.4623    2.4762   -3.4336 C.ar     1 ZINC000000001560   -0.0700
20     H20    -1.1378    0.4476    1.0164 H        1 ZINC000000001560    0.0700
21     H21    -1.7043   -0.5031   -0.3777 H        1 ZINC000000001560    0.0500
22     H22    -1.2317   -1.3263    1.1281 H        1 ZINC000000001560    0.0600
23     H23     1.1087   -0.5957    0.8034 H        1 ZINC000000001560    0.0800
24     H24     0.5385   -1.5200   -0.6069 H        1 ZINC000000001560    0.0400
25     H25     2.5621   -0.2642   -1.5099 H        1 ZINC000000001560    0.0400
26     H26     2.3517    1.4667   -1.8680 H        1 ZINC000000001560    0.0800
27     H27     3.9282    1.1329    0.0167 H        1 ZINC000000001560    0.0600
28     H28     2.4589    1.9810    0.5554 H        1 ZINC000000001560    0.0600
29     H29     2.6693    0.2502    0.9134 H        1 ZINC000000001560    0.0600
30     H30     0.4867   -0.2967   -2.8221 H        1 ZINC000000001560    0.0500
31     H31    -1.0308    0.1379   -1.9995 H        1 ZINC000000001560    0.0900
32     H32    -0.4111    2.5585   -2.2286 H        1 ZINC000000001560    0.1100
33     H33     1.0284    2.0705   -3.1548 H        1 ZINC000000001560    0.1100
34     H34     1.0254    1.0867   -6.7363 H        1 ZINC000000001560    0.3600
35     H35    -1.6788    1.9029   -1.5816 H        1 ZINC000000001560    0.1500
36     H36    -3.2715    2.3852    0.2300 H        1 ZINC000000001560    0.1300
37     H37    -5.6148    2.9187   -0.2959 H        1 ZINC000000001560    0.1300
38     H38    -6.3784    2.9732   -2.6338 H        1 ZINC000000001560    0.1300
39     H39    -4.7989    2.5006   -4.4596 H        1 ZINC000000001560    0.1400
@<TRIPOS>BOND
1     1     2     1
2     1     20    1
3     1     21    1
4     1     22    1
5     2     3     1
6     2     23    1
7     2     24    1
8     3     4     1
9     3     6     1
10    4     5     1
11    4     25    1
12    4     26    1
13    5     27    1
14    5     28    1
15    5     29    1
16    6     7     1
17    6     30    1
18    6     31    1
19    7     8     1
20    7     32    1
21    7     33    1
22    8     13    1
23    8     9     1
24    9     10    2
25    9     11    1
26    10    34    1
27    11    12    1
28    12    13    2
29    13    14    1
30    14    19    ar
31    14    15    ar
32    15    16    ar
33    15    35    1
34    16    17    ar
35    16    36    1
36    17    18    ar
37    17    37    1
38    18    19    ar
39    18    38    1
40    19    39    1
@<TRIPOS>SUBSTRUCTURE
1   ZINC000000001560 1     RESIDUE    1   A     ZIN   1
