@<TRIPOS>MOLECULE
ZINC000001550770
57    59    1     0     0
SMALL
USER_CHARGES
@<TRIPOS>ATOM
1      C1     -0.8392    4.0405    3.3039 C.3      1 ZINC000001550770   -0.0900
2      C2     -1.3994    2.8605    2.5523 C.2      1 ZINC000001550770   -0.0900
3      C3     -1.0452    1.5010    2.9571 C.2      1 ZINC000001550770   -0.1000
4      C4     -0.2254    1.3050    3.9926 C.2      1 ZINC000001550770   -0.1400
5      C5      0.1397   -0.0963    4.4098 C.3      1 ZINC000001550770   -0.1000
6      H6     -0.5443   -0.8783    4.0799 H        1 ZINC000001550770    0.1100
7      C7      0.8128   -0.2751    5.7721 C.3      1 ZINC000001550770   -0.1600
8      C8      1.6273   -0.4454    4.4873 C.3      1 ZINC000001550770   -0.0800
9      C9      2.0411   -1.8655    4.0962 C.3      1 ZINC000001550770   -0.1100
10     C10     2.6154    0.6384    4.1410 C.ar     1 ZINC000001550770   -0.0400
11     C11     2.5629    1.2557    2.9054 C.ar     1 ZINC000001550770   -0.1000
12     C12     3.4730    2.2451    2.5947 C.ar     1 ZINC000001550770   -0.1200
13     C13     4.4411    2.6275    3.5139 C.ar     1 ZINC000001550770   -0.0600
14     C14     4.4903    2.0160    4.7468 C.ar     1 ZINC000001550770   -0.0700
15     C15     3.5721    1.0219    5.0584 C.ar     1 ZINC000001550770   -0.1100
16     C16     5.5021    2.3909    5.7978 C.3      1 ZINC000001550770   -0.0200
17     C17     4.8293    3.2680    6.8556 C.3      1 ZINC000001550770   -0.1400
18     C18     6.0349    1.1195    6.4614 C.3      1 ZINC000001550770   -0.1400
19     C19     6.6660    3.1580    5.1736 C.3      1 ZINC000001550770   -0.1100
20     C20     6.0941    4.3055    4.3329 C.3      1 ZINC000001550770   -0.1100
21     C21     5.4077    3.7084    3.1061 C.3      1 ZINC000001550770   -0.0200
22     C22     6.4662    3.1138    2.1751 C.3      1 ZINC000001550770   -0.1400
23     C23     4.6482    4.8114    2.3661 C.3      1 ZINC000001550770   -0.1400
24     C24    -2.2314    3.0595    1.5013 C.2      1 ZINC000001550770   -0.1900
25     C25    -2.4558    4.3679    1.0153 C.2      1 ZINC000001550770    0.5000
26     O26    -1.8327    5.3118    1.4867 O.co2    1 ZINC000001550770   -0.6900
27     O27    -3.2732    4.5580    0.1226 O.co2    1 ZINC000001550770   -0.7100
28     H28     0.0564    4.4015    2.7982 H        1 ZINC000001550770    0.0600
29     H29    -1.5832    4.8364    3.3374 H        1 ZINC000001550770    0.0900
30     H30    -0.5856    3.7372    4.3197 H        1 ZINC000001550770    0.0300
31     H31    -1.4466    0.6554    2.4185 H        1 ZINC000001550770    0.1100
32     H32     0.1761    2.1506    4.5312 H        1 ZINC000001550770    0.1200
33     H33     0.9916    0.6209    6.3666 H        1 ZINC000001550770    0.0900
34     H34     0.5720   -1.1749    6.3383 H        1 ZINC000001550770    0.1000
35     H35     1.5428   -2.5820    4.7492 H        1 ZINC000001550770    0.0600
36     H36     1.7542   -2.0558    3.0620 H        1 ZINC000001550770    0.0600
37     H37     3.1212   -1.9705    4.1988 H        1 ZINC000001550770    0.0600
38     H38     1.8124    0.9643    2.1856 H        1 ZINC000001550770    0.1200
39     H39     3.4323    2.7259    1.6285 H        1 ZINC000001550770    0.1200
40     H40     3.6130    0.5385    6.0233 H        1 ZINC000001550770    0.1200
41     H41     4.0102    2.7167    7.3173 H        1 ZINC000001550770    0.0600
42     H42     5.5586    3.5415    7.6182 H        1 ZINC000001550770    0.0600
43     H43     4.4399    4.1708    6.3849 H        1 ZINC000001550770    0.0600
44     H44     6.5067    0.4873    5.7091 H        1 ZINC000001550770    0.0500
45     H45     6.7676    1.3867    7.2228 H        1 ZINC000001550770    0.0500
46     H46     5.2100    0.5785    6.9250 H        1 ZINC000001550770    0.0600
47     H47     7.3035    3.5616    5.9603 H        1 ZINC000001550770    0.0600
48     H48     7.2462    2.4902    4.5368 H        1 ZINC000001550770    0.0700
49     H49     5.3691    4.8666    4.9225 H        1 ZINC000001550770    0.0700
50     H50     6.9011    4.9665    4.0167 H        1 ZINC000001550770    0.0600
51     H51     7.0163    2.3339    2.7015 H        1 ZINC000001550770    0.0600
52     H52     5.9799    2.6865    1.2981 H        1 ZINC000001550770    0.0600
53     H53     7.1564    3.8973    1.8623 H        1 ZINC000001550770    0.0600
54     H54     5.3476    5.5864    2.0523 H        1 ZINC000001550770    0.0600
55     H55     4.1568    4.3890    1.4896 H        1 ZINC000001550770    0.0600
56     H56     3.8993    5.2446    3.0291 H        1 ZINC000001550770    0.0600
57     H57    -2.7231    2.2185    1.0351 H        1 ZINC000001550770    0.0900
@<TRIPOS>BOND
1     1     2     1
2     1     28    1
3     1     29    1
4     1     30    1
5     2     3     1
6     2     24    2
7     3     4     2
8     3     31    1
9     4     5     1
10    4     32    1
11    5     6     1
12    5     8     1
13    5     7     1
14    7     8     1
15    7     33    1
16    7     34    1
17    8     9     1
18    8     10    1
19    9     35    1
20    9     36    1
21    9     37    1
22    10    15    ar
23    10    11    ar
24    11    12    ar
25    11    38    1
26    12    13    ar
27    12    39    1
28    13    21    1
29    13    14    ar
30    14    15    ar
31    14    16    1
32    15    40    1
33    16    17    1
34    16    18    1
35    16    19    1
36    17    41    1
37    17    42    1
38    17    43    1
39    18    44    1
40    18    45    1
41    18    46    1
42    19    20    1
43    19    47    1
44    19    48    1
45    20    21    1
46    20    49    1
47    20    50    1
48    21    22    1
49    21    23    1
50    22    51    1
51    22    52    1
52    22    53    1
53    23    54    1
54    23    55    1
55    23    56    1
56    24    25    1
57    24    57    1
58    25    26    ar
59    25    27    ar
@<TRIPOS>SUBSTRUCTURE
1   ZINC000001550770 1     RESIDUE    1   A     ZIN   1
