@<TRIPOS>MOLECULE
ZINC000039129916
39    43    1     0     0
SMALL
USER_CHARGES
@<TRIPOS>ATOM
1      C1     -0.0015    1.4594    0.0112 C.3      1 ZINC000039129916    0.0900
2      N2      0.0128   -0.0055    0.0028 N.pl3    1 ZINC000039129916   -0.3600
3      C3      0.0158   -0.7889   -1.0934 C.2      1 ZINC000039129916    0.1200
4      C4      0.0312   -2.0876   -0.6729 C.2      1 ZINC000039129916   -0.2200
5      C5      0.0395   -3.2905   -1.5412 C.2      1 ZINC000039129916    0.2600
6      N6      0.0373   -3.1478   -2.8473 N.2      1 ZINC000039129916   -0.2700
7      N7      0.0451   -4.2671   -3.6815 N.pl3    1 ZINC000039129916   -0.2800
8      C8      0.0551   -5.5348   -3.1380 C.2      1 ZINC000039129916    0.1400
9      N9      0.0607   -6.3856   -4.1481 N.2      1 ZINC000039129916   -0.2400
10     N10     0.0548   -5.7364   -5.2593 N.2      1 ZINC000039129916   -0.2500
11     C11     0.0452   -4.4406   -5.0298 C.2      1 ZINC000039129916    0.1600
12     S12     0.0337   -3.1657   -6.2459 S.3      1 ZINC000039129916    0.1400
13     C13     0.1918   -4.0579   -7.7571 C.ar     1 ZINC000039129916   -0.1500
14     C14    -0.9548   -4.4005   -8.4845 C.ar     1 ZINC000039129916   -0.0500
15     C15    -0.8626   -5.0882   -9.6529 C.ar     1 ZINC000039129916   -0.1000
16     C16     0.3979   -5.4671  -10.1485 C.ar     1 ZINC000039129916    0.1600
17     N17     0.5099   -6.1439  -11.2960 N.ar     1 ZINC000039129916   -0.4800
18     C18     1.6802   -6.5010  -11.7661 C.ar     1 ZINC000039129916    0.1500
19     C19     2.8637   -6.1958  -11.0971 C.ar     1 ZINC000039129916   -0.1800
20     C20     2.8219   -5.5061   -9.9191 C.ar     1 ZINC000039129916   -0.0400
21     C21     1.5628   -5.1236   -9.4173 C.ar     1 ZINC000039129916   -0.1200
22     C22     1.4440   -4.4081   -8.2167 C.ar     1 ZINC000039129916   -0.0100
23     C23     0.0570   -5.6843   -1.7373 C.2      1 ZINC000039129916    0.0000
24     C24     0.0555   -4.5748   -0.9533 C.2      1 ZINC000039129916   -0.1500
25     C25     0.0376   -2.0773    0.7361 C.2      1 ZINC000039129916    0.0900
26     N26     0.0319   -0.8324    1.1324 N.2      1 ZINC000039129916   -0.2900
27     H27     1.0225    1.8328    0.0038 H        1 ZINC000039129916    0.0800
28     H28    -0.5271    1.8227   -0.8718 H        1 ZINC000039129916    0.0900
29     H29    -0.5105    1.8126    0.9080 H        1 ZINC000039129916    0.1000
30     H30     0.0075   -0.4506   -2.1190 H        1 ZINC000039129916    0.1900
31     H31    -1.9269   -4.1143   -8.1110 H        1 ZINC000039129916    0.1400
32     H32    -1.7574   -5.3441  -10.2008 H        1 ZINC000039129916    0.1400
33     H33     1.7284   -7.0469  -12.6967 H        1 ZINC000039129916    0.1600
34     H34     3.8130   -6.5044  -11.5095 H        1 ZINC000039129916    0.1400
35     H35     3.7292   -5.2612   -9.3869 H        1 ZINC000039129916    0.1400
36     H36     2.3256   -4.1378   -7.6545 H        1 ZINC000039129916    0.1400
37     H37     0.0644   -6.6683   -1.2923 H        1 ZINC000039129916    0.1700
38     H38     0.0573   -4.6751    0.1220 H        1 ZINC000039129916    0.1600
39     H39     0.0496   -2.9468    1.3766 H        1 ZINC000039129916    0.2000
@<TRIPOS>BOND
1     1     2     1
2     1     27    1
3     1     28    1
4     1     29    1
5     2     26    1
6     2     3     1
7     3     4     2
8     3     30    1
9     4     5     1
10    4     25    1
11    5     24    1
12    5     6     2
13    6     7     1
14    7     11    1
15    7     8     1
16    8     9     2
17    8     23    1
18    9     10    1
19    10    11    2
20    11    12    1
21    12    13    1
22    13    22    ar
23    13    14    ar
24    14    15    ar
25    14    31    1
26    15    16    ar
27    15    32    1
28    16    21    ar
29    16    17    ar
30    17    18    ar
31    18    19    ar
32    18    33    1
33    19    20    ar
34    19    34    1
35    20    21    ar
36    20    35    1
37    21    22    ar
38    22    36    1
39    23    24    2
40    23    37    1
41    24    38    1
42    25    26    2
43    25    39    1
@<TRIPOS>SUBSTRUCTURE
1   ZINC000039129916 1     RESIDUE    1   A     ZIN   1
