@<TRIPOS>MOLECULE
ZINC000029562299
104   107   1     0     0
SMALL
USER_CHARGES
@<TRIPOS>ATOM
1      C1     -0.0187    1.5258    0.0104 C.3      1 ZINC000029562299   -0.1700
2      C2      0.0021   -0.0041    0.0020 C.3      1 ZINC000029562299    0.0500
3      C3      0.7421   -0.5109    1.2415 C.3      1 ZINC000029562299   -0.1700
4      N4     -1.3761   -0.5125    0.0124 N.4      1 ZINC000029562299   -0.6300
5      H5     -1.8641   -0.1783   -0.8050 H        1 ZINC000029562299    0.4500
6      H6     -1.3624   -1.5214    0.0069 H        1 ZINC000029562299    0.4200
7      H7     -1.8484   -0.1871    0.8426 H        1 ZINC000029562299    0.4500
8      C8      0.7074   -0.4901   -1.2379 C.2      1 ZINC000029562299    0.5100
9      O9      1.5216    0.2194   -1.7898 O.2      1 ZINC000029562299   -0.4500
10     N10     0.4335   -1.7132   -1.7333 N.am     1 ZINC000029562299   -0.7200
11     C11     1.1193   -2.1856   -2.9387 C.3      1 ZINC000029562299    0.1300
12     H12     2.1418   -1.8083   -2.9464 H        1 ZINC000029562299    0.1300
13     C13     1.1400   -3.7155   -2.9471 C.3      1 ZINC000029562299   -0.0700
14     C14     1.9728   -4.2129   -1.7938 C.2      1 ZINC000029562299    0.0200
15     C15     3.3110   -4.3635   -1.7910 C.2      1 ZINC000029562299    0.0500
16     N16     3.6539   -4.8351   -0.5525 N.pl3    1 ZINC000029562299   -0.5000
17     C17     2.5124   -4.9564    0.1588 C.cat    1 ZINC000029562299    0.3200
18     N18     1.5116   -4.5777   -0.5882 N.pl3    1 ZINC000029562299   -0.4800
19     H19     0.5806   -4.5670   -0.3164 H        1 ZINC000029562299    0.4600
20     C20     0.3904   -1.6864   -4.1596 C.2      1 ZINC000029562299    0.5200
21     O21    -0.6040   -1.0032   -4.0351 O.2      1 ZINC000029562299   -0.4900
22     N22     0.8435   -1.9991   -5.3897 N.am     1 ZINC000029562299   -0.7000
23     C23     0.1350   -1.5138   -6.5766 C.3      1 ZINC000029562299    0.1500
24     H24     0.6451   -1.8653   -7.4734 H        1 ZINC000029562299    0.1100
25     C25     0.1142    0.0160   -6.5682 C.3      1 ZINC000029562299   -0.0900
26     C26     1.5214    0.5382   -6.7027 C.ar     1 ZINC000029562299   -0.0900
27     C27     2.2814    0.7656   -5.5572 C.ar     1 ZINC000029562299   -0.1100
28     C28     3.5556    1.2368   -5.6435 C.ar     1 ZINC000029562299   -0.1000
29     C29     4.1158    1.4989   -6.9050 C.ar     1 ZINC000029562299   -0.0500
30     C30     5.4281    1.9854   -7.0343 C.ar     1 ZINC000029562299   -0.1100
31     C31     5.9375    2.2274   -8.2728 C.ar     1 ZINC000029562299   -0.1100
32     C32     5.1773    2.0001   -9.4186 C.ar     1 ZINC000029562299   -0.1100
33     C33     3.9033    1.5294   -9.3323 C.ar     1 ZINC000029562299   -0.1100
34     C34     3.3427    1.2676   -8.0704 C.ar     1 ZINC000029562299   -0.0500
35     C35     2.0330    0.7755   -7.9416 C.ar     1 ZINC000029562299   -0.0900
36     C36    -1.2789   -2.0354   -6.5659 C.2      1 ZINC000029562299    0.5100
37     O37    -1.7748   -2.4220   -5.5288 O.2      1 ZINC000029562299   -0.5000
38     N38    -1.9922   -2.0724   -7.7088 N.am     1 ZINC000029562299   -0.7100
39     C39    -3.3666   -2.5794   -7.6984 C.3      1 ZINC000029562299    0.1400
40     H40    -3.8489   -2.3027   -6.7609 H        1 ZINC000029562299    0.1200
41     C41    -3.3489   -4.1035   -7.8325 C.3      1 ZINC000029562299   -0.0900
42     C42    -2.6921   -4.7070   -6.6179 C.ar     1 ZINC000029562299   -0.0600
43     C43    -1.3261   -4.9183   -6.6040 C.ar     1 ZINC000029562299   -0.1000
44     C44    -0.7236   -5.4719   -5.4899 C.ar     1 ZINC000029562299   -0.1100
45     C45    -1.4870   -5.8139   -4.3894 C.ar     1 ZINC000029562299   -0.1300
46     C46    -2.8529   -5.6017   -4.4029 C.ar     1 ZINC000029562299   -0.1100
47     C47    -3.4548   -5.0441   -5.5154 C.ar     1 ZINC000029562299   -0.1000
48     C48    -4.1310   -1.9825   -8.8519 C.2      1 ZINC000029562299    0.5200
49     O49    -3.5818   -1.2096   -9.6081 O.2      1 ZINC000029562299   -0.5200
50     N50    -5.4249   -2.3075   -9.0430 N.am     1 ZINC000029562299   -0.7100
51     C51    -6.1680   -1.7273  -10.1643 C.3      1 ZINC000029562299    0.1300
52     H52    -5.5018   -1.6076  -11.0186 H        1 ZINC000029562299    0.1200
53     C53    -7.3237   -2.6549  -10.5448 C.3      1 ZINC000029562299   -0.1300
54     C54    -6.7636   -3.9776  -11.0717 C.3      1 ZINC000029562299   -0.1200
55     C55    -7.9193   -4.9053  -11.4522 C.3      1 ZINC000029562299   -0.1600
56     C56    -7.3592   -6.2280  -11.9791 C.3      1 ZINC000029562299   -0.0100
57     N57    -8.4688   -7.1187  -12.3445 N.4      1 ZINC000029562299   -0.6400
58     H58    -8.0994   -7.9910  -12.6920 H        1 ZINC000029562299    0.4400
59     H59    -9.0400   -7.2953  -11.5317 H        1 ZINC000029562299    0.4400
60     H60    -9.0291   -6.6816  -13.0608 H        1 ZINC000029562299    0.4400
61     C61    -6.7153   -0.3821   -9.7617 C.2      1 ZINC000029562299    0.5000
62     N62    -7.4381    0.3415  -10.6395 N.am     1 ZINC000029562299   -0.8500
63     O63    -6.5053    0.0494   -8.6479 O.2      1 ZINC000029562299   -0.5300
64     H64     1.0039    1.9031    0.0027 H        1 ZINC000029562299    0.1200
65     H65    -0.5459    1.8868   -0.8726 H        1 ZINC000029562299    0.0900
66     H66    -0.5289    1.8773    0.9072 H        1 ZINC000029562299    0.1000
67     H67     0.2319   -0.1594    2.1383 H        1 ZINC000029562299    0.1100
68     H68     0.7568   -1.6008    1.2356 H        1 ZINC000029562299    0.0800
69     H69     1.7647   -0.1336    1.2338 H        1 ZINC000029562299    0.1200
70     H70    -0.2176   -2.2806   -1.2919 H        1 ZINC000029562299    0.3900
71     H71     0.1222   -4.0932   -2.8498 H        1 ZINC000029562299    0.1200
72     H72     1.5703   -4.0678   -3.8845 H        1 ZINC000029562299    0.1400
73     H73     3.9843   -4.1530   -2.6088 H        1 ZINC000029562299    0.2300
74     H74     4.5495   -5.0433   -0.2436 H        1 ZINC000029562299    0.4700
75     H75     2.4402   -5.3050    1.1784 H        1 ZINC000029562299    0.2700
76     H76     1.6388   -2.5455   -5.4893 H        1 ZINC000029562299    0.4000
77     H77    -0.4881    0.3758   -7.4024 H        1 ZINC000029562299    0.0900
78     H78    -0.3161    0.3684   -5.6308 H        1 ZINC000029562299    0.1000
79     H79     1.8530    0.5653   -4.5862 H        1 ZINC000029562299    0.1100
80     H80     4.1327    1.4087   -4.7470 H        1 ZINC000029562299    0.1200
81     H81     6.0289    2.1666   -6.1553 H        1 ZINC000029562299    0.1300
82     H82     6.9461    2.6016   -8.3692 H        1 ZINC000029562299    0.1300
83     H83     5.6055    2.2008  -10.3895 H        1 ZINC000029562299    0.1300
84     H84     3.3259    1.3584  -10.2289 H        1 ZINC000029562299    0.1300
85     H85     1.4339    0.5901   -8.8209 H        1 ZINC000029562299    0.1300
86     H86    -1.5956   -1.7632   -8.5383 H        1 ZINC000029562299    0.4100
87     H87    -4.3712   -4.4729   -7.9141 H        1 ZINC000029562299    0.0800
88     H88    -2.7892   -4.3832   -8.7250 H        1 ZINC000029562299    0.0800
89     H89    -0.7296   -4.6512   -7.4638 H        1 ZINC000029562299    0.1100
90     H90     0.3436   -5.6377   -5.4793 H        1 ZINC000029562299    0.1100
91     H91    -1.0164   -6.2471   -3.5192 H        1 ZINC000029562299    0.1100
92     H92    -3.4495   -5.8692   -3.5432 H        1 ZINC000029562299    0.1200
93     H93    -4.5220   -4.8784   -5.5259 H        1 ZINC000029562299    0.1200
94     H94    -5.8642   -2.9257   -8.4381 H        1 ZINC000029562299    0.4100
95     H95    -7.9407   -2.8457   -9.6668 H        1 ZINC000029562299    0.0800
96     H96    -7.9290   -2.1827  -11.3186 H        1 ZINC000029562299    0.0900
97     H97    -6.1466   -3.7869  -11.9498 H        1 ZINC000029562299    0.0800
98     H98    -6.1583   -4.4498  -10.2979 H        1 ZINC000029562299    0.0800
99     H99    -8.5363   -5.0961  -10.5742 H        1 ZINC000029562299    0.0900
100    H100   -8.5246   -4.4331  -12.2260 H        1 ZINC000029562299    0.0900
101    H101   -6.7422   -6.0373  -12.8572 H        1 ZINC000029562299    0.1300
102    H102   -6.7539   -6.7002  -11.2053 H        1 ZINC000029562299    0.1300
103    H103   -7.6061   -0.0036  -11.5303 H        1 ZINC000029562299    0.4000
104    H104   -7.7904    1.2073  -10.3804 H        1 ZINC000029562299    0.4100
@<TRIPOS>BOND
1     1     2     1
2     1     64    1
3     1     65    1
4     1     66    1
5     2     3     1
6     2     4     1
7     2     8     1
8     3     67    1
9     3     68    1
10    3     69    1
11    4     5     1
12    4     6     1
13    4     7     1
14    8     9     2
15    8     10    am
16    10    11    1
17    10    70    1
18    11    12    1
19    11    13    1
20    11    20    1
21    13    14    1
22    13    71    1
23    13    72    1
24    14    18    1
25    14    15    2
26    15    16    1
27    15    73    1
28    16    17    ar
29    16    74    1
30    17    18    ar
31    17    75    1
32    18    19    1
33    20    21    2
34    20    22    am
35    22    23    1
36    22    76    1
37    23    24    1
38    23    25    1
39    23    36    1
40    25    26    1
41    25    77    1
42    25    78    1
43    26    35    ar
44    26    27    ar
45    27    28    ar
46    27    79    1
47    28    29    ar
48    28    80    1
49    29    34    ar
50    29    30    ar
51    30    31    ar
52    30    81    1
53    31    32    ar
54    31    82    1
55    32    33    ar
56    32    83    1
57    33    34    ar
58    33    84    1
59    34    35    ar
60    35    85    1
61    36    37    2
62    36    38    am
63    38    39    1
64    38    86    1
65    39    40    1
66    39    41    1
67    39    48    1
68    41    42    1
69    41    87    1
70    41    88    1
71    42    47    ar
72    42    43    ar
73    43    44    ar
74    43    89    1
75    44    45    ar
76    44    90    1
77    45    46    ar
78    45    91    1
79    46    47    ar
80    46    92    1
81    47    93    1
82    48    49    2
83    48    50    am
84    50    51    1
85    50    94    1
86    51    52    1
87    51    53    1
88    51    61    1
89    53    54    1
90    53    95    1
91    53    96    1
92    54    55    1
93    54    97    1
94    54    98    1
95    55    56    1
96    55    99    1
97    55    100   1
98    56    57    1
99    56    101   1
100   56    102   1
101   57    58    1
102   57    59    1
103   57    60    1
104   61    62    am
105   61    63    2
106   62    103   1
107   62    104   1
@<TRIPOS>SUBSTRUCTURE
1   ZINC000029562299 1     RESIDUE    1   A     ZIN   1
