@<TRIPOS>MOLECULE
ZINC000068245097
58    62    1     0     0
SMALL
USER_CHARGES
@<TRIPOS>ATOM
1      C1      0.3506    1.9055   -0.0580 C.3      1 ZINC000068245097   -0.0900
2      C2      0.6091    0.4232    0.0264 C.2      1 ZINC000068245097    0.1000
3      C3      0.5813   -0.4498   -1.0061 C.2      1 ZINC000068245097   -0.2700
4      C4      0.8761   -1.7259   -0.4993 C.2      1 ZINC000068245097    0.3100
5      N5      0.9481   -2.9101   -1.2432 N.pl3    1 ZINC000068245097   -0.6000
6      C6      0.7160   -2.8851   -2.6157 C.2      1 ZINC000068245097    0.4200
7      N7      0.4358   -1.7468   -3.2056 N.2      1 ZINC000068245097   -0.3100
8      N8      0.1997   -1.6986   -4.5831 N.pl3    1 ZINC000068245097   -0.2400
9      C9      0.2597   -2.8457   -5.3303 C.2      1 ZINC000068245097    0.1600
10     N10    -0.0006   -2.5288   -6.5916 N.2      1 ZINC000068245097   -0.4400
11     C11    -0.2247   -1.2173   -6.6737 C.2      1 ZINC000068245097    0.0500
12     C12    -0.5561   -0.4585   -7.9329 C.3      1 ZINC000068245097   -0.0700
13     C13    -0.1052   -0.6810   -5.4357 C.2      1 ZINC000068245097    0.0100
14     C14    -0.2770    0.7708   -5.0699 C.3      1 ZINC000068245097    0.0000
15     C15    -1.7404    1.0681   -4.8678 C.ar     1 ZINC000068245097   -0.1100
16     C16    -2.4913    1.5814   -5.9081 C.ar     1 ZINC000068245097   -0.0700
17     C17    -3.8339    1.8545   -5.7236 C.ar     1 ZINC000068245097   -0.1200
18     C18    -4.4273    1.6142   -4.4972 C.ar     1 ZINC000068245097   -0.0100
19     Cl19   -6.1134    1.9569   -4.2668 Cl       1 ZINC000068245097   -0.0600
20     C20    -3.6771    1.1004   -3.4547 C.ar     1 ZINC000068245097   -0.1500
21     C21    -2.3342    0.8217   -3.6411 C.ar     1 ZINC000068245097    0.1200
22     F22    -1.6005    0.3194   -2.6239 F        1 ZINC000068245097   -0.1200
23     C23     0.5607   -4.0670   -4.6956 C.2      1 ZINC000068245097    0.0600
24     C24     0.6334   -5.3431   -5.4939 C.3      1 ZINC000068245097    0.1000
25     N25    -0.7139   -5.9122   -5.6314 N.3      1 ZINC000068245097   -0.5200
26     C26    -1.4200   -5.9120   -4.3419 C.3      1 ZINC000068245097    0.0100
27     C27    -2.8369   -6.4563   -4.5421 C.3      1 ZINC000068245097    0.0600
28     O28    -2.7632   -7.7629   -5.1188 O.3      1 ZINC000068245097   -0.3800
29     C29    -2.0823   -7.7998   -6.3759 C.3      1 ZINC000068245097    0.0600
30     C30    -0.6577   -7.2691   -6.1943 C.3      1 ZINC000068245097    0.0200
31     C31     0.7904   -4.0802   -3.3559 C.2      1 ZINC000068245097   -0.2000
32     N32     1.0728   -1.6144    0.7935 N.2      1 ZINC000068245097   -0.3200
33     N33     0.9152   -0.2676    1.1447 N.pl3    1 ZINC000068245097   -0.4700
34     H34     1.2880    2.4275   -0.2498 H        1 ZINC000068245097    0.0800
35     H35    -0.3498    2.1066   -0.8686 H        1 ZINC000068245097    0.0900
36     H36    -0.0735    2.2545    0.8835 H        1 ZINC000068245097    0.0700
37     H37     0.3696   -0.2085   -2.0373 H        1 ZINC000068245097    0.1800
38     H38     1.1596   -3.7478   -0.8023 H        1 ZINC000068245097    0.4300
39     H39    -1.6380   -0.4198   -8.0597 H        1 ZINC000068245097    0.0800
40     H40    -0.1622    0.5553   -7.8605 H        1 ZINC000068245097    0.0700
41     H41    -0.1077   -0.9622   -8.7893 H        1 ZINC000068245097    0.0800
42     H42     0.2669    0.9802   -4.1488 H        1 ZINC000068245097    0.0900
43     H43     0.1134    1.3964   -5.8726 H        1 ZINC000068245097    0.1100
44     H44    -2.0289    1.7697   -6.8658 H        1 ZINC000068245097    0.1500
45     H45    -4.4197    2.2560   -6.5372 H        1 ZINC000068245097    0.1400
46     H46    -4.1399    0.9130   -2.4971 H        1 ZINC000068245097    0.1400
47     H47     1.0407   -5.1307   -6.4823 H        1 ZINC000068245097    0.1100
48     H48     1.2785   -6.0564   -4.9807 H        1 ZINC000068245097    0.0600
49     H49    -0.8842   -6.5436   -3.6334 H        1 ZINC000068245097    0.0500
50     H50    -1.4723   -4.8940   -3.9558 H        1 ZINC000068245097    0.0800
51     H51    -3.3450   -6.5115   -3.5793 H        1 ZINC000068245097    0.1000
52     H52    -3.3901   -5.7948   -5.2088 H        1 ZINC000068245097    0.0600
53     H53    -2.0446   -8.8267   -6.7394 H        1 ZINC000068245097    0.1000
54     H54    -2.6135   -7.1774   -7.0960 H        1 ZINC000068245097    0.0600
55     H55    -0.1536   -7.2418   -7.1603 H        1 ZINC000068245097    0.0900
56     H56    -0.1097   -7.9225   -5.5154 H        1 ZINC000068245097    0.0500
57     H57     1.0225   -5.0098   -2.8575 H        1 ZINC000068245097    0.1500
58     H58     1.0039    0.1027    2.0368 H        1 ZINC000068245097    0.4400
@<TRIPOS>BOND
1     1     2     1
2     1     34    1
3     1     35    1
4     1     36    1
5     2     33    1
6     2     3     2
7     3     4     1
8     3     37    1
9     4     5     1
10    4     32    2
11    5     6     1
12    5     38    1
13    6     31    1
14    6     7     2
15    7     8     1
16    8     13    1
17    8     9     1
18    9     10    2
19    9     23    1
20    10    11    1
21    11    12    1
22    11    13    2
23    12    39    1
24    12    40    1
25    12    41    1
26    13    14    1
27    14    15    1
28    14    42    1
29    14    43    1
30    15    21    ar
31    15    16    ar
32    16    17    ar
33    16    44    1
34    17    18    ar
35    17    45    1
36    18    19    1
37    18    20    ar
38    20    21    ar
39    20    46    1
40    21    22    1
41    23    24    1
42    23    31    2
43    24    25    1
44    24    47    1
45    24    48    1
46    25    30    1
47    25    26    1
48    26    27    1
49    26    49    1
50    26    50    1
51    27    28    1
52    27    51    1
53    27    52    1
54    28    29    1
55    29    30    1
56    29    53    1
57    29    54    1
58    30    55    1
59    30    56    1
60    31    57    1
61    32    33    1
62    33    58    1
@<TRIPOS>SUBSTRUCTURE
1   ZINC000068245097 1     RESIDUE    1   A     ZIN   1
