@<TRIPOS>MOLECULE
ZINC000003944646
70    74    1     0     0
SMALL
USER_CHARGES
@<TRIPOS>ATOM
1      C1     -0.0173    1.4248    0.0099 C.3      1 ZINC000003944646    0.0200
2      O2      0.0021   -0.0041    0.0020 O.3      1 ZINC000003944646   -0.3000
3      C3     -1.2014   -0.6380    0.0101 C.ar     1 ZINC000003944646    0.0900
4      C4     -2.3658    0.0986    0.0195 C.ar     1 ZINC000003944646   -0.1200
5      C5     -3.6018   -0.5597    0.0278 C.ar     1 ZINC000003944646   -0.1600
6      C6     -3.6517   -1.9656    0.0265 C.ar     1 ZINC000003944646    0.1600
7      C7     -2.4703   -2.6929    0.0166 C.ar     1 ZINC000003944646   -0.2000
8      C8     -1.2532   -2.0353    0.0031 C.ar     1 ZINC000003944646    0.1700
9      O9     -0.0999   -2.7523   -0.0070 O.3      1 ZINC000003944646   -0.2900
10     C10    -0.2211   -4.1762   -0.0030 C.3      1 ZINC000003944646    0.0500
11     C11     1.1728   -4.8068   -0.0158 C.3      1 ZINC000003944646   -0.1200
12     C12     1.0430   -6.3312   -0.0115 C.3      1 ZINC000003944646    0.0600
13     N13     2.3813   -6.9367   -0.0237 N.3      1 ZINC000003944646   -0.5300
14     C14     3.2449   -6.2846   -1.0163 C.3      1 ZINC000003944646    0.0500
15     C15     4.6664   -6.8395   -0.9008 C.3      1 ZINC000003944646   -0.1200
16     C16     4.6392   -8.3523   -1.1358 C.3      1 ZINC000003944646   -0.1100
17     C17     6.0484   -8.9222   -0.9616 C.3      1 ZINC000003944646    0.2300
18     O18     6.5097   -8.6550    0.3642 O.3      1 ZINC000003944646   -0.5400
19     C19     6.0202  -10.4111   -1.1931 C.ar     1 ZINC000003944646   -0.0800
20     C20     5.0989  -10.9568   -2.0674 C.ar     1 ZINC000003944646   -0.0800
21     C21     5.0722  -12.3220   -2.2805 C.ar     1 ZINC000003944646   -0.1500
22     C22     5.9689  -13.1432   -1.6183 C.ar     1 ZINC000003944646    0.1000
23     F23     5.9440  -14.4779   -1.8262 F        1 ZINC000003944646   -0.1400
24     C24     6.8915  -12.5955   -0.7432 C.ar     1 ZINC000003944646   -0.1600
25     C25     6.9195  -11.2295   -0.5353 C.ar     1 ZINC000003944646   -0.0600
26     C26     6.9779   -8.2766   -1.9566 C.ar     1 ZINC000003944646   -0.1200
27     C27     6.4906   -7.8395   -3.1743 C.ar     1 ZINC000003944646   -0.0800
28     C28     7.3421   -7.2473   -4.0876 C.ar     1 ZINC000003944646   -0.1500
29     C29     8.6837   -7.0914   -3.7825 C.ar     1 ZINC000003944646    0.1000
30     F30     9.5169   -6.5122   -4.6744 F        1 ZINC000003944646   -0.1400
31     C31     9.1705   -7.5292   -2.5625 C.ar     1 ZINC000003944646   -0.1500
32     C32     8.3162   -8.1167   -1.6488 C.ar     1 ZINC000003944646   -0.0700
33     C33     3.6954   -9.0018   -0.1200 C.3      1 ZINC000003944646   -0.1100
34     C34     2.3020   -8.3842   -0.2581 C.3      1 ZINC000003944646    0.0600
35     O35    -4.8470   -2.5953    0.0355 O.3      1 ZINC000003944646   -0.2700
36     C36    -6.0004   -1.9095    0.0456 C.2      1 ZINC000003944646    0.5100
37     O37    -7.0541   -2.5206    0.0539 O.2      1 ZINC000003944646   -0.4600
38     C38    -6.0238   -0.4999    0.0475 C.2      1 ZINC000003944646   -0.2500
39     C39    -4.8564    0.1950    0.0384 C.2      1 ZINC000003944646    0.0100
40     H40     1.0053    1.8021    0.0021 H        1 ZINC000003944646    0.1100
41     H41    -0.5445    1.7859   -0.8732 H        1 ZINC000003944646    0.0600
42     H42    -0.5275    1.7763    0.9067 H        1 ZINC000003944646    0.0600
43     H43    -2.3255    1.1779    0.0208 H        1 ZINC000003944646    0.1500
44     H44    -2.5007   -3.7725    0.0155 H        1 ZINC000003944646    0.1600
45     H45    -0.7550   -4.4928    0.8929 H        1 ZINC000003944646    0.0700
46     H46    -0.7728   -4.4963   -0.8869 H        1 ZINC000003944646    0.0700
47     H47     1.7067   -4.4901   -0.9118 H        1 ZINC000003944646    0.0800
48     H48     1.7245   -4.4866    0.8681 H        1 ZINC000003944646    0.0900
49     H49     0.5091   -6.6479    0.8845 H        1 ZINC000003944646    0.0800
50     H50     0.4913   -6.6514   -0.8954 H        1 ZINC000003944646    0.0400
51     H51     2.8592   -6.4793   -2.0171 H        1 ZINC000003944646    0.0300
52     H52     3.2588   -5.2098   -0.8354 H        1 ZINC000003944646    0.0900
53     H53     5.3036   -6.3666   -1.6481 H        1 ZINC000003944646    0.0700
54     H54     5.0579   -6.6329    0.0953 H        1 ZINC000003944646    0.0800
55     H55     4.2856   -8.5577   -2.1462 H        1 ZINC000003944646    0.0800
56     H56     6.5534   -7.7141    0.5833 H        1 ZINC000003944646    0.3800
57     H57     4.3995  -10.3161   -2.5839 H        1 ZINC000003944646    0.1300
58     H58     4.3518  -12.7482   -2.9631 H        1 ZINC000003944646    0.1400
59     H59     7.5913  -13.2351   -0.2258 H        1 ZINC000003944646    0.1400
60     H60     7.6393  -10.8019    0.1470 H        1 ZINC000003944646    0.1400
61     H61     5.4442   -7.9612   -3.4120 H        1 ZINC000003944646    0.1300
62     H62     6.9613   -6.9066   -5.0391 H        1 ZINC000003944646    0.1400
63     H63    10.2168   -7.4084   -2.3236 H        1 ZINC000003944646    0.1400
64     H64     8.6956   -8.4579   -0.6970 H        1 ZINC000003944646    0.1400
65     H65     3.6387  -10.0737   -0.3094 H        1 ZINC000003944646    0.0700
66     H66     4.0716   -8.8292    0.8884 H        1 ZINC000003944646    0.0800
67     H67     1.6310   -8.8343    0.4735 H        1 ZINC000003944646    0.0800
68     H68     1.9207   -8.5691   -1.2624 H        1 ZINC000003944646    0.0300
69     H69    -6.9671    0.0260    0.0561 H        1 ZINC000003944646    0.1700
70     H70    -4.8539    1.2750    0.0400 H        1 ZINC000003944646    0.1500
@<TRIPOS>BOND
1     1     2     1
2     1     40    1
3     1     41    1
4     1     42    1
5     2     3     1
6     3     8     ar
7     3     4     ar
8     4     5     ar
9     4     43    1
10    5     39    1
11    5     6     ar
12    6     7     ar
13    6     35    1
14    7     8     ar
15    7     44    1
16    8     9     1
17    9     10    1
18    10    11    1
19    10    45    1
20    10    46    1
21    11    12    1
22    11    47    1
23    11    48    1
24    12    13    1
25    12    49    1
26    12    50    1
27    13    34    1
28    13    14    1
29    14    15    1
30    14    51    1
31    14    52    1
32    15    16    1
33    15    53    1
34    15    54    1
35    16    17    1
36    16    33    1
37    16    55    1
38    17    18    1
39    17    19    1
40    17    26    1
41    18    56    1
42    19    25    ar
43    19    20    ar
44    20    21    ar
45    20    57    1
46    21    22    ar
47    21    58    1
48    22    23    1
49    22    24    ar
50    24    25    ar
51    24    59    1
52    25    60    1
53    26    32    ar
54    26    27    ar
55    27    28    ar
56    27    61    1
57    28    29    ar
58    28    62    1
59    29    30    1
60    29    31    ar
61    31    32    ar
62    31    63    1
63    32    64    1
64    33    34    1
65    33    65    1
66    33    66    1
67    34    67    1
68    34    68    1
69    35    36    1
70    36    37    2
71    36    38    1
72    38    39    2
73    38    69    1
74    39    70    1
@<TRIPOS>SUBSTRUCTURE
1   ZINC000003944646 1     RESIDUE    1   A     ZIN   1
