@<TRIPOS>MOLECULE
ZINC000000598422
37    40    1     0     0
SMALL
USER_CHARGES
@<TRIPOS>ATOM
1      O1      0.0021   -0.0041    0.0020 O.2      1 ZINC000000598422   -0.4500
2      C2     -0.0144    1.2081    0.0087 C.2      1 ZINC000000598422    0.5400
3      C3     -1.2605    2.0692    0.0318 C.3      1 ZINC000000598422   -0.1600
4      C4     -0.7018    3.5000    0.0318 C.3      1 ZINC000000598422    0.1000
5      C5      0.7926    3.3122    0.0090 C.2      1 ZINC000000598422    0.5400
6      O6      1.6143    4.2034    0.0024 O.2      1 ZINC000000598422   -0.4300
7      N7      1.0668    1.9995    0.0026 N.am     1 ZINC000000598422   -0.6700
8      C8     -1.1158    4.1577   -1.2570 C.2      1 ZINC000000598422    0.5600
9      O9     -0.8203    3.6621   -2.3234 O.2      1 ZINC000000598422   -0.4500
10     N10    -1.8209    5.3067   -1.2078 N.am     1 ZINC000000598422   -0.5600
11     C11    -2.2269    5.9474   -2.4611 C.3      1 ZINC000000598422    0.1400
12     C12    -3.5768    5.4236   -2.8788 C.ar     1 ZINC000000598422   -0.1500
13     C13    -3.6675    4.4394   -3.8445 C.ar     1 ZINC000000598422   -0.0600
14     C14    -4.9055    3.9581   -4.2279 C.ar     1 ZINC000000598422   -0.1100
15     C15    -6.0547    4.4614   -3.6456 C.ar     1 ZINC000000598422   -0.0500
16     Br16   -7.7474    3.8021   -4.1708 Br       1 ZINC000000598422   -0.0300
17     C17    -5.9659    5.4465   -2.6788 C.ar     1 ZINC000000598422   -0.1300
18     C18    -4.7262    5.9245   -2.2907 C.ar     1 ZINC000000598422    0.1300
19     F19    -4.6381    6.8864   -1.3462 F        1 ZINC000000598422   -0.1100
20     C20    -2.1611    5.8787   -0.0427 C.2      1 ZINC000000598422    0.5800
21     O21    -2.8005    6.9135   -0.0629 O.2      1 ZINC000000598422   -0.4500
22     C22    -1.7923    5.3045    1.2498 C.2      1 ZINC000000598422   -0.0700
23     C23    -2.0205    5.7021    2.5496 C.2      1 ZINC000000598422   -0.0600
24     C24    -1.4237    4.7488    3.3805 C.2      1 ZINC000000598422   -0.1900
25     C25    -0.8544    3.8064    2.5900 C.2      1 ZINC000000598422    0.0500
26     N26    -1.0694    4.1279    1.3001 N.pl3    1 ZINC000000598422   -0.4300
27     H27    -1.8661    1.8929   -0.8572 H        1 ZINC000000598422    0.1500
28     H28    -1.8398    1.8827    0.9361 H        1 ZINC000000598422    0.1500
29     H29     1.9723    1.6519   -0.0115 H        1 ZINC000000598422    0.4300
30     H30    -2.2848    7.0261   -2.3156 H        1 ZINC000000598422    0.1200
31     H31    -1.4946    5.7243   -3.2371 H        1 ZINC000000598422    0.1200
32     H32    -2.7708    4.0463   -4.3003 H        1 ZINC000000598422    0.1500
33     H33    -4.9753    3.1889   -4.9827 H        1 ZINC000000598422    0.1400
34     H34    -6.8631    5.8396   -2.2240 H        1 ZINC000000598422    0.1500
35     H35    -2.5588    6.5831    2.8664 H        1 ZINC000000598422    0.1600
36     H36    -1.4172    4.7614    4.4604 H        1 ZINC000000598422    0.1600
37     H37    -0.3153    2.9378    2.9383 H        1 ZINC000000598422    0.1800
@<TRIPOS>BOND
1     1     2     2
2     2     7     am
3     2     3     1
4     3     4     1
5     3     27    1
6     3     28    1
7     4     26    1
8     4     5     1
9     4     8     1
10    5     6     2
11    5     7     am
12    7     29    1
13    8     9     2
14    8     10    am
15    10    11    1
16    10    20    am
17    11    12    1
18    11    30    1
19    11    31    1
20    12    18    ar
21    12    13    ar
22    13    14    ar
23    13    32    1
24    14    15    ar
25    14    33    1
26    15    16    1
27    15    17    ar
28    17    18    ar
29    17    34    1
30    18    19    1
31    20    21    2
32    20    22    1
33    22    26    1
34    22    23    2
35    23    24    1
36    23    35    1
37    24    25    2
38    24    36    1
39    25    26    1
40    25    37    1
@<TRIPOS>SUBSTRUCTURE
1   ZINC000000598422 1     RESIDUE    1   A     ZIN   1
