@<TRIPOS>MOLECULE
ZINC000036377992
41    43    1     0     0
SMALL
USER_CHARGES
@<TRIPOS>ATOM
1      N1     -0.1540    0.7838    1.8831 N.am     1 ZINC000036377992   -0.8500
2      C2     -0.0809   -0.3433    1.1477 C.2      1 ZINC000036377992    0.5700
3      O3      0.9949   -0.8791    0.9615 O.2      1 ZINC000036377992   -0.5100
4      C4     -1.3041   -0.9263    0.5694 C.ar     1 ZINC000036377992   -0.1700
5      C5     -2.5294   -0.2527    0.6675 C.ar     1 ZINC000036377992   -0.0300
6      C6     -3.6478   -0.8378    0.1102 C.ar     1 ZINC000036377992   -0.1400
7      C7     -3.5306   -2.0707   -0.5290 C.ar     1 ZINC000036377992    0.3900
8      N8     -4.6578   -2.6596   -1.0908 N.am     1 ZINC000036377992   -0.5300
9      C9     -5.4755   -3.4125   -0.3286 C.2      1 ZINC000036377992    0.7300
10     N10    -6.5101   -4.0665   -0.8929 N.am     1 ZINC000036377992   -0.8500
11     O11    -5.2799   -3.5018    0.8679 O.2      1 ZINC000036377992   -0.5600
12     C12    -4.9441   -2.4700   -2.4512 C.ar     1 ZINC000036377992    0.0300
13     C13    -5.7276   -1.3956   -2.8551 C.ar     1 ZINC000036377992    0.1400
14     F14    -6.2147   -0.5313   -1.9381 F        1 ZINC000036377992   -0.1200
15     C15    -6.0078   -1.2121   -4.1974 C.ar     1 ZINC000036377992   -0.1600
16     C16    -5.5097   -2.0961   -5.1366 C.ar     1 ZINC000036377992   -0.0400
17     C17    -4.7302   -3.1665   -4.7386 C.ar     1 ZINC000036377992   -0.1600
18     C18    -4.4402   -3.3529   -3.3987 C.ar     1 ZINC000036377992    0.1500
19     F19    -3.6782   -4.3988   -3.0108 F        1 ZINC000036377992   -0.1100
20     N20    -2.3636   -2.6899   -0.6104 N.ar     1 ZINC000036377992   -0.4600
21     C21    -1.2604   -2.1658   -0.0955 C.ar     1 ZINC000036377992    0.2400
22     C22     0.0230   -2.8942   -0.2103 C.ar     1 ZINC000036377992   -0.0700
23     C23     0.9702   -2.4990   -1.1550 C.ar     1 ZINC000036377992   -0.0100
24     C24     2.1647   -3.1804   -1.2579 C.ar     1 ZINC000036377992   -0.1600
25     C25     2.4263   -4.2574   -0.4253 C.ar     1 ZINC000036377992    0.1400
26     F26     3.5985   -4.9206   -0.5312 F        1 ZINC000036377992   -0.1300
27     C27     1.4906   -4.6558    0.5153 C.ar     1 ZINC000036377992   -0.1900
28     C28     0.2928   -3.9769    0.6313 C.ar     1 ZINC000036377992    0.1600
29     F29    -0.6197   -4.3651    1.5488 F        1 ZINC000036377992   -0.1300
30     H30     0.6513    1.1676    2.2638 H        1 ZINC000036377992    0.4100
31     H31    -1.0115    1.2133    2.0283 H        1 ZINC000036377992    0.4000
32     H32    -2.5966    0.7019    1.1680 H        1 ZINC000036377992    0.1500
33     H33    -4.6067   -0.3444    0.1692 H        1 ZINC000036377992    0.1500
34     H34    -6.6662   -3.9952   -1.8476 H        1 ZINC000036377992    0.4000
35     H35    -7.0986   -4.6084   -0.3444 H        1 ZINC000036377992    0.4200
36     H36    -6.6166   -0.3773   -4.5120 H        1 ZINC000036377992    0.1500
37     H37    -5.7305   -1.9504   -6.1837 H        1 ZINC000036377992    0.1500
38     H38    -4.3433   -3.8552   -5.4750 H        1 ZINC000036377992    0.1500
39     H39     0.7682   -1.6607   -1.8052 H        1 ZINC000036377992    0.1400
40     H40     2.8981   -2.8743   -1.9893 H        1 ZINC000036377992    0.1500
41     H41     1.6993   -5.4955    1.1616 H        1 ZINC000036377992    0.1500
@<TRIPOS>BOND
1     1     2     am
2     1     30    1
3     1     31    1
4     2     3     2
5     2     4     1
6     4     21    ar
7     4     5     ar
8     5     6     ar
9     5     32    1
10    6     7     ar
11    6     33    1
12    7     8     1
13    7     20    ar
14    8     9     am
15    8     12    1
16    9     10    am
17    9     11    2
18    10    34    1
19    10    35    1
20    12    18    ar
21    12    13    ar
22    13    14    1
23    13    15    ar
24    15    16    ar
25    15    36    1
26    16    17    ar
27    16    37    1
28    17    18    ar
29    17    38    1
30    18    19    1
31    20    21    ar
32    21    22    1
33    22    28    ar
34    22    23    ar
35    23    24    ar
36    23    39    1
37    24    25    ar
38    24    40    1
39    25    26    1
40    25    27    ar
41    27    28    ar
42    27    41    1
43    28    29    1
@<TRIPOS>SUBSTRUCTURE
1   ZINC000036377992 1     RESIDUE    1   A     ZIN   1
