@<TRIPOS>MOLECULE
ZINC000019418974
54    58    1     0     0
SMALL
USER_CHARGES
@<TRIPOS>ATOM
1      C1      0.3514   -7.3488    0.2934 C.3      1 ZINC000019418974    0.0200
2      O2      1.6553   -6.8445    0.5890 O.3      1 ZINC000019418974   -0.2900
3      C3      1.7309   -5.7967    1.4527 C.ar     1 ZINC000019418974    0.1300
4      C4      0.5750   -5.2727    2.0054 C.ar     1 ZINC000019418974   -0.1600
5      C5      0.6437   -4.2045    2.8874 C.ar     1 ZINC000019418974   -0.0400
6      C6      1.8601   -3.6595    3.2176 C.ar     1 ZINC000019418974   -0.1600
7      C7      3.0404   -4.1755    2.6691 C.ar     1 ZINC000019418974   -0.1900
8      C8      2.9709   -5.2574    1.7834 C.ar     1 ZINC000019418974    0.1600
9      O9      4.1048   -5.7705    1.2420 O.3      1 ZINC000019418974   -0.3100
10     C10     4.7485   -6.8237    1.9621 C.3      1 ZINC000019418974    0.0400
11     C11     4.1694   -3.3979    3.2026 C.2      1 ZINC000019418974    0.5100
12     O12     5.3369   -3.5891    2.9257 O.2      1 ZINC000019418974   -0.4000
13     O13     3.7245   -2.4458    4.0400 O.3      1 ZINC000019418974   -0.3200
14     C14     2.2749   -2.5247    4.1205 C.3      1 ZINC000019418974    0.0900
15     H15     1.8297   -1.5911    3.7766 H        1 ZINC000019418974    0.2000
16     C16     1.8437   -2.8127    5.5599 C.3      1 ZINC000019418974    0.1000
17     H17     2.1954   -2.0098    6.2078 H        1 ZINC000019418974    0.1600
18     C18     0.3404   -2.8798    5.6239 C.ar     1 ZINC000019418974   -0.1400
19     C19    -0.3116   -3.8318    6.3789 C.ar     1 ZINC000019418974   -0.0500
20     C20    -1.6971   -3.8590    6.4158 C.ar     1 ZINC000019418974   -0.1000
21     C21    -2.4370   -2.9360    5.6961 C.ar     1 ZINC000019418974    0.0900
22     O22    -3.7840   -2.7551    5.5677 O.3      1 ZINC000019418974   -0.2900
23     C23    -3.9452   -1.4237    5.0438 C.3      1 ZINC000019418974    0.2100
24     O24    -2.7215   -1.1905    4.3217 O.3      1 ZINC000019418974   -0.2900
25     C25    -1.7838   -1.9749    4.9312 C.ar     1 ZINC000019418974    0.0300
26     C26    -0.3969   -1.9496    4.8978 C.ar     1 ZINC000019418974    0.1400
27     O27     0.2449   -1.0119    4.1506 O.3      1 ZINC000019418974   -0.3200
28     C28     0.4503    0.2678    4.7524 C.3      1 ZINC000019418974    0.0200
29     C29     0.4511   -4.8611    7.1739 C.3      1 ZINC000019418974   -0.1000
30     C30     1.9077   -4.4216    7.3270 C.3      1 ZINC000019418974   -0.0100
31     N31     2.4353   -4.0804    5.9970 N.4      1 ZINC000019418974   -0.3900
32     H32     2.1960   -4.8092    5.3416 H        1 ZINC000019418974    0.4200
33     C33     3.8962   -3.9434    6.0680 C.3      1 ZINC000019418974   -0.0500
34     H34    -0.2518   -6.5578   -0.1522 H        1 ZINC000019418974    0.0700
35     H35     0.4335   -8.1809   -0.4060 H        1 ZINC000019418974    0.1200
36     H36    -0.1223   -7.6926    1.2130 H        1 ZINC000019418974    0.0600
37     H37    -0.3843   -5.6971    1.7486 H        1 ZINC000019418974    0.1600
38     H38    -0.2617   -3.8001    3.3153 H        1 ZINC000019418974    0.1400
39     H39     5.0323   -6.4664    2.9520 H        1 ZINC000019418974    0.0500
40     H40     4.0645   -7.6664    2.0622 H        1 ZINC000019418974    0.0500
41     H41     5.6399   -7.1416    1.4213 H        1 ZINC000019418974    0.1100
42     H42    -2.2030   -4.6057    7.0099 H        1 ZINC000019418974    0.1600
43     H43    -4.8017   -1.3779    4.3711 H        1 ZINC000019418974    0.1500
44     H44    -4.0547   -0.7036    5.8547 H        1 ZINC000019418974    0.1000
45     H45    -0.5062    0.6704    5.0856 H        1 ZINC000019418974    0.0600
46     H46     1.1186    0.1643    5.6073 H        1 ZINC000019418974    0.0600
47     H47     0.8954    0.9449    4.0233 H        1 ZINC000019418974    0.1100
48     H48    -0.0014   -4.9656    8.1600 H        1 ZINC000019418974    0.1400
49     H49     0.4142   -5.8194    6.6559 H        1 ZINC000019418974    0.1100
50     H50     1.9602   -3.5483    7.9772 H        1 ZINC000019418974    0.1400
51     H51     2.4926   -5.2356    7.7551 H        1 ZINC000019418974    0.1500
52     H52     4.3014   -4.7104    6.7280 H        1 ZINC000019418974    0.1300
53     H53     4.3209   -4.0605    5.0710 H        1 ZINC000019418974    0.1100
54     H54     4.1502   -2.9576    6.4576 H        1 ZINC000019418974    0.1400
@<TRIPOS>BOND
1     1     2     1
2     1     34    1
3     1     35    1
4     1     36    1
5     2     3     1
6     3     8     ar
7     3     4     ar
8     4     5     ar
9     4     37    1
10    5     6     ar
11    5     38    1
12    6     14    1
13    6     7     ar
14    7     8     ar
15    7     11    1
16    8     9     1
17    9     10    1
18    10    39    1
19    10    40    1
20    10    41    1
21    11    12    2
22    11    13    1
23    13    14    1
24    14    15    1
25    14    16    1
26    16    17    1
27    16    31    1
28    16    18    1
29    18    26    ar
30    18    19    ar
31    19    20    ar
32    19    29    1
33    20    21    ar
34    20    42    1
35    21    25    ar
36    21    22    1
37    22    23    1
38    23    24    1
39    23    43    1
40    23    44    1
41    24    25    1
42    25    26    ar
43    26    27    1
44    27    28    1
45    28    45    1
46    28    46    1
47    28    47    1
48    29    30    1
49    29    48    1
50    29    49    1
51    30    31    1
52    30    50    1
53    30    51    1
54    31    32    1
55    31    33    1
56    33    52    1
57    33    53    1
58    33    54    1
@<TRIPOS>SUBSTRUCTURE
1   ZINC000019418974 1     RESIDUE    1   A     ZIN   1
