@<TRIPOS>MOLECULE
ZINC000000057623
  24   24    0    0    0
SMALL
USER_CHARGES
NO_NAME
@<TRIPOS>ATOM
    1 N1       -0.0116     1.0048     0.0076 N.4    1 <0>      -0.6300
    2 H2        0.0021    -0.0041     0.0020 H      1 <0>       0.4400
    3 H3        0.9350     1.3541     0.0004 H      1 <0>       0.4400
    4 H4       -0.4996     1.3391    -0.8099 H      1 <0>       0.4400
    5 C5       -0.6992     1.4786     1.2162 C.3    1 <0>      -0.0400
    6 C6       -2.1346     0.9490     1.2270 C.3    1 <0>       0.1400
    7 H7       -2.6346     1.2357     0.3019 H      1 <0>       0.1300
    8 O8       -2.1159    -0.4757     1.3366 O.3    1 <0>      -0.5500
    9 C9       -2.8768     1.5334     2.4012 C.ar   1 <0>      -0.1400
   10 C10      -2.7004     0.9991     3.6636 C.ar   1 <0>      -0.1000
   11 C11      -3.3795     1.5316     4.7441 C.ar   1 <0>      -0.1200
   12 C12      -4.2384     2.6031     4.5627 C.ar   1 <0>       0.1100
   13 O13      -4.9067     3.1282     5.6244 O.3    1 <0>      -0.4800
   14 C14      -4.4157     3.1415     3.2914 C.ar   1 <0>       0.0900
   15 O15      -5.2575     4.1938     3.1083 O.3    1 <0>      -0.4800
   16 C16      -3.7284     2.6067     2.2141 C.ar   1 <0>      -0.1100
   17 H17      -0.1720     1.1175     2.0992 H      1 <0>       0.1400
   18 H18      -0.7140     2.5685     1.2222 H      1 <0>       0.1500
   19 H19      -1.6849    -0.8029     2.1381 H      1 <0>       0.3900
   20 H20      -2.0310     0.1637     3.8064 H      1 <0>       0.1300
   21 H21      -3.2405     1.1118     5.7295 H      1 <0>       0.1400
   22 H22      -4.4319     3.8399     6.0751 H      1 <0>       0.4000
   23 H23      -4.8327     5.0577     3.1991 H      1 <0>       0.4000
   24 H24      -3.8642     3.0226     1.2267 H      1 <0>       0.1400
@<TRIPOS>BOND
   1    1    2 1
   2    1    3 1
   3    1    4 1
   4    1    5 1
   5    5    6 1
   6    5   17 1
   7    5   18 1
   8    6    7 1
   9    6    8 1
  10    6    9 1
  11    8   19 1
  12    9   16 ar
  13    9   10 ar
  14   10   11 ar
  15   10   20 1
  16   11   12 ar
  17   11   21 1
  18   12   13 1
  19   12   14 ar
  20   13   22 1
  21   14   15 1
  22   14   16 ar
  23   15   23 1
  24   16   24 1
