@<TRIPOS>MOLECULE
ZINC000000538120
54    56    1     0     0
SMALL
USER_CHARGES
@<TRIPOS>ATOM
1      C1     -0.0173    1.4248    0.0099 C.3      1 ZINC000000538120    0.0300
2      O2      0.0021   -0.0041    0.0020 O.3      1 ZINC000000538120   -0.3600
3      C3     -1.2953   -0.6030    0.0112 C.3      1 ZINC000000538120    0.0500
4      C4     -1.1560   -2.1035    0.0018 C.2      1 ZINC000000538120    0.5200
5      O5     -0.0540   -2.6102   -0.0114 O.2      1 ZINC000000538120   -0.4900
6      N6     -2.2558   -2.8825    0.0081 N.am     1 ZINC000000538120   -0.5700
7      C7     -3.5281   -2.2975    0.0234 C.ar     1 ZINC000000538120    0.0900
8      C8     -4.1738   -2.0058   -1.1697 C.ar     1 ZINC000000538120   -0.0900
9      C9     -5.4294   -1.4290   -1.1517 C.ar     1 ZINC000000538120   -0.1200
10     C10    -6.0433   -1.1416    0.0531 C.ar     1 ZINC000000538120   -0.0800
11     C11    -5.4039   -1.4304    1.2451 C.ar     1 ZINC000000538120   -0.1500
12     C12    -4.1499   -2.0128    1.2346 C.ar     1 ZINC000000538120    0.1000
13     F13    -3.5254   -2.2954    2.3987 F        1 ZINC000000538120   -0.1300
14     C14    -2.1203   -4.3412   -0.0010 C.3      1 ZINC000000538120    0.1600
15     C15    -1.3596   -4.7766   -1.2565 C.3      1 ZINC000000538120   -0.1300
16     C16    -1.1680   -6.2947   -1.2302 C.3      1 ZINC000000538120    0.0600
17     N17    -0.4185   -6.6739   -0.0257 N.3      1 ZINC000000538120   -0.5400
18     C18    -0.0957   -8.1070   -0.0359 C.3      1 ZINC000000538120    0.0600
19     C19     0.4581   -8.5148    1.3308 C.3      1 ZINC000000538120   -0.0900
20     C20     0.7892   -9.9850    1.3202 C.ar     1 ZINC000000538120   -0.0800
21     C21    -0.1695  -10.9120    1.6840 C.ar     1 ZINC000000538120   -0.1200
22     C22     0.1342  -12.2606    1.6743 C.ar     1 ZINC000000538120   -0.1200
23     C23     1.3965  -12.6821    1.3005 C.ar     1 ZINC000000538120   -0.1200
24     C24     2.3550  -11.7551    0.9359 C.ar     1 ZINC000000538120   -0.1200
25     C25     2.0499  -10.4068    0.9414 C.ar     1 ZINC000000538120   -0.1100
26     C26    -1.1516   -6.3083    1.1930 C.3      1 ZINC000000538120    0.0600
27     C27    -1.3426   -4.7906    1.2390 C.3      1 ZINC000000538120   -0.1400
28     H28     1.0053    1.8021    0.0021 H        1 ZINC000000538120    0.0900
29     H29    -0.5445    1.7859   -0.8732 H        1 ZINC000000538120    0.0400
30     H30    -0.5275    1.7763    0.9067 H        1 ZINC000000538120    0.0400
31     H31    -1.8320   -0.2936    0.9080 H        1 ZINC000000538120    0.0800
32     H32    -1.8490   -0.2840   -0.8718 H        1 ZINC000000538120    0.0800
33     H33    -3.6953   -2.2291   -2.1118 H        1 ZINC000000538120    0.1400
34     H34    -5.9319   -1.2021   -2.0804 H        1 ZINC000000538120    0.1400
35     H35    -7.0244   -0.6901    0.0636 H        1 ZINC000000538120    0.1400
36     H36    -5.8862   -1.2046    2.1846 H        1 ZINC000000538120    0.1400
37     H37    -3.1096   -4.7989    0.0037 H        1 ZINC000000538120    0.0800
38     H38    -1.9295   -4.4970   -2.1426 H        1 ZINC000000538120    0.0700
39     H39    -0.3859   -4.2873   -1.2800 H        1 ZINC000000538120    0.1000
40     H40    -2.1422   -6.7836   -1.2206 H        1 ZINC000000538120    0.0300
41     H41    -0.6142   -6.6063   -2.1157 H        1 ZINC000000538120    0.0800
42     H42    -0.9976   -8.6811   -0.2486 H        1 ZINC000000538120    0.0300
43     H43     0.6511   -8.3057   -0.8046 H        1 ZINC000000538120    0.0800
44     H44     1.3599   -7.9408    1.5434 H        1 ZINC000000538120    0.0800
45     H45    -0.2888   -8.3161    2.0994 H        1 ZINC000000538120    0.0800
46     H46    -1.1558  -10.5827    1.9760 H        1 ZINC000000538120    0.1200
47     H47    -0.6147  -12.9848    1.9592 H        1 ZINC000000538120    0.1200
48     H48     1.6340  -13.7356    1.2936 H        1 ZINC000000538120    0.1200
49     H49     3.3413  -12.0844    0.6442 H        1 ZINC000000538120    0.1200
50     H50     2.7988   -9.6826    0.6566 H        1 ZINC000000538120    0.1200
51     H51    -2.1258   -6.7971    1.1912 H        1 ZINC000000538120    0.0300
52     H52    -0.5858   -6.6298    2.0674 H        1 ZINC000000538120    0.0900
53     H53    -0.3686   -4.3015    1.2548 H        1 ZINC000000538120    0.1000
54     H54    -1.9004   -4.5211    2.1359 H        1 ZINC000000538120    0.0700
@<TRIPOS>BOND
1     1     2     1
2     1     28    1
3     1     29    1
4     1     30    1
5     2     3     1
6     3     4     1
7     3     31    1
8     3     32    1
9     4     5     2
10    4     6     am
11    6     7     1
12    6     14    1
13    7     12    ar
14    7     8     ar
15    8     9     ar
16    8     33    1
17    9     10    ar
18    9     34    1
19    10    11    ar
20    10    35    1
21    11    12    ar
22    11    36    1
23    12    13    1
24    14    27    1
25    14    15    1
26    14    37    1
27    15    16    1
28    15    38    1
29    15    39    1
30    16    17    1
31    16    40    1
32    16    41    1
33    17    18    1
34    17    26    1
35    18    19    1
36    18    42    1
37    18    43    1
38    19    20    1
39    19    44    1
40    19    45    1
41    20    25    ar
42    20    21    ar
43    21    22    ar
44    21    46    1
45    22    23    ar
46    22    47    1
47    23    24    ar
48    23    48    1
49    24    25    ar
50    24    49    1
51    25    50    1
52    26    27    1
53    26    51    1
54    26    52    1
55    27    53    1
56    27    54    1
@<TRIPOS>SUBSTRUCTURE
1   ZINC000000538120 1     RESIDUE    1   A     ZIN   1
