@<TRIPOS>MOLECULE
ZINC000033359230
45    47    1     0     0
SMALL
USER_CHARGES
@<TRIPOS>ATOM
1      N1     -0.0237    1.3471   -0.0386 N.am     1 ZINC000033359230   -0.8500
2      C2     -0.0013   -0.0004   -0.0438 C.2      1 ZINC000033359230    0.7100
3      O3      1.0604   -0.5906   -0.0966 O.2      1 ZINC000033359230   -0.5700
4      N4     -1.1558   -0.6938    0.0094 N.am     1 ZINC000033359230   -0.6500
5      C5     -1.1403   -2.0852   -0.1036 C.2      1 ZINC000033359230    0.2900
6      C6     -2.2860   -2.8361   -0.2084 C.2      1 ZINC000033359230   -0.3600
7      C7     -3.6039   -2.3176   -0.2153 C.2      1 ZINC000033359230    0.6200
8      O8     -3.7865   -1.1170   -0.1235 O.2      1 ZINC000033359230   -0.5400
9      N9     -4.6561   -3.1529   -0.3235 N.am     1 ZINC000033359230   -0.7300
10     C10    -6.0194   -2.6166   -0.3307 C.3      1 ZINC000033359230    0.1300
11     H11    -6.0736   -1.7514    0.3301 H        1 ZINC000033359230    0.1100
12     C12    -6.3964   -2.1971   -1.7544 C.3      1 ZINC000033359230   -0.1500
13     C13    -7.8487   -1.7115   -1.7653 C.3      1 ZINC000033359230   -0.1400
14     C14    -8.7557   -2.8207   -1.2281 C.3      1 ZINC000033359230   -0.0100
15     N15    -8.3614   -3.1583    0.1448 N.4      1 ZINC000033359230   -0.5000
16     H16    -8.4011   -2.3292    0.7186 H        1 ZINC000033359230    0.4300
17     H17    -8.9937   -3.8524    0.5143 H        1 ZINC000033359230    0.4400
18     C18    -6.9940   -3.6919    0.1544 C.3      1 ZINC000033359230   -0.0200
19     S19    -1.8663   -4.5389   -0.3326 S.3      1 ZINC000033359230    0.1700
20     C20    -0.1516   -4.1637   -0.2373 C.2      1 ZINC000033359230   -0.0700
21     C21     0.9388   -5.1608   -0.2783 C.ar     1 ZINC000033359230   -0.0100
22     C22     2.2692   -4.7482   -0.1891 C.ar     1 ZINC000033359230   -0.1000
23     C23     3.2834   -5.6831   -0.2279 C.ar     1 ZINC000033359230   -0.0800
24     C24     2.9850   -7.0275   -0.3549 C.ar     1 ZINC000033359230   -0.1400
25     C25     1.6664   -7.4451   -0.4445 C.ar     1 ZINC000033359230    0.1100
26     F26     1.3823   -8.7600   -0.5689 F        1 ZINC000033359230   -0.1300
27     C27     0.6420   -6.5191   -0.4006 C.ar     1 ZINC000033359230   -0.1400
28     C28     0.0235   -2.8180   -0.1252 C.2      1 ZINC000033359230   -0.1700
29     H29     0.8072    1.8462   -0.0769 H        1 ZINC000033359230    0.4300
30     H30    -0.8709    1.8180   -0.0005 H        1 ZINC000033359230    0.4000
31     H31    -1.9975   -0.2260    0.1262 H        1 ZINC000033359230    0.4300
32     H32    -4.5107   -4.1092   -0.3966 H        1 ZINC000033359230    0.4100
33     H33    -5.7401   -1.3912   -2.0828 H        1 ZINC000033359230    0.1000
34     H34    -6.2922   -3.0499   -2.4253 H        1 ZINC000033359230    0.0900
35     H35    -7.9417   -0.8277   -1.1341 H        1 ZINC000033359230    0.0900
36     H36    -8.1420   -1.4635   -2.7854 H        1 ZINC000033359230    0.1200
37     H37    -9.7905   -2.4783   -1.2347 H        1 ZINC000033359230    0.1400
38     H38    -8.6622   -3.7038   -1.8601 H        1 ZINC000033359230    0.1300
39     H39    -6.9373   -4.5566   -0.5069 H        1 ZINC000033359230    0.1400
40     H40    -6.7290   -3.9928    1.1679 H        1 ZINC000033359230    0.1400
41     H41     2.5045   -3.6988   -0.0902 H        1 ZINC000033359230    0.1400
42     H42     4.3129   -5.3640   -0.1593 H        1 ZINC000033359230    0.1400
43     H43     3.7827   -7.7549   -0.3848 H        1 ZINC000033359230    0.1400
44     H44    -0.3855   -6.8446   -0.4700 H        1 ZINC000033359230    0.1300
45     H45     0.9998   -2.3620   -0.0523 H        1 ZINC000033359230    0.2000
@<TRIPOS>BOND
1     1     2     am
2     1     29    1
3     1     30    1
4     2     3     2
5     2     4     am
6     4     5     1
7     4     31    1
8     5     28    1
9     5     6     2
10    6     7     1
11    6     19    1
12    7     8     2
13    7     9     am
14    9     10    1
15    9     32    1
16    10    11    1
17    10    18    1
18    10    12    1
19    12    13    1
20    12    33    1
21    12    34    1
22    13    14    1
23    13    35    1
24    13    36    1
25    14    15    1
26    14    37    1
27    14    38    1
28    15    16    1
29    15    17    1
30    15    18    1
31    18    39    1
32    18    40    1
33    19    20    1
34    20    21    1
35    20    28    2
36    21    27    ar
37    21    22    ar
38    22    23    ar
39    22    41    1
40    23    24    ar
41    23    42    1
42    24    25    ar
43    24    43    1
44    25    26    1
45    25    27    ar
46    27    44    1
47    28    45    1
@<TRIPOS>SUBSTRUCTURE
1   ZINC000033359230 1     RESIDUE    1   A     ZIN   1
