@<TRIPOS>MOLECULE
ZINC000100018911
  52   53    0    0    0
SMALL
USER_CHARGES
NO_NAME
@<TRIPOS>ATOM
    1 C1       -1.5325    -0.9307    -0.2365 C.2    1 <0>      -0.1100
    2 C2       -1.1262    -2.0142     0.4153 C.2    1 <0>       0.0300
    3 N3       -1.9678    -2.6702     1.2657 N.2    1 <0>      -0.4500
    4 C4       -1.5595    -3.5655     2.0861 C.2    1 <0>       0.1900
    5 C5       -2.5752    -4.2167     2.9890 C.3    1 <0>      -0.1200
    6 C6       -0.1290    -4.0040     2.2001 C.3    1 <0>      -0.1000
    7 C7        0.0560    -5.2973     1.4489 C.2    1 <0>       0.4700
    8 O8        1.1386    -5.5823     0.9943 O.2    1 <0>      -0.4900
    9 O9       -0.9819    -6.1325     1.2849 O.3    1 <0>      -0.3300
   10 C10      -0.7307    -7.3599     0.5510 C.3    1 <0>       0.0700
   11 C11      -2.0214    -8.1771     0.4669 C.3    1 <0>      -0.0900
   12 C12      -1.7892    -9.4084    -0.4111 C.3    1 <0>      -0.1500
   13 C13      -2.4355    -8.6225     1.8708 C.3    1 <0>      -0.1500
   14 C14       0.8062    -2.9425     1.6159 C.3    1 <0>      -0.0400
   15 H15       1.8126    -3.3508     1.5227 H      1 <0>       0.1300
   16 C16       0.8296    -1.7349     2.5171 C.ar   1 <0>      -0.0300
   17 C17      -0.3316    -1.3117     3.1358 C.ar   1 <0>      -0.1200
   18 C18      -0.3101    -0.2039     3.9627 C.ar   1 <0>      -0.0700
   19 C19       0.8727     0.4802     4.1709 C.ar   1 <0>      -0.1100
   20 C20       2.0344     0.0564     3.5527 C.ar   1 <0>      -0.0600
   21 C21       2.0138    -1.0537     2.7295 C.ar   1 <0>      -0.0200
   22 N22       3.2576    -1.5074     2.0676 N.pl3  1 <0>       0.0200
   23 O23       4.3118    -1.4941     2.6776 O.2    1 <0>      -0.1500
   24 O24       3.2269    -1.8942     0.9131 O.2    1 <0>      -0.1400
   25 C25       0.2766    -2.5478     0.2240 C.3    1 <0>      -0.0700
   26 C26       0.2562    -3.7551    -0.6778 C.2    1 <0>       0.4700
   27 O27      -0.7837    -4.3321    -0.8913 O.2    1 <0>      -0.4900
   28 O28       1.3932    -4.1894    -1.2437 O.3    1 <0>      -0.3300
   29 C29       1.2986    -5.3577    -2.1007 C.3    1 <0>       0.0400
   30 H30      -0.8595    -0.4219    -0.9106 H      1 <0>       0.1200
   31 H31      -2.5375    -0.5611    -0.0958 H      1 <0>       0.1200
   32 H32      -3.5610    -3.7966     2.7893 H      1 <0>       0.0900
   33 H33      -2.5930    -5.2902     2.8012 H      1 <0>       0.0900
   34 H34      -2.3064    -4.0341     4.0294 H      1 <0>       0.0800
   35 H35       0.1167    -4.1600     3.2505 H      1 <0>       0.1400
   36 H36      -0.3876    -7.1180    -0.4549 H      1 <0>       0.0700
   37 H37       0.0344    -7.9410     1.0659 H      1 <0>       0.0700
   38 H38      -2.8115    -7.5647     0.0322 H      1 <0>       0.0800
   39 H39      -0.9991   -10.0208     0.0236 H      1 <0>       0.0600
   40 H40      -2.7087    -9.9906    -0.4710 H      1 <0>       0.0700
   41 H41      -1.4942    -9.0911    -1.4113 H      1 <0>       0.0600
   42 H42      -1.6454    -9.2348     2.3055 H      1 <0>       0.0500
   43 H43      -2.6009    -7.7452     2.4963 H      1 <0>       0.0600
   44 H44      -3.3550    -9.2047     1.8109 H      1 <0>       0.0600
   45 H45      -1.2558    -1.8463     2.9731 H      1 <0>       0.1600
   46 H46      -1.2176     0.1272     4.4456 H      1 <0>       0.1500
   47 H47       0.8893     1.3461     4.8162 H      1 <0>       0.1500
   48 H48       2.9586     0.5912     3.7151 H      1 <0>       0.1500
   49 H49       0.9099    -1.7726    -0.2074 H      1 <0>       0.1300
   50 H50       0.9175    -6.2009    -1.5246 H      1 <0>       0.0600
   51 H51       0.6212    -5.1474    -2.9283 H      1 <0>       0.0600
   52 H52       2.2860    -5.6019    -2.4924 H      1 <0>       0.1000
@<TRIPOS>BOND
   1    1    2 2
   2    1   30 1
   3    1   31 1
   4    2   25 1
   5    2    3 1
   6    3    4 2
   7    4    5 1
   8    4    6 1
   9    5   32 1
  10    5   33 1
  11    5   34 1
  12    6    7 1
  13    6   14 1
  14    6   35 1
  15    7    8 2
  16    7    9 1
  17    9   10 1
  18   10   11 1
  19   10   36 1
  20   10   37 1
  21   11   12 1
  22   11   13 1
  23   11   38 1
  24   12   39 1
  25   12   40 1
  26   12   41 1
  27   13   42 1
  28   13   43 1
  29   13   44 1
  30   14   15 1
  31   14   16 1
  32   14   25 1
  33   16   21 ar
  34   16   17 ar
  35   17   18 ar
  36   17   45 1
  37   18   19 ar
  38   18   46 1
  39   19   20 ar
  40   19   47 1
  41   20   21 ar
  42   20   48 1
  43   21   22 1
  44   22   23 2
  45   22   24 2
  46   25   26 1
  47   25   49 1
  48   26   27 2
  49   26   28 1
  50   28   29 1
  51   29   50 1
  52   29   51 1
  53   29   52 1
