@<TRIPOS>MOLECULE
ZINC000095605999
83    88    1     0     0
SMALL
USER_CHARGES
@<TRIPOS>ATOM
1      C1      5.0155   -6.8841    5.0031 C.3      1 ZINC000095605999    0.0300
2      O2      3.8365   -6.0922    4.8451 O.3      1 ZINC000095605999   -0.1800
3      N3      2.6772   -6.6634    5.4238 N.2      1 ZINC000095605999   -0.2700
4      C4      1.5362   -6.0391    5.3481 C.2      1 ZINC000095605999    0.1800
5      C5      1.4724   -4.6809    4.7589 C.2      1 ZINC000095605999    0.5400
6      O6      2.4597   -4.1952    4.2433 O.2      1 ZINC000095605999   -0.5000
7      N7      0.3192   -3.9842    4.7948 N.am     1 ZINC000095605999   -0.6800
8      C8      0.2831   -2.6018    4.3112 C.3      1 ZINC000095605999    0.1200
9      H9      1.0594   -2.3896    3.5760 H        1 ZINC000095605999    0.1500
10     C10     0.1970   -1.5692    5.4223 C.2      1 ZINC000095605999    0.5300
11     O11     0.9877   -1.1203    6.2252 O.2      1 ZINC000095605999   -0.4400
12     N12    -1.1034   -1.3505    5.1618 N.am     1 ZINC000095605999   -0.5600
13     C13    -2.2247   -0.7959    5.8028 C.2      1 ZINC000095605999    0.1000
14     C14    -2.0516    0.2893    6.7820 C.2      1 ZINC000095605999    0.5200
15     O15    -3.0151    0.7048    7.4113 O.co2    1 ZINC000095605999   -0.6600
16     O16    -0.9444    0.7759    6.9666 O.co2    1 ZINC000095605999   -0.6500
17     C17    -3.4388   -1.2512    5.5242 C.2      1 ZINC000095605999   -0.1900
18     C18    -4.5681   -0.6312    6.3060 C.3      1 ZINC000095605999    0.1400
19     O19    -5.8176   -1.2779    5.9471 O.3      1 ZINC000095605999   -0.3500
20     C20    -6.9455   -0.7703    6.4833 C.2      1 ZINC000095605999    0.5300
21     O21    -6.8971    0.2413    7.1557 O.2      1 ZINC000095605999   -0.5000
22     C22    -8.2334   -1.4397    6.2548 C.2      1 ZINC000095605999   -0.2900
23     C23    -9.4079   -0.8728    6.7061 C.2      1 ZINC000095605999    0.2300
24     N24   -10.5994   -1.4542    6.5166 N.pl3    1 ZINC000095605999   -0.4800
25     C25   -11.7970   -0.7836    7.0286 C.3      1 ZINC000095605999    0.0300
26     C26   -12.4565    0.0133    5.9013 C.3      1 ZINC000095605999    0.0500
27     F27   -13.6002    0.6538    6.3902 F        1 ZINC000095605999   -0.2000
28     C28   -10.7463   -2.6584    5.8587 C.ar     1 ZINC000095605999    0.1900
29     C29   -12.0074   -3.2203    5.6875 C.ar     1 ZINC000095605999    0.0200
30     F30   -13.1014   -2.5884    6.1659 F        1 ZINC000095605999   -0.1200
31     C31   -12.1378   -4.4310    5.0236 C.ar     1 ZINC000095605999    0.1000
32     N32   -13.4026   -4.9934    4.8525 N.3      1 ZINC000095605999   -0.4800
33     C33   -14.4500   -4.1015    5.3699 C.3      1 ZINC000095605999    0.0100
34     C34   -15.8223   -4.7267    5.1098 C.3      1 ZINC000095605999   -0.0100
35     N35   -15.8980   -6.0353    5.7727 N.4      1 ZINC000095605999   -0.3900
36     H36   -15.7533   -5.9185    6.7644 H        1 ZINC000095605999    0.4200
37     C37   -17.2218   -6.6271    5.5376 C.3      1 ZINC000095605999   -0.0500
38     C38   -14.8618   -6.9226    5.2281 C.3      1 ZINC000095605999    0.0000
39     C39   -13.4815   -6.3157    5.4892 C.3      1 ZINC000095605999    0.0100
40     C40   -11.0129   -5.0911    4.5247 C.ar     1 ZINC000095605999    0.0800
41     F41   -11.1561   -6.2696    3.8799 F        1 ZINC000095605999   -0.1200
42     C42    -9.7680   -4.5508    4.6852 C.ar     1 ZINC000095605999   -0.0400
43     C43    -9.6199   -3.3326    5.3523 C.ar     1 ZINC000095605999   -0.1400
44     C44    -8.2921   -2.7230    5.5355 C.2      1 ZINC000095605999    0.4300
45     O45    -7.2831   -3.2604    5.1125 O.2      1 ZINC000095605999   -0.4200
46     C46    -3.8306   -2.2997    4.5356 C.3      1 ZINC000095605999   -0.0200
47     S47    -2.4346   -3.3728    4.0803 S.3      1 ZINC000095605999   -0.2400
48     C48    -1.1062   -2.1384    3.8854 C.3      1 ZINC000095605999    0.1300
49     H49    -1.1578   -1.5601    2.9629 H        1 ZINC000095605999    0.1400
50     C50     0.3048   -6.6858    5.8501 C.2      1 ZINC000095605999    0.1400
51     C51     0.3235   -7.8607    6.5099 C.2      1 ZINC000095605999   -0.2300
52     S52    -1.3337   -8.2832    6.9332 S.3      1 ZINC000095605999    0.0800
53     C53    -1.9104   -6.8071    6.1660 C.2      1 ZINC000095605999    0.3700
54     N54    -3.2350   -6.4105    6.0912 N.pl3    1 ZINC000095605999   -0.8100
55     N55    -0.9035   -6.1457    5.6874 N.2      1 ZINC000095605999   -0.5400
56     H56     5.2206   -7.0224    6.0647 H        1 ZINC000095605999    0.0500
57     H57     4.8663   -7.8558    4.5323 H        1 ZINC000095605999    0.0500
58     H58     5.8587   -6.3781    4.5330 H        1 ZINC000095605999    0.1000
59     H59    -0.4869   -4.3981    5.1410 H        1 ZINC000095605999    0.4300
60     H60    -4.3853   -0.7605    7.3728 H        1 ZINC000095605999    0.1000
61     H61    -4.6296    0.4321    6.0742 H        1 ZINC000095605999    0.0900
62     H62    -9.3648    0.0707    7.2298 H        1 ZINC000095605999    0.1900
63     H63   -12.4978   -1.5287    7.4050 H        1 ZINC000095605999    0.1300
64     H64   -11.5173   -0.1071    7.8363 H        1 ZINC000095605999    0.1200
65     H65   -11.7557    0.7585    5.5249 H        1 ZINC000095605999    0.0900
66     H66   -12.7362   -0.6631    5.0936 H        1 ZINC000095605999    0.0800
67     H67   -14.3114   -3.9614    6.4419 H        1 ZINC000095605999    0.0900
68     H68   -14.3882   -3.1371    4.8657 H        1 ZINC000095605999    0.1400
69     H69   -16.6000   -4.0735    5.5055 H        1 ZINC000095605999    0.1400
70     H70   -15.9661   -4.8541    4.0369 H        1 ZINC000095605999    0.1400
71     H71   -17.3785   -6.7528    4.4663 H        1 ZINC000095605999    0.1200
72     H72   -17.2781   -7.5982    6.0295 H        1 ZINC000095605999    0.1300
73     H73   -17.9909   -5.9695    5.9427 H        1 ZINC000095605999    0.1300
74     H74   -14.9275   -7.8973    5.7115 H        1 ZINC000095605999    0.1400
75     H75   -15.0105   -7.0388    4.1546 H        1 ZINC000095605999    0.1400
76     H76   -12.7132   -6.9667    5.0720 H        1 ZINC000095605999    0.1400
77     H77   -13.3270   -6.2120    6.5632 H        1 ZINC000095605999    0.0800
78     H78    -8.9008   -5.0644    4.2971 H        1 ZINC000095605999    0.1700
79     H79    -4.6223   -2.9130    4.9658 H        1 ZINC000095605999    0.1300
80     H80    -4.2108   -1.8139    3.6370 H        1 ZINC000095605999    0.0900
81     H81     1.2034   -8.4435    6.7392 H        1 ZINC000095605999    0.1900
82     H82    -3.9298   -6.9641    6.4806 H        1 ZINC000095605999    0.4200
83     H83    -3.4682   -5.5791    5.6492 H        1 ZINC000095605999    0.4200
@<TRIPOS>BOND
1     1     2     1
2     1     56    1
3     1     57    1
4     1     58    1
5     2     3     1
6     3     4     2
7     4     5     1
8     4     50    1
9     5     6     2
10    5     7     am
11    7     8     1
12    7     59    1
13    8     9     1
14    8     48    1
15    8     10    1
16    10    11    2
17    10    12    am
18    12    48    1
19    12    13    1
20    13    14    1
21    13    17    2
22    14    15    ar
23    14    16    ar
24    17    18    1
25    17    46    1
26    18    19    1
27    18    60    1
28    18    61    1
29    19    20    1
30    20    21    2
31    20    22    1
32    22    44    1
33    22    23    2
34    23    24    1
35    23    62    1
36    24    25    1
37    24    28    1
38    25    26    1
39    25    63    1
40    25    64    1
41    26    27    1
42    26    65    1
43    26    66    1
44    28    43    ar
45    28    29    ar
46    29    30    1
47    29    31    ar
48    31    32    1
49    31    40    ar
50    32    39    1
51    32    33    1
52    33    34    1
53    33    67    1
54    33    68    1
55    34    35    1
56    34    69    1
57    34    70    1
58    35    36    1
59    35    37    1
60    35    38    1
61    37    71    1
62    37    72    1
63    37    73    1
64    38    39    1
65    38    74    1
66    38    75    1
67    39    76    1
68    39    77    1
69    40    41    1
70    40    42    ar
71    42    43    ar
72    42    78    1
73    43    44    1
74    44    45    2
75    46    47    1
76    46    79    1
77    46    80    1
78    47    48    1
79    48    49    1
80    50    55    1
81    50    51    2
82    51    52    1
83    51    81    1
84    52    53    1
85    53    54    1
86    53    55    2
87    54    82    1
88    54    83    1
@<TRIPOS>SUBSTRUCTURE
1   ZINC000095605999 1     RESIDUE    1   A     ZIN   1
