@<TRIPOS>MOLECULE
ZINC000022942024
64    67    1     0     0
SMALL
USER_CHARGES
@<TRIPOS>ATOM
1      C1     -0.4186    2.1418    1.2879 C.3      1 ZINC000022942024    0.0300
2      O2     -1.1590    1.7041    0.1468 O.3      1 ZINC000022942024   -0.3100
3      C3     -2.3017    1.0055    0.3830 C.ar     1 ZINC000022942024    0.1000
4      C4     -2.7040    0.7523    1.6841 C.ar     1 ZINC000022942024   -0.1700
5      C5     -3.8664    0.0422    1.9225 C.ar     1 ZINC000022942024   -0.1100
6      C6     -4.6288   -0.4166    0.8650 C.ar     1 ZINC000022942024   -0.1100
7      C7     -5.8945   -1.1904    1.1305 C.3      1 ZINC000022942024    0.1200
8      H8     -6.5305   -1.1614    0.2458 H        1 ZINC000022942024    0.1100
9      O9     -6.5876   -0.6054    2.2348 O.3      1 ZINC000022942024   -0.5500
10     C10    -5.5446   -2.6430    1.4597 C.3      1 ZINC000022942024    0.0300
11     N11    -6.7807   -3.4222    1.6111 N.3      1 ZINC000022942024   -0.5300
12     C12    -7.7082   -3.1592    0.5020 C.3      1 ZINC000022942024    0.0500
13     C13    -8.9458   -4.0467    0.6541 C.3      1 ZINC000022942024    0.0600
14     N14    -9.5858   -3.7727    1.9483 N.3      1 ZINC000022942024   -0.5200
15     C15   -10.8219   -4.5519    2.0998 C.3      1 ZINC000022942024    0.1700
16     C16   -11.4485   -4.2453    3.4356 C.ar     1 ZINC000022942024   -0.0800
17     C17   -11.4580   -2.9481    3.9131 C.ar     1 ZINC000022942024   -0.0900
18     C18   -12.0328   -2.6668    5.1385 C.ar     1 ZINC000022942024   -0.1200
19     C19   -12.5984   -3.6827    5.8861 C.ar     1 ZINC000022942024   -0.1200
20     C20   -12.5896   -4.9798    5.4082 C.ar     1 ZINC000022942024   -0.1200
21     C21   -12.0186   -5.2604    4.1809 C.ar     1 ZINC000022942024   -0.1100
22     C22   -11.7836   -4.1874    0.9983 C.ar     1 ZINC000022942024   -0.0800
23     C23   -11.9051   -2.8709    0.5944 C.ar     1 ZINC000022942024   -0.0900
24     C24   -12.7873   -2.5365   -0.4159 C.ar     1 ZINC000022942024   -0.1200
25     C25   -13.5476   -3.5186   -1.0227 C.ar     1 ZINC000022942024   -0.1200
26     C26   -13.4255   -4.8352   -0.6194 C.ar     1 ZINC000022942024   -0.1200
27     C27   -12.5402   -5.1702    0.3880 C.ar     1 ZINC000022942024   -0.1100
28     C28    -8.6583   -4.0357    3.0575 C.3      1 ZINC000022942024    0.0600
29     C29    -7.4207   -3.1482    2.9053 C.3      1 ZINC000022942024    0.0400
30     C30    -4.2331   -0.1668   -0.4363 C.ar     1 ZINC000022942024   -0.1600
31     C31    -3.0725    0.5484   -0.6821 C.ar     1 ZINC000022942024    0.1000
32     O32    -2.6820    0.7950   -1.9612 O.3      1 ZINC000022942024   -0.3100
33     C33    -3.5166    0.2865   -3.0037 C.3      1 ZINC000022942024    0.0300
34     H34     0.4674    2.6852    0.9596 H        1 ZINC000022942024    0.1000
35     H35    -1.0421    2.7972    1.8961 H        1 ZINC000022942024    0.0600
36     H36    -0.1164    1.2770    1.8785 H        1 ZINC000022942024    0.0600
37     H37    -2.1097    1.1091    2.5123 H        1 ZINC000022942024    0.1400
38     H38    -4.1790   -0.1546    2.9374 H        1 ZINC000022942024    0.1200
39     H39    -6.0801   -0.5972    3.0579 H        1 ZINC000022942024    0.3700
40     H40    -4.9460   -3.0645    0.6521 H        1 ZINC000022942024    0.0900
41     H41    -4.9767   -2.6783    2.3894 H        1 ZINC000022942024    0.0800
42     H42    -8.0078   -2.1114    0.5192 H        1 ZINC000022942024    0.0500
43     H43    -7.2155   -3.3814   -0.4445 H        1 ZINC000022942024    0.0800
44     H44    -9.6481   -3.8326   -0.1514 H        1 ZINC000022942024    0.0800
45     H45    -8.6494   -5.0947    0.6097 H        1 ZINC000022942024    0.0400
46     H46   -10.5903   -5.6155    2.0427 H        1 ZINC000022942024    0.0600
47     H47   -11.0162   -2.1544    3.3290 H        1 ZINC000022942024    0.1300
48     H48   -12.0396   -1.6535    5.5118 H        1 ZINC000022942024    0.1200
49     H49   -13.0468   -3.4631    6.8437 H        1 ZINC000022942024    0.1200
50     H50   -13.0312   -5.7736    5.9924 H        1 ZINC000022942024    0.1200
51     H51   -12.0118   -6.2737    3.8075 H        1 ZINC000022942024    0.1200
52     H52   -11.3110   -2.1036    1.0685 H        1 ZINC000022942024    0.1300
53     H53   -12.8827   -1.5079   -0.7310 H        1 ZINC000022942024    0.1200
54     H54   -14.2374   -3.2573   -1.8116 H        1 ZINC000022942024    0.1200
55     H55   -14.0199   -5.6024   -1.0933 H        1 ZINC000022942024    0.1200
56     H56   -12.4448   -6.1988    0.7031 H        1 ZINC000022942024    0.1200
57     H57    -9.1510   -3.8135    4.0040 H        1 ZINC000022942024    0.0800
58     H58    -8.3586   -5.0836    3.0403 H        1 ZINC000022942024    0.0400
59     H59    -6.7184   -3.3623    3.7109 H        1 ZINC000022942024    0.0700
60     H60    -7.7171   -2.1002    2.9498 H        1 ZINC000022942024    0.0800
61     H61    -4.8307   -0.5264   -1.2609 H        1 ZINC000022942024    0.1400
62     H62    -3.0917    0.5526   -3.9716 H        1 ZINC000022942024    0.1000
63     H63    -3.5809   -0.7984   -2.9211 H        1 ZINC000022942024    0.0600
64     H64    -4.5137    0.7175   -2.9138 H        1 ZINC000022942024    0.0600
@<TRIPOS>BOND
1     1     2     1
2     1     34    1
3     1     35    1
4     1     36    1
5     2     3     1
6     3     31    ar
7     3     4     ar
8     4     5     ar
9     4     37    1
10    5     6     ar
11    5     38    1
12    6     7     1
13    6     30    ar
14    7     8     1
15    7     9     1
16    7     10    1
17    9     39    1
18    10    11    1
19    10    40    1
20    10    41    1
21    11    29    1
22    11    12    1
23    12    13    1
24    12    42    1
25    12    43    1
26    13    14    1
27    13    44    1
28    13    45    1
29    14    15    1
30    14    28    1
31    15    16    1
32    15    22    1
33    15    46    1
34    16    21    ar
35    16    17    ar
36    17    18    ar
37    17    47    1
38    18    19    ar
39    18    48    1
40    19    20    ar
41    19    49    1
42    20    21    ar
43    20    50    1
44    21    51    1
45    22    27    ar
46    22    23    ar
47    23    24    ar
48    23    52    1
49    24    25    ar
50    24    53    1
51    25    26    ar
52    25    54    1
53    26    27    ar
54    26    55    1
55    27    56    1
56    28    29    1
57    28    57    1
58    28    58    1
59    29    59    1
60    29    60    1
61    30    31    ar
62    30    61    1
63    31    32    1
64    32    33    1
65    33    62    1
66    33    63    1
67    33    64    1
@<TRIPOS>SUBSTRUCTURE
1   ZINC000022942024 1     RESIDUE    1   A     ZIN   1
