@<TRIPOS>MOLECULE
ZINC000043202141
69    71    1     0     0
SMALL
USER_CHARGES
@<TRIPOS>ATOM
1      C1     -1.5380   -0.4233   -1.7238 C.3      1 ZINC000043202141    0.0300
2      O2     -1.4582   -1.8041   -1.3645 O.3      1 ZINC000043202141   -0.3800
3      C3     -0.5187   -2.0805   -0.3239 C.3      1 ZINC000043202141    0.0500
4      C4     -0.5175   -3.5807   -0.0231 C.3      1 ZINC000043202141    0.1400
5      H5      0.1322   -3.7799    0.8291 H        1 ZINC000043202141    0.1300
6      N6     -0.0265   -4.3129   -1.1932 N.am     1 ZINC000043202141   -0.7000
7      C7      1.2983   -4.4798   -1.3765 C.2      1 ZINC000043202141    0.6100
8      O8      2.0865   -4.0224   -0.5701 O.2      1 ZINC000043202141   -0.5300
9      C9      1.7900   -5.2129   -2.5479 C.2      1 ZINC000043202141   -0.3000
10     C10     3.0895   -5.4579   -2.8508 C.2      1 ZINC000043202141    0.1300
11     N11     3.2639   -6.1365   -3.9570 N.2      1 ZINC000043202141   -0.4800
12     C12     2.2049   -6.4848   -4.6146 C.2      1 ZINC000043202141    0.0700
13     C13     2.2107   -7.2660   -5.9033 C.3      1 ZINC000043202141   -0.0900
14     S14     0.7983   -5.9399   -3.8102 S.3      1 ZINC000043202141    0.1700
15     C15    -1.9197   -4.0297    0.2984 C.2      1 ZINC000043202141    0.5300
16     O16    -2.4560   -4.8778   -0.3828 O.2      1 ZINC000043202141   -0.5300
17     N17    -2.5777   -3.4888    1.3428 N.am     1 ZINC000043202141   -0.7000
18     C18    -3.9408   -3.9253    1.6554 C.3      1 ZINC000043202141    0.1400
19     H19    -4.4719   -4.1486    0.7301 H        1 ZINC000043202141    0.1300
20     C20    -3.8867   -5.1808    2.5281 C.3      1 ZINC000043202141    0.0500
21     O21    -3.2943   -4.8597    3.7883 O.3      1 ZINC000043202141   -0.3700
22     C22    -3.1958   -5.9690    4.6837 C.3      1 ZINC000043202141    0.0300
23     C23    -4.6618   -2.8290    2.3964 C.2      1 ZINC000043202141    0.5300
24     O24    -4.0931   -1.7857    2.6396 O.2      1 ZINC000043202141   -0.4900
25     N25    -5.9387   -3.0078    2.7890 N.am     1 ZINC000043202141   -0.7100
26     C26    -6.6397   -1.9420    3.5094 C.3      1 ZINC000043202141    0.1200
27     H27    -6.3138   -0.9729    3.1317 H        1 ZINC000043202141    0.1200
28     C28    -8.1478   -2.0906    3.2989 C.3      1 ZINC000043202141   -0.0800
29     C29    -8.4690   -1.9296    1.8353 C.ar     1 ZINC000043202141   -0.0800
30     C30    -8.7491   -0.6766    1.3230 C.ar     1 ZINC000043202141   -0.1100
31     C31    -9.0437   -0.5289   -0.0195 C.ar     1 ZINC000043202141   -0.1200
32     C32    -9.0577   -1.6341   -0.8498 C.ar     1 ZINC000043202141   -0.1200
33     C33    -8.7766   -2.8869   -0.3376 C.ar     1 ZINC000043202141   -0.1200
34     C34    -8.4778   -3.0340    1.0041 C.ar     1 ZINC000043202141   -0.1100
35     C35    -6.3258   -2.0393    4.9802 C.2      1 ZINC000043202141    0.3800
36     O36    -7.1475   -2.4847    5.7448 O.2      1 ZINC000043202141   -0.4200
37     C37    -4.9864   -1.5806    5.4967 C.3      1 ZINC000043202141   -0.0400
38     C38    -4.9531   -0.1743    6.0984 C.3      1 ZINC000043202141   -0.1200
39     C39    -4.0539   -2.6356    6.0953 C.3      1 ZINC000043202141   -0.0100
40     O40    -3.8171   -2.0421    4.8171 O.3      1 ZINC000043202141   -0.2800
41     H41    -0.5632   -0.0814   -2.0715 H        1 ZINC000043202141    0.0400
42     H42    -2.2724   -0.2967   -2.5193 H        1 ZINC000043202141    0.0900
43     H43    -1.8394    0.1615   -0.8547 H        1 ZINC000043202141    0.0400
44     H44     0.4773   -1.7730   -0.6425 H        1 ZINC000043202141    0.0700
45     H45    -0.7990   -1.5301    0.5743 H        1 ZINC000043202141    0.0700
46     H46    -0.6548   -4.6775   -1.8359 H        1 ZINC000043202141    0.4100
47     H47     3.9092   -5.1218   -2.2332 H        1 ZINC000043202141    0.1900
48     H48     2.1710   -8.3325   -5.6818 H        1 ZINC000043202141    0.0900
49     H49     1.3434   -6.9865   -6.5014 H        1 ZINC000043202141    0.0900
50     H50     3.1219   -7.0439   -6.4587 H        1 ZINC000043202141    0.1000
51     H51    -2.1487   -2.8105    1.8876 H        1 ZINC000043202141    0.4200
52     H52    -4.8975   -5.5566    2.6871 H        1 ZINC000043202141    0.0600
53     H53    -3.2894   -5.9443    2.0298 H        1 ZINC000043202141    0.0700
54     H54    -4.1922   -6.3612    4.8873 H        1 ZINC000043202141    0.0400
55     H55    -2.5841   -6.7489    4.2301 H        1 ZINC000043202141    0.0400
56     H56    -2.7359   -5.6432    5.6167 H        1 ZINC000043202141    0.0900
57     H57    -6.3935   -3.8422    2.5945 H        1 ZINC000043202141    0.4000
58     H58    -8.4660   -3.0777    3.6342 H        1 ZINC000043202141    0.0900
59     H59    -8.6718   -1.3258    3.8721 H        1 ZINC000043202141    0.1000
60     H60    -8.7382    0.1868    1.9716 H        1 ZINC000043202141    0.1200
61     H61    -9.2633    0.4499   -0.4197 H        1 ZINC000043202141    0.1200
62     H62    -9.2885   -1.5188   -1.8985 H        1 ZINC000043202141    0.1200
63     H63    -8.7879   -3.7504   -0.9861 H        1 ZINC000043202141    0.1200
64     H64    -8.2583   -4.0128    1.4042 H        1 ZINC000043202141    0.1200
65     H65    -5.6431   -0.1230    6.9406 H        1 ZINC000043202141    0.0800
66     H66    -3.9432    0.0501    6.4418 H        1 ZINC000043202141    0.0800
67     H67    -5.2492    0.5519    5.3413 H        1 ZINC000043202141    0.0700
68     H68    -3.4106   -2.3345    6.9221 H        1 ZINC000043202141    0.1100
69     H69    -4.4035   -3.6677    6.1191 H        1 ZINC000043202141    0.1000
@<TRIPOS>BOND
1     1     2     1
2     1     41    1
3     1     42    1
4     1     43    1
5     2     3     1
6     3     4     1
7     3     44    1
8     3     45    1
9     4     5     1
10    4     6     1
11    4     15    1
12    6     7     am
13    6     46    1
14    7     8     2
15    7     9     1
16    9     14    1
17    9     10    2
18    10    11    1
19    10    47    1
20    11    12    2
21    12    13    1
22    12    14    1
23    13    48    1
24    13    49    1
25    13    50    1
26    15    16    2
27    15    17    am
28    17    18    1
29    17    51    1
30    18    19    1
31    18    20    1
32    18    23    1
33    20    21    1
34    20    52    1
35    20    53    1
36    21    22    1
37    22    54    1
38    22    55    1
39    22    56    1
40    23    24    2
41    23    25    am
42    25    26    1
43    25    57    1
44    26    27    1
45    26    28    1
46    26    35    1
47    28    29    1
48    28    58    1
49    28    59    1
50    29    34    ar
51    29    30    ar
52    30    31    ar
53    30    60    1
54    31    32    ar
55    31    61    1
56    32    33    ar
57    32    62    1
58    33    34    ar
59    33    63    1
60    34    64    1
61    35    36    2
62    35    37    1
63    37    40    1
64    37    38    1
65    37    39    1
66    38    65    1
67    38    66    1
68    38    67    1
69    39    40    1
70    39    68    1
71    39    69    1
@<TRIPOS>SUBSTRUCTURE
1   ZINC000043202141 1     RESIDUE    1   A     ZIN   1
