@<TRIPOS>MOLECULE
ZINC000001491943
  29   31    0    0    0
SMALL
USER_CHARGES
NO_NAME
@<TRIPOS>ATOM
    1 O1        0.0021    -0.0041     0.0020 O.3    1 <0>      -0.7300
    2 C2       -0.0164     1.3546     0.0095 C.ar   1 <0>       0.2800
    3 C3       -1.2296     2.0302     0.0305 C.ar   1 <0>      -0.2700
    4 C4       -1.2534     3.4081     0.0386 C.ar   1 <0>      -0.0400
    5 C5       -0.0539     4.1257     0.0257 C.ar   1 <0>      -0.2300
    6 C6       -0.0739     5.5989     0.0347 C.2    1 <0>      -0.0500
    7 C7       -0.5559     6.2623     1.1060 C.2    1 <0>      -0.1400
    8 C8       -0.5644     7.7360     1.0592 C.ar   1 <0>      -0.1100
    9 C9       -0.7182     8.4984     2.2142 C.ar   1 <0>      -0.0700
   10 C10      -0.7203     9.8758     2.1265 C.ar   1 <0>      -0.1700
   11 C11      -0.5704    10.4990     0.8938 C.ar   1 <0>       0.1200
   12 O12      -0.5745    11.8555     0.8189 O.3    1 <0>      -0.5000
   13 C13      -0.4160     9.7449    -0.2624 C.ar   1 <0>      -0.1700
   14 C14      -0.4123     8.3664    -0.1873 C.ar   1 <0>       0.1300
   15 O15      -0.2639     7.6001    -1.2977 O.3    1 <0>      -0.3100
   16 C16       0.4496     6.3686    -1.1495 C.3    1 <0>       0.1000
   17 C17       1.1646     3.4411     0.0045 C.ar   1 <0>      -0.0500
   18 C18       1.1782     2.0630     0.0019 C.ar   1 <0>      -0.2700
   19 H19      -2.1558     1.4749     0.0401 H      1 <0>       0.1000
   20 H20      -2.1974     3.9326     0.0546 H      1 <0>       0.0900
   21 H21      -0.9244     5.7305     1.9708 H      1 <0>       0.1300
   22 H22      -0.8354     8.0149     3.1728 H      1 <0>       0.1300
   23 H23      -0.8392    10.4714     3.0195 H      1 <0>       0.1300
   24 H24       0.3006    12.2570     0.9081 H      1 <0>       0.3900
   25 H25      -0.3000    10.2355    -1.2175 H      1 <0>       0.1300
   26 H26       1.5092     6.5816    -1.0088 H      1 <0>       0.0700
   27 H27       0.3205     5.7676    -2.0496 H      1 <0>       0.1200
   28 H28       2.0939     3.9912    -0.0055 H      1 <0>       0.0900
   29 H29       2.1191     1.5332    -0.0141 H      1 <0>       0.1000
@<TRIPOS>BOND
   1    1    2 1
   2    2   18 ar
   3    2    3 ar
   4    3    4 ar
   5    3   19 1
   6    4    5 ar
   7    4   20 1
   8    5    6 1
   9    5   17 ar
  10    6   16 1
  11    6    7 2
  12    7    8 1
  13    7   21 1
  14    8   14 ar
  15    8    9 ar
  16    9   10 ar
  17    9   22 1
  18   10   11 ar
  19   10   23 1
  20   11   12 1
  21   11   13 ar
  22   12   24 1
  23   13   14 ar
  24   13   25 1
  25   14   15 1
  26   15   16 1
  27   16   26 1
  28   16   27 1
  29   17   18 ar
  30   17   28 1
  31   18   29 1
