@<TRIPOS>MOLECULE
ZINC000005932901
  50   53    0    0    0
SMALL
USER_CHARGES
NO_NAME
@<TRIPOS>ATOM
    1 C1       -0.0187     1.5258     0.0104 C.3    1 <0>      -0.1500
    2 C2        0.0021    -0.0041     0.0020 C.3    1 <0>      -0.1200
    3 C3        0.7182    -0.4975    -1.2568 C.3    1 <0>       0.1800
    4 H4        0.2444    -0.0644    -2.1377 H      1 <0>       0.0900
    5 N5        2.1249    -0.0911    -1.2094 N.am   1 <0>      -0.7200
    6 C6        2.4874     1.1337    -1.6396 C.2    1 <0>       0.6200
    7 O7        1.6468     1.9013    -2.0672 O.2    1 <0>      -0.5500
    8 C8        3.9032     1.5427    -1.5919 C.ar   1 <0>      -0.3200
    9 C9        4.8037     1.3046    -2.7212 C.ar   1 <0>       0.0000
   10 C10       4.3578     0.6799    -3.8906 C.ar   1 <0>      -0.1300
   11 C11       5.2286     0.4769    -4.9204 C.ar   1 <0>      -0.1100
   12 C12       6.5568     0.8841    -4.8218 C.ar   1 <0>      -0.1700
   13 C13       7.0230     1.4948    -3.6982 C.ar   1 <0>      -0.0600
   14 C14       6.1540     1.7213    -2.6150 C.ar   1 <0>       0.0300
   15 N15       6.5854     2.3184    -1.5020 N.ar   1 <0>      -0.4500
   16 C16       5.8001     2.5453    -0.4726 C.ar   1 <0>       0.1200
   17 C17       6.3629     3.2145     0.7240 C.ar   1 <0>      -0.0200
   18 C18       5.5763     4.0907     1.4708 C.ar   1 <0>      -0.0700
   19 C19       6.1059     4.7109     2.5839 C.ar   1 <0>      -0.1400
   20 C20       7.4144     4.4648     2.9594 C.ar   1 <0>      -0.1300
   21 C21       8.1998     3.5968     2.2221 C.ar   1 <0>      -0.1400
   22 C22       7.6794     2.9660     1.1107 C.ar   1 <0>      -0.0900
   23 C23       4.4382     2.1778    -0.4710 C.ar   1 <0>       0.2800
   24 O24       3.6616     2.4290     0.6104 O.3    1 <0>      -0.6700
   25 C25       0.6316    -2.0003    -1.3275 C.ar   1 <0>      -0.0800
   26 C26       1.4878    -2.7783    -0.5708 C.ar   1 <0>      -0.1100
   27 C27       1.4084    -4.1569    -0.6357 C.ar   1 <0>      -0.1200
   28 C28       0.4725    -4.7574    -1.4569 C.ar   1 <0>      -0.1300
   29 C29      -0.3842    -3.9794    -2.2129 C.ar   1 <0>      -0.1200
   30 C30      -0.3077    -2.6009    -2.1448 C.ar   1 <0>      -0.1100
   31 H31       1.0039     1.9031     0.0027 H      1 <0>       0.0800
   32 H32      -0.5459     1.8868    -0.8726 H      1 <0>       0.0500
   33 H33      -0.5289     1.8773     0.9072 H      1 <0>       0.0400
   34 H34       0.5293    -0.3651     0.8851 H      1 <0>       0.0600
   35 H35      -1.0205    -0.3814     0.0098 H      1 <0>       0.0600
   36 H36       2.7954    -0.7034    -0.8683 H      1 <0>       0.4000
   37 H37       3.3299     0.3598    -3.9774 H      1 <0>       0.1100
   38 H38       4.8842    -0.0058    -5.8230 H      1 <0>       0.1100
   39 H39       7.2280     0.7122    -5.6503 H      1 <0>       0.1100
   40 H40       8.0561     1.8040    -3.6381 H      1 <0>       0.1200
   41 H41       4.5548     4.2839     1.1784 H      1 <0>       0.1400
   42 H42       5.4977     5.3901     3.1630 H      1 <0>       0.1200
   43 H43       7.8246     4.9525     3.8314 H      1 <0>       0.1100
   44 H44       9.2209     3.4091     2.5197 H      1 <0>       0.1100
   45 H45       8.2933     2.2883     0.5360 H      1 <0>       0.1200
   46 H46       2.2190    -2.3092     0.0708 H      1 <0>       0.1200
   47 H47       2.0778    -4.7647    -0.0451 H      1 <0>       0.1200
   48 H48       0.4110    -5.8344    -1.5081 H      1 <0>       0.1200
   49 H49      -1.1152    -4.4486    -2.8547 H      1 <0>       0.1200
   50 H50      -0.9771    -1.9930    -2.7354 H      1 <0>       0.1200
@<TRIPOS>BOND
   1    1    2 1
   2    1   31 1
   3    1   32 1
   4    1   33 1
   5    2    3 1
   6    2   34 1
   7    2   35 1
   8    3    4 1
   9    3    5 1
  10    3   25 1
  11    5    6 am
  12    5   36 1
  13    6    7 2
  14    6    8 1
  15    8   23 ar
  16    8    9 ar
  17    9   14 ar
  18    9   10 ar
  19   10   11 ar
  20   10   37 1
  21   11   12 ar
  22   11   38 1
  23   12   13 ar
  24   12   39 1
  25   13   14 ar
  26   13   40 1
  27   14   15 ar
  28   15   16 ar
  29   16   17 1
  30   16   23 ar
  31   17   22 ar
  32   17   18 ar
  33   18   19 ar
  34   18   41 1
  35   19   20 ar
  36   19   42 1
  37   20   21 ar
  38   20   43 1
  39   21   22 ar
  40   21   44 1
  41   22   45 1
  42   23   24 1
  43   25   30 ar
  44   25   26 ar
  45   26   27 ar
  46   26   46 1
  47   27   28 ar
  48   27   47 1
  49   28   29 ar
  50   28   48 1
  51   29   30 ar
  52   29   49 1
  53   30   50 1
