@<TRIPOS>MOLECULE
ZINC000052968892
49    52    1     0     0
SMALL
USER_CHARGES
@<TRIPOS>ATOM
1      C1     -0.1413    1.5141   -0.1170 C.3      1 ZINC000052968892   -0.0100
2      N2     -0.0751    0.0471   -0.0774 N.3      1 ZINC000052968892   -0.4800
3      C3      0.5735   -0.4571   -1.2122 C.ar     1 ZINC000052968892    0.0900
4      C4      0.4738   -0.0612   -2.5451 C.ar     1 ZINC000052968892   -0.1000
5      C5      1.2007   -0.7109   -3.5205 C.ar     1 ZINC000052968892   -0.0800
6      C6      2.0374   -1.7635   -3.1808 C.ar     1 ZINC000052968892    0.1100
7      O7      2.7497   -2.4072   -4.1443 O.3      1 ZINC000052968892   -0.3000
8      C8      3.6998   -1.6958   -4.7803 C.2      1 ZINC000052968892    0.6500
9      O9      3.9522   -0.5624   -4.4220 O.2      1 ZINC000052968892   -0.5300
10     N10     4.3709   -2.2409   -5.8143 N.am     1 ZINC000052968892   -0.6400
11     C11     5.4427   -1.5525   -6.3936 C.ar     1 ZINC000052968892    0.1500
12     C12     5.7806   -1.7812   -7.7210 C.ar     1 ZINC000052968892   -0.1400
13     C13     6.8390   -1.1002   -8.2899 C.ar     1 ZINC000052968892   -0.1000
14     C14     7.5620   -0.1915   -7.5391 C.ar     1 ZINC000052968892   -0.1300
15     C15     7.2284    0.0381   -6.2169 C.ar     1 ZINC000052968892   -0.1000
16     C16     6.1672   -0.6351   -5.6440 C.ar     1 ZINC000052968892   -0.1300
17     C17     2.1459   -2.1571   -1.8551 C.ar     1 ZINC000052968892   -0.0600
18     C18     1.4231   -1.5039   -0.8775 C.ar     1 ZINC000052968892   -0.1100
19     C19     1.3690   -1.6951    0.6209 C.3      1 ZINC000052968892   -0.0200
20     C20     2.7651   -1.8467    1.2283 C.3      1 ZINC000052968892   -0.1500
21     C21     0.4385   -2.8625    0.9792 C.3      1 ZINC000052968892   -0.1300
22     C22    -0.7751   -2.2275    1.6798 C.3      1 ZINC000052968892    0.0000
23     N23    -0.3446   -0.8841    2.1143 N.4      1 ZINC000052968892   -0.3800
24     H24     0.0764   -0.9356    3.0299 H        1 ZINC000052968892    0.4300
25     C25    -1.4952    0.0289    2.1397 C.3      1 ZINC000052968892   -0.0500
26     C26     0.6500   -0.4187    1.1252 C.3      1 ZINC000052968892    0.1800
27     H27     1.3362    0.3236    1.5327 H        1 ZINC000052968892    0.1600
28     H28     0.8689    1.9229   -0.1378 H        1 ZINC000052968892    0.0600
29     H29    -0.6794    1.8295   -1.0110 H        1 ZINC000052968892    0.1000
30     H30    -0.6625    1.8783    0.7683 H        1 ZINC000052968892    0.0900
31     H31    -0.1761    0.7579   -2.8153 H        1 ZINC000052968892    0.1400
32     H32     1.1179   -0.3996   -4.5513 H        1 ZINC000052968892    0.1400
33     H33     4.1109   -3.1103   -6.1569 H        1 ZINC000052968892    0.4200
34     H34     5.2165   -2.4910   -8.3078 H        1 ZINC000052968892    0.1300
35     H35     7.1025   -1.2779   -9.3221 H        1 ZINC000052968892    0.1300
36     H36     8.3892    0.3397   -7.9862 H        1 ZINC000052968892    0.1300
37     H37     7.7952    0.7482   -5.6330 H        1 ZINC000052968892    0.1300
38     H38     5.9068   -0.4550   -4.6114 H        1 ZINC000052968892    0.1400
39     H39     2.7967   -2.9764   -1.5876 H        1 ZINC000052968892    0.1400
40     H40     3.3571   -0.9594    1.0043 H        1 ZINC000052968892    0.0800
41     H41     2.6805   -1.9639    2.3087 H        1 ZINC000052968892    0.0700
42     H42     3.2522   -2.7250    0.8047 H        1 ZINC000052968892    0.0900
43     H43     0.1217   -3.3826    0.0751 H        1 ZINC000052968892    0.1100
44     H44     0.9439   -3.5533    1.6541 H        1 ZINC000052968892    0.1100
45     H45    -1.6096   -2.1464    0.9833 H        1 ZINC000052968892    0.1300
46     H46    -1.0643   -2.8258    2.5437 H        1 ZINC000052968892    0.1400
47     H47    -2.2333   -0.3365    2.8537 H        1 ZINC000052968892    0.1200
48     H48    -1.1632    1.0236    2.4372 H        1 ZINC000052968892    0.1200
49     H49    -1.9428    0.0770    1.1470 H        1 ZINC000052968892    0.1300
@<TRIPOS>BOND
1     1     2     1
2     1     28    1
3     1     29    1
4     1     30    1
5     2     26    1
6     2     3     1
7     3     18    ar
8     3     4     ar
9     4     5     ar
10    4     31    1
11    5     6     ar
12    5     32    1
13    6     7     1
14    6     17    ar
15    7     8     1
16    8     9     2
17    8     10    am
18    10    11    1
19    10    33    1
20    11    16    ar
21    11    12    ar
22    12    13    ar
23    12    34    1
24    13    14    ar
25    13    35    1
26    14    15    ar
27    14    36    1
28    15    16    ar
29    15    37    1
30    16    38    1
31    17    18    ar
32    17    39    1
33    18    19    1
34    19    26    1
35    19    20    1
36    19    21    1
37    20    40    1
38    20    41    1
39    20    42    1
40    21    22    1
41    21    43    1
42    21    44    1
43    22    23    1
44    22    45    1
45    22    46    1
46    23    24    1
47    23    25    1
48    23    26    1
49    25    47    1
50    25    48    1
51    25    49    1
52    26    27    1
@<TRIPOS>SUBSTRUCTURE
1   ZINC000052968892 1     RESIDUE    1   A     ZIN   1
