@<TRIPOS>MOLECULE
ZINC000001534592
54    58    1     0     0
SMALL
USER_CHARGES
@<TRIPOS>ATOM
1      C1      1.9339    1.4592    0.1024 C.3      1 ZINC000001534592   -0.1400
2      C2      1.6796   -0.0495    0.1037 C.3      1 ZINC000001534592   -0.1000
3      C3      1.9162   -0.6054    1.5093 C.3      1 ZINC000001534592   -0.1200
4      C4      1.6600   -2.1137    1.5111 C.3      1 ZINC000001534592   -0.0200
5      C5      2.0210   -2.6830    2.8589 C.2      1 ZINC000001534592    0.2100
6      N6      3.2286   -3.0141    3.2401 N.2      1 ZINC000001534592   -0.5000
7      C7      3.1963   -3.4836    4.4871 C.2      1 ZINC000001534592    0.0800
8      Cl8     4.5571   -4.0432    5.4085 Cl       1 ZINC000001534592   -0.0200
9      C9      1.8826   -3.4433    4.9130 C.2      1 ZINC000001534592   -0.0400
10     C10     1.3830   -3.8473    6.1769 C.2      1 ZINC000001534592    0.5500
11     O11     0.1860   -3.7550    6.4203 O.co2    1 ZINC000001534592   -0.6900
12     O12     2.1483   -4.2886    7.0255 O.co2    1 ZINC000001534592   -0.6700
13     N13     1.1537   -2.9236    3.8565 N.pl3    1 ZINC000001534592   -0.4100
14     C14    -0.2920   -2.6883    3.8287 C.3      1 ZINC000001534592    0.1500
15     C15    -0.5788   -1.2725    4.2581 C.ar     1 ZINC000001534592   -0.0700
16     C16    -0.9593   -0.3178    3.3138 C.ar     1 ZINC000001534592   -0.0800
17     C17    -1.1713   -0.3478    1.8641 C.2      1 ZINC000001534592   -0.2000
18     C18    -1.5353    0.8900    1.4938 C.2      1 ZINC000001534592    0.0600
19     N19    -1.5743    1.7126    2.5891 N.pl3    1 ZINC000001534592   -0.4200
20     C20    -1.9160    3.0689    2.5645 C.ar     1 ZINC000001534592    0.1300
21     C21    -3.2005    3.4570    2.2140 C.ar     1 ZINC000001534592   -0.1200
22     C22    -3.5359    4.7973    2.1899 C.ar     1 ZINC000001534592   -0.1300
23     C23    -2.5953    5.7585    2.5147 C.ar     1 ZINC000001534592   -0.1200
24     C24    -1.3129    5.3863    2.8659 C.ar     1 ZINC000001534592   -0.1000
25     C25    -0.9648    4.0390    2.8990 C.ar     1 ZINC000001534592    0.0600
26     C26     0.4123    3.6339    3.2759 C.2      1 ZINC000001534592    0.0500
27     N27     0.8839    2.3935    3.3438 N.2      1 ZINC000001534592   -0.3200
28     N28     2.1191    2.4665    3.7061 N.pl3    1 ZINC000001534592   -0.1700
29     N29     2.4387    3.7031    3.8674 N.2      1 ZINC000001534592   -0.2000
30     N30     1.4147    4.4414    3.6053 N.2      1 ZINC000001534592   -0.3700
31     C31    -1.2266    1.0029    3.7192 C.ar     1 ZINC000001534592    0.1600
32     C32    -1.1078    1.3405    5.0627 C.ar     1 ZINC000001534592   -0.1000
33     C33    -0.7310    0.3820    5.9786 C.ar     1 ZINC000001534592   -0.1100
34     C34    -0.4727   -0.9202    5.5744 C.ar     1 ZINC000001534592   -0.1100
35     H35     2.9353    1.6593    0.4834 H        1 ZINC000001534592    0.0500
36     H36     1.8492    1.8411   -0.9150 H        1 ZINC000001534592    0.0300
37     H37     1.1981    1.9522    0.7379 H        1 ZINC000001534592    0.0600
38     H38     0.6499   -0.2447   -0.1957 H        1 ZINC000001534592    0.0500
39     H39     2.3598   -0.5331   -0.5975 H        1 ZINC000001534592    0.0400
40     H40     2.9464   -0.4115    1.8081 H        1 ZINC000001534592    0.0600
41     H41     1.2371   -0.1207    2.2108 H        1 ZINC000001534592    0.1000
42     H42     0.6062   -2.3035    1.3069 H        1 ZINC000001534592    0.0700
43     H43     2.2701   -2.5868    0.7416 H        1 ZINC000001534592    0.0800
44     H44    -0.6660   -2.8439    2.8168 H        1 ZINC000001534592    0.0800
45     H45    -0.7861   -3.3816    4.5094 H        1 ZINC000001534592    0.1200
46     H46    -1.0559   -1.2040    1.2160 H        1 ZINC000001534592    0.1400
47     H47    -1.7632    1.1929    0.4825 H        1 ZINC000001534592    0.1500
48     H48    -3.9390    2.7112    1.9595 H        1 ZINC000001534592    0.1200
49     H49    -4.5370    5.0959    1.9158 H        1 ZINC000001534592    0.1200
50     H50    -2.8651    6.8040    2.4931 H        1 ZINC000001534592    0.1200
51     H51    -0.5816    6.1398    3.1188 H        1 ZINC000001534592    0.1300
52     H52    -1.3097    2.3505    5.3875 H        1 ZINC000001534592    0.1000
53     H53    -0.6393    0.6462    7.0218 H        1 ZINC000001534592    0.1100
54     H54    -0.1788   -1.6595    6.3048 H        1 ZINC000001534592    0.1400
@<TRIPOS>BOND
1     1     2     1
2     1     35    1
3     1     36    1
4     1     37    1
5     2     3     1
6     2     38    1
7     2     39    1
8     3     4     1
9     3     40    1
10    3     41    1
11    4     5     1
12    4     42    1
13    4     43    1
14    5     13    1
15    5     6     2
16    6     7     1
17    7     8     1
18    7     9     2
19    9     10    1
20    9     13    1
21    10    11    ar
22    10    12    ar
23    13    14    1
24    14    15    1
25    14    44    1
26    14    45    1
27    15    34    ar
28    15    16    ar
29    16    31    ar
30    16    17    1
31    17    18    2
32    17    46    1
33    18    19    1
34    18    47    1
35    19    20    1
36    19    31    1
37    20    25    ar
38    20    21    ar
39    21    22    ar
40    21    48    1
41    22    23    ar
42    22    49    1
43    23    24    ar
44    23    50    1
45    24    25    ar
46    24    51    1
47    25    26    1
48    26    30    1
49    26    27    2
50    27    28    1
51    28    29    1
52    29    30    2
53    31    32    ar
54    32    33    ar
55    32    52    1
56    33    34    ar
57    33    53    1
58    34    54    1
@<TRIPOS>SUBSTRUCTURE
1   ZINC000001534592 1     RESIDUE    1   A     ZIN   1
