@<TRIPOS>MOLECULE
ZINC000164888446
105   109   1     0     0
SMALL
USER_CHARGES
@<TRIPOS>ATOM
1      C1      1.9149    2.3754   -0.3273 C.3      1 ZINC000164888446   -0.1500
2      C2      1.6567    0.8974   -0.0278 C.3      1 ZINC000164888446   -0.1200
3      C3      2.5418    0.4510    1.1376 C.3      1 ZINC000164888446   -0.1300
4      C4      2.2837   -1.0270    1.4370 C.3      1 ZINC000164888446   -0.1100
5      C5      3.2590   -1.5078    2.5276 C.3      1 ZINC000164888446   -0.0300
6      C6      2.9058   -0.7629    3.8182 C.3      1 ZINC000164888446   -0.1400
7      C7      1.5031   -1.1694    4.2742 C.3      1 ZINC000164888446   -0.1500
8      C8      4.6569   -1.1599    2.0949 C.3      1 ZINC000164888446   -0.6100
9      S9      5.8499   -1.8736    3.2554 S.o2     1 ZINC000164888446    2.4900
10     O10     7.1235   -1.2412    3.0864 O.2      1 ZINC000164888446   -0.9600
11     O11     5.3249   -2.0348    4.5594 O.2      1 ZINC000164888446   -0.9000
12     C12     6.1324   -3.5132    2.6731 C.ar     1 ZINC000164888446   -0.6800
13     C13     7.4088   -4.0227    2.9086 C.ar     1 ZINC000164888446    0.0100
14     C14     7.7553   -5.2914    2.5097 C.ar     1 ZINC000164888446   -0.2100
15     C15     6.8086   -6.0575    1.8488 C.ar     1 ZINC000164888446    0.2600
16     N16     7.1174   -7.3552    1.4336 N.pl3    1 ZINC000164888446   -0.6300
17     C17     8.4000   -7.9576    1.8055 C.3      1 ZINC000164888446    0.0900
18     C18     6.1586   -8.1136    0.6262 C.3      1 ZINC000164888446    0.0800
19     C19     5.5478   -5.5353    1.5927 C.ar     1 ZINC000164888446   -0.2200
20     C20     5.1817   -4.2539    2.0048 C.ar     1 ZINC000164888446    0.0800
21     C21     3.7909   -3.7944    1.6370 C.3      1 ZINC000164888446   -0.0600
22     H22     3.8729   -3.1600    0.7457 H        1 ZINC000164888446    0.1100
23     C23     2.9035   -4.9575    1.2753 C.ar     1 ZINC000164888446   -0.0600
24     C24     2.6553   -5.9516    2.2037 C.ar     1 ZINC000164888446   -0.1300
25     C25     1.8415   -7.0206    1.8756 C.ar     1 ZINC000164888446   -0.0900
26     C26     1.2741   -7.0982    0.6191 C.ar     1 ZINC000164888446   -0.1100
27     C27     1.5210   -6.1010   -0.3156 C.ar     1 ZINC000164888446    0.1700
28     N28     0.9474   -6.1767   -1.5898 N.am     1 ZINC000164888446   -0.6800
29     C29    -0.2831   -6.7042   -1.7447 C.2      1 ZINC000164888446    0.7100
30     O30    -0.9357   -7.0215   -0.7691 O.2      1 ZINC000164888446   -0.5500
31     N31    -0.7903   -6.8798   -2.9810 N.am     1 ZINC000164888446   -0.7200
32     C32    -2.1279   -7.4532   -3.1493 C.3      1 ZINC000164888446    0.3000
33     H33    -2.7186   -7.2674   -2.2523 H        1 ZINC000164888446    0.1000
34     O34    -2.0190   -8.8616   -3.3650 O.3      1 ZINC000164888446   -0.3700
35     C35    -3.2744   -9.5274   -3.5167 C.3      1 ZINC000164888446    0.0700
36     H36    -3.8802   -9.3687   -2.6246 H        1 ZINC000164888446    0.0900
37     C37    -3.0367  -11.0261   -3.7122 C.3      1 ZINC000164888446    0.0900
38     O38    -2.4585  -11.5754   -2.5264 O.3      1 ZINC000164888446   -0.7700
39     S39    -2.1779  -13.0690   -2.6090 S.o2     1 ZINC000164888446    2.7700
40     O40    -1.9447  -13.5278   -1.2484 O.co2    1 ZINC000164888446   -1.0600
41     O41    -3.3563  -13.6852   -3.1985 O.co2    1 ZINC000164888446   -1.1000
42     O42    -1.0005  -13.2287   -3.4483 O.co2    1 ZINC000164888446   -1.0900
43     C43    -4.0055   -8.9627   -4.7375 C.3      1 ZINC000164888446    0.0900
44     H44    -3.4190   -9.1570   -5.6355 H        1 ZINC000164888446    0.0800
45     O45    -5.2852   -9.5870   -4.8586 O.3      1 ZINC000164888446   -0.5500
46     C46    -4.1863   -7.4519   -4.5610 C.3      1 ZINC000164888446    0.1100
47     H47    -4.8142   -7.2590   -3.6912 H        1 ZINC000164888446    0.0800
48     O48    -4.8043   -6.9049   -5.7275 O.3      1 ZINC000164888446   -0.3500
49     C49    -5.6119   -5.7540   -5.4720 C.3      1 ZINC000164888446    0.1000
50     C50    -6.2109   -5.2636   -6.7649 C.ar     1 ZINC000164888446   -0.0900
51     C51    -5.5318   -4.3369   -7.5337 C.ar     1 ZINC000164888446   -0.1000
52     C52    -6.0813   -3.8870   -8.7197 C.ar     1 ZINC000164888446   -0.1300
53     C53    -7.3097   -4.3641   -9.1371 C.ar     1 ZINC000164888446   -0.1200
54     C54    -7.9884   -5.2914   -8.3688 C.ar     1 ZINC000164888446   -0.1200
55     C55    -7.4370   -5.7445   -7.1849 C.ar     1 ZINC000164888446   -0.1000
56     C56    -2.8131   -6.8050   -4.3551 C.3      1 ZINC000164888446    0.0600
57     H57    -2.2024   -6.9555   -5.2453 H        1 ZINC000164888446    0.0800
58     O58    -2.9755   -5.4050   -4.1186 O.3      1 ZINC000164888446   -0.5500
59     C59     2.3342   -5.0264    0.0186 C.ar     1 ZINC000164888446   -0.1400
60     C60     3.0623   -3.0108    2.7250 C.3      1 ZINC000164888446    0.1000
61     H61     1.9832   -3.2283    2.6266 H        1 ZINC000164888446    0.0800
62     O62     3.4728   -3.4378    4.0176 O.3      1 ZINC000164888446   -0.5200
63     H63     2.9628    2.5147   -0.5929 H        1 ZINC000164888446    0.0500
64     H64     1.2843    2.6935   -1.1575 H        1 ZINC000164888446    0.0500
65     H65     1.6814    2.9711    0.5552 H        1 ZINC000164888446    0.0500
66     H66     0.6088    0.7582    0.2377 H        1 ZINC000164888446    0.0600
67     H67     1.8901    0.3017   -0.9103 H        1 ZINC000164888446    0.0600
68     H68     3.5898    0.5902    0.8720 H        1 ZINC000164888446    0.0700
69     H69     2.3084    1.0467    2.0201 H        1 ZINC000164888446    0.0700
70     H70     1.2585   -1.1536    1.7850 H        1 ZINC000164888446    0.0800
71     H71     2.4346   -1.6132    0.5305 H        1 ZINC000164888446    0.0700
72     H72     3.6280   -1.0174    4.5939 H        1 ZINC000164888446    0.1100
73     H73     2.9316    0.3115    3.6362 H        1 ZINC000164888446    0.0600
74     H74     0.7709   -0.8349    3.5391 H        1 ZINC000164888446    0.0500
75     H75     1.4523   -2.2540    4.3701 H        1 ZINC000164888446    0.0700
76     H76     1.2866   -0.7089    5.2381 H        1 ZINC000164888446    0.0500
77     H77     4.8426   -1.5397    1.0868 H        1 ZINC000164888446    0.1400
78     H78     4.7702   -0.0693    2.0751 H        1 ZINC000164888446    0.1500
79     H79     8.1345   -3.4035    3.4167 H        1 ZINC000164888446    0.1300
80     H80     8.7420   -5.6830    2.7072 H        1 ZINC000164888446    0.1300
81     H81     8.2932   -8.4824    2.7549 H        1 ZINC000164888446    0.0500
82     H82     8.7078   -8.6626    1.0333 H        1 ZINC000164888446    0.0700
83     H83     9.1532   -7.1760    1.9051 H        1 ZINC000164888446    0.0700
84     H84     5.3152   -7.4735    0.3672 H        1 ZINC000164888446    0.0800
85     H85     6.6453   -8.4601   -0.2855 H        1 ZINC000164888446    0.0600
86     H86     5.8020   -8.9715    1.1962 H        1 ZINC000164888446    0.0600
87     H87     4.8989   -6.1824    1.0240 H        1 ZINC000164888446    0.1300
88     H88     3.0982   -5.8934    3.1869 H        1 ZINC000164888446    0.1200
89     H89     1.6499   -7.7958    2.6029 H        1 ZINC000164888446    0.1300
90     H90     0.6392   -7.9337    0.3633 H        1 ZINC000164888446    0.1400
91     H91     1.4355   -5.8496   -2.3616 H        1 ZINC000164888446    0.4100
92     H92    -0.2697   -6.6267   -3.7593 H        1 ZINC000164888446    0.4000
93     H93    -3.9862  -11.5210   -3.9163 H        1 ZINC000164888446    0.1000
94     H94    -2.3589  -11.1801   -4.5518 H        1 ZINC000164888446    0.0800
95     H95    -5.2457  -10.5469   -4.9691 H        1 ZINC000164888446    0.3900
96     H96    -6.4104   -6.0172   -4.7783 H        1 ZINC000164888446    0.0600
97     H97    -4.9960   -4.9677   -5.0355 H        1 ZINC000164888446    0.0800
98     H98    -4.5720   -3.9642   -7.2076 H        1 ZINC000164888446    0.1200
99     H99    -5.5510   -3.1626   -9.3199 H        1 ZINC000164888446    0.1200
100    H100   -7.7394   -4.0121  -10.0633 H        1 ZINC000164888446    0.1200
101    H101   -8.9483   -5.6639   -8.6947 H        1 ZINC000164888446    0.1200
102    H102   -7.9672   -6.4690   -6.5846 H        1 ZINC000164888446    0.1200
103    H103   -2.1444   -4.9307   -3.9794 H        1 ZINC000164888446    0.3800
104    H104    2.5282   -4.2494   -0.7060 H        1 ZINC000164888446    0.1300
105    H105    3.3031   -4.3731    4.1952 H        1 ZINC000164888446    0.3800
@<TRIPOS>BOND
1     1     2     1
2     1     63    1
3     1     64    1
4     1     65    1
5     2     3     1
6     2     66    1
7     2     67    1
8     3     4     1
9     3     68    1
10    3     69    1
11    4     5     1
12    4     70    1
13    4     71    1
14    5     60    1
15    5     6     1
16    5     8     1
17    6     7     1
18    6     72    1
19    6     73    1
20    7     74    1
21    7     75    1
22    7     76    1
23    8     9     1
24    8     77    1
25    8     78    1
26    9     10    2
27    9     11    2
28    9     12    1
29    12    20    ar
30    12    13    ar
31    13    14    ar
32    13    79    1
33    14    15    ar
34    14    80    1
35    15    16    1
36    15    19    ar
37    16    17    1
38    16    18    1
39    17    81    1
40    17    82    1
41    17    83    1
42    18    84    1
43    18    85    1
44    18    86    1
45    19    20    ar
46    19    87    1
47    20    21    1
48    21    22    1
49    21    23    1
50    21    60    1
51    23    59    ar
52    23    24    ar
53    24    25    ar
54    24    88    1
55    25    26    ar
56    25    89    1
57    26    27    ar
58    26    90    1
59    27    28    1
60    27    59    ar
61    28    29    am
62    28    91    1
63    29    30    2
64    29    31    am
65    31    32    1
66    31    92    1
67    32    33    1
68    32    56    1
69    32    34    1
70    34    35    1
71    35    36    1
72    35    37    1
73    35    43    1
74    37    38    1
75    37    93    1
76    37    94    1
77    38    39    1
78    39    40    ar
79    39    41    ar
80    39    42    ar
81    43    44    1
82    43    45    1
83    43    46    1
84    45    95    1
85    46    47    1
86    46    48    1
87    46    56    1
88    48    49    1
89    49    50    1
90    49    96    1
91    49    97    1
92    50    55    ar
93    50    51    ar
94    51    52    ar
95    51    98    1
96    52    53    ar
97    52    99    1
98    53    54    ar
99    53    100   1
100   54    55    ar
101   54    101   1
102   55    102   1
103   56    57    1
104   56    58    1
105   58    103   1
106   59    104   1
107   60    61    1
108   60    62    1
109   62    105   1
@<TRIPOS>SUBSTRUCTURE
1   ZINC000164888446 1     RESIDUE    1   A     ZIN   1
