@<TRIPOS>MOLECULE
ZINC000001481958
  47   50    0    0    0
SMALL
USER_CHARGES
NO_NAME
@<TRIPOS>ATOM
    1 C1       -0.0173     1.4248     0.0099 C.3    1 <0>       0.0300
    2 O2        0.0021    -0.0041     0.0020 O.3    1 <0>      -0.3100
    3 C3        0.6060    -0.6073    -1.0561 C.ar   1 <0>       0.1500
    4 C4        1.1736     0.1674    -2.0635 C.ar   1 <0>      -0.2000
    5 C5        1.7842    -0.4219    -3.1336 C.ar   1 <0>      -0.0100
    6 C6        1.8433    -1.8149    -3.2232 C.ar   1 <0>       0.0100
    7 N7        2.3668    -2.6722    -4.1383 N.2    1 <0>      -0.4600
    8 C8        2.1580    -3.8984    -3.7584 C.2    1 <0>       0.2600
    9 C9        2.5958    -5.1240    -4.5182 C.3    1 <0>       0.1400
   10 O10       3.9062    -5.5046    -4.0938 O.3    1 <0>      -0.3100
   11 C11       4.4526    -6.5994    -4.6852 C.ar   1 <0>       0.1400
   12 C12       3.7444    -7.2898    -5.6581 C.ar   1 <0>      -0.2100
   13 C13       4.3022    -8.4021    -6.2582 C.ar   1 <0>      -0.0700
   14 C14       5.5650    -8.8278    -5.8895 C.ar   1 <0>      -0.1400
   15 C15       6.1708   -10.0418    -6.5453 C.3    1 <0>      -0.0500
   16 C16       6.9565    -9.6125    -7.7860 C.3    1 <0>      -0.1000
   17 H17       6.3267    -9.0272    -8.4559 H      1 <0>       0.1600
   18 S18       8.4456    -8.6701    -7.3126 S.3    1 <0>      -0.1000
   19 C19       9.5727    -9.8361    -8.0290 C.2    1 <0>       0.5400
   20 O20      10.7854    -9.7515    -8.0341 O.2    1 <0>      -0.4300
   21 N21       8.8498   -10.8235    -8.5619 N.am   1 <0>      -0.6800
   22 C22       7.5249   -10.8177    -8.5028 C.2    1 <0>       0.5400
   23 O23       6.8372   -11.6973    -8.9752 O.2    1 <0>      -0.4500
   24 C24       6.2730    -8.1412    -4.9204 C.ar   1 <0>      -0.0600
   25 C25       5.7218    -7.0252    -4.3211 C.ar   1 <0>      -0.1400
   26 N26       1.4865    -3.9134    -2.5741 N.pl3  1 <0>      -0.4800
   27 C27       1.0702    -5.1028    -1.8270 C.3    1 <0>       0.0800
   28 C28       1.2716    -2.5999    -2.2074 C.ar   1 <0>       0.1000
   29 C29       0.6584    -1.9881    -1.1232 C.ar   1 <0>      -0.1600
   30 H30       1.0053     1.8021     0.0021 H      1 <0>       0.0600
   31 H31      -0.5445     1.7859    -0.8732 H      1 <0>       0.0600
   32 H32      -0.5275     1.7763     0.9067 H      1 <0>       0.1000
   33 H33       1.1304     1.2446    -1.9986 H      1 <0>       0.1400
   34 H34       2.2209     0.1885    -3.9102 H      1 <0>       0.1400
   35 H35       1.8997    -5.9400    -4.3238 H      1 <0>       0.0800
   36 H36       2.6091    -4.9043    -5.5857 H      1 <0>       0.1000
   37 H37       2.7577    -6.9581    -5.9460 H      1 <0>       0.1300
   38 H38       3.7513    -8.9398    -7.0156 H      1 <0>       0.1300
   39 H39       6.8420   -10.5370    -5.8435 H      1 <0>       0.0900
   40 H40       5.3782   -10.7305    -6.8375 H      1 <0>       0.1000
   41 H41       9.3021   -11.5595    -9.0031 H      1 <0>       0.4200
   42 H42       7.2593    -8.4755    -4.6344 H      1 <0>       0.1400
   43 H43       6.2752    -6.4893    -3.5642 H      1 <0>       0.1300
   44 H44       1.8610    -5.3926    -1.1351 H      1 <0>       0.0800
   45 H45       0.1614    -4.8808    -1.2676 H      1 <0>       0.0900
   46 H46       0.8783    -5.9200    -2.5224 H      1 <0>       0.0900
   47 H47       0.2212    -2.5868    -0.3378 H      1 <0>       0.1300
@<TRIPOS>BOND
   1    1    2 1
   2    1   30 1
   3    1   31 1
   4    1   32 1
   5    2    3 1
   6    3   29 ar
   7    3    4 ar
   8    4    5 ar
   9    4   33 1
  10    5    6 ar
  11    5   34 1
  12    6   28 ar
  13    6    7 1
  14    7    8 2
  15    8    9 1
  16    8   26 1
  17    9   10 1
  18    9   35 1
  19    9   36 1
  20   10   11 1
  21   11   25 ar
  22   11   12 ar
  23   12   13 ar
  24   12   37 1
  25   13   14 ar
  26   13   38 1
  27   14   15 1
  28   14   24 ar
  29   15   16 1
  30   15   39 1
  31   15   40 1
  32   16   17 1
  33   16   22 1
  34   16   18 1
  35   18   19 1
  36   19   20 2
  37   19   21 am
  38   21   22 am
  39   21   41 1
  40   22   23 2
  41   24   25 ar
  42   24   42 1
  43   25   43 1
  44   26   27 1
  45   26   28 1
  46   27   44 1
  47   27   45 1
  48   27   46 1
  49   28   29 ar
  50   29   47 1
