@<TRIPOS>MOLECULE
ZINC000003944216
80    83    1     0     0
SMALL
USER_CHARGES
@<TRIPOS>ATOM
1      C1     -0.0173    1.4248    0.0099 C.3      1 ZINC000003944216    0.0200
2      O2      0.0021   -0.0041    0.0020 O.3      1 ZINC000003944216   -0.3000
3      C3      0.6062   -0.6075   -1.0564 C.ar     1 ZINC000003944216    0.1100
4      C4      1.1727    0.1587   -2.0618 C.ar     1 ZINC000003944216   -0.1700
5      C5      1.7870   -0.4565   -3.1372 C.ar     1 ZINC000003944216   -0.0600
6      C6      2.4028    0.3787   -4.2300 C.3      1 ZINC000003944216    0.1200
7      H7      2.4235   -0.1877   -5.1610 H        1 ZINC000003944216    0.1000
8      C8      3.8380    0.7856   -3.8326 C.3      1 ZINC000003944216   -0.1500
9      C9      3.9212    2.2477   -4.3497 C.3      1 ZINC000003944216   -0.1400
10     C10     2.4653    2.7248   -4.1182 C.3      1 ZINC000003944216    0.1200
11     H11     2.3292    3.0355   -3.0823 H        1 ZINC000003944216    0.0800
12     C12     2.1322    3.8599   -5.0519 C.ar     1 ZINC000003944216   -0.0100
13     C13     1.6844    3.5908   -6.3317 C.ar     1 ZINC000003944216   -0.2100
14     C14     1.3763    4.6323   -7.1937 C.ar     1 ZINC000003944216    0.1500
15     O15     0.9354    4.3666   -8.4525 O.3      1 ZINC000003944216   -0.3000
16     C16     0.8131    2.9911   -8.8202 C.3      1 ZINC000003944216    0.0200
17     C17     1.5183    5.9481   -6.7695 C.ar     1 ZINC000003944216    0.0300
18     O18     1.2166    6.9731   -7.6124 O.3      1 ZINC000003944216   -0.3100
19     C19    -0.1285    7.4553   -7.5921 C.3      1 ZINC000003944216    0.0400
20     C20     1.9688    6.2144   -5.4820 C.ar     1 ZINC000003944216    0.1500
21     O21     2.1090    7.5003   -5.0619 O.3      1 ZINC000003944216   -0.3000
22     C22     2.5767    7.6992   -3.7264 C.3      1 ZINC000003944216    0.0200
23     C23     2.2697    5.1671   -4.6243 C.ar     1 ZINC000003944216   -0.2300
24     O24     1.6441    1.5804   -4.4091 O.3      1 ZINC000003944216   -0.3600
25     C25     1.8380   -1.8356   -3.2117 C.ar     1 ZINC000003944216   -0.1100
26     C26     1.2740   -2.6064   -2.2116 C.ar     1 ZINC000003944216   -0.0900
27     C27     1.3314   -4.1100   -2.2962 C.3      1 ZINC000003944216    0.1900
28     N28     0.0495   -4.6207   -2.7880 N.am     1 ZINC000003944216   -0.7200
29     C29    -0.1319   -5.9469   -2.9451 C.2      1 ZINC000003944216    0.7300
30     O30     0.7684   -6.7195   -2.6788 O.2      1 ZINC000003944216   -0.5800
31     N31    -1.3113   -6.4168   -3.3976 N.am     1 ZINC000003944216   -0.5000
32     C32    -1.5085   -7.8584   -3.5684 C.3      1 ZINC000003944216    0.0900
33     O33    -2.3599   -5.5171   -3.7078 O.3      1 ZINC000003944216   -0.3400
34     C34     0.6617   -1.9965   -1.1290 C.ar     1 ZINC000003944216    0.0800
35     O35     0.1067   -2.7530   -0.1447 O.3      1 ZINC000003944216   -0.3100
36     C36     0.9505   -3.1126    0.9511 C.3      1 ZINC000003944216    0.0800
37     C37     0.1568   -3.9567    1.9504 C.3      1 ZINC000003944216   -0.1100
38     S38     1.2279   -4.4131    3.3414 S.3      1 ZINC000003944216   -0.0800
39     C39     0.1590   -5.3647    4.3692 C.ar     1 ZINC000003944216   -0.0800
40     C40    -1.1590   -5.5849    3.9880 C.ar     1 ZINC000003944216   -0.1200
41     C41    -1.9942   -6.3315    4.7954 C.ar     1 ZINC000003944216   -0.0900
42     C42    -1.5200   -6.8598    5.9834 C.ar     1 ZINC000003944216   -0.0400
43     Cl43   -2.5732   -7.7974    6.9960 Cl       1 ZINC000003944216   -0.0700
44     C44    -0.2077   -6.6426    6.3655 C.ar     1 ZINC000003944216   -0.0900
45     C45     0.6338   -5.9013    5.5598 C.ar     1 ZINC000003944216   -0.0900
46     H46     1.0053    1.8021    0.0021 H        1 ZINC000003944216    0.0600
47     H47    -0.5445    1.7859   -0.8732 H        1 ZINC000003944216    0.0600
48     H48    -0.5275    1.7763    0.9067 H        1 ZINC000003944216    0.1000
49     H49     1.1343    1.2366   -2.0060 H        1 ZINC000003944216    0.1400
50     H50     3.9661    0.7489   -2.7508 H        1 ZINC000003944216    0.0800
51     H51     4.5727    0.1548   -4.3330 H        1 ZINC000003944216    0.0900
52     H52     4.6253    2.8338   -3.7590 H        1 ZINC000003944216    0.0900
53     H53     4.1803    2.2759   -5.4081 H        1 ZINC000003944216    0.0900
54     H54     1.5747    2.5680   -6.6607 H        1 ZINC000003944216    0.1400
55     H55     0.1069    2.4979   -8.1523 H        1 ZINC000003944216    0.0600
56     H56     0.4530    2.9200   -9.8465 H        1 ZINC000003944216    0.1000
57     H57     1.7863    2.5063   -8.7423 H        1 ZINC000003944216    0.0600
58     H58    -0.3696    7.8173   -6.5926 H        1 ZINC000003944216    0.0400
59     H59    -0.2333    8.2699   -8.3087 H        1 ZINC000003944216    0.0900
60     H60    -0.8084    6.6464   -7.8594 H        1 ZINC000003944216    0.0400
61     H61     1.8822    7.2362   -3.0254 H        1 ZINC000003944216    0.0600
62     H62     3.5616    7.2456   -3.6150 H        1 ZINC000003944216    0.0600
63     H63     2.6432    8.7674   -3.5200 H        1 ZINC000003944216    0.1000
64     H64     2.6195    5.3732   -3.6235 H        1 ZINC000003944216    0.1400
65     H65     2.3190   -2.3124   -4.0529 H        1 ZINC000003944216    0.1300
66     H66     2.1268   -4.4053   -2.9805 H        1 ZINC000003944216    0.0800
67     H67     1.5315   -4.5221   -1.3071 H        1 ZINC000003944216    0.0800
68     H68    -0.6688   -4.0044   -3.0005 H        1 ZINC000003944216    0.4100
69     H69    -1.9012   -8.2834   -2.6446 H        1 ZINC000003944216    0.0600
70     H70    -2.2157   -8.0349   -4.3789 H        1 ZINC000003944216    0.0800
71     H71    -0.5554   -8.3295   -3.8088 H        1 ZINC000003944216    0.0900
72     H72    -3.1661   -5.9469   -4.0246 H        1 ZINC000003944216    0.3900
73     H73     1.7992   -3.6886    0.5823 H        1 ZINC000003944216    0.0700
74     H74     1.3108   -2.2095    1.4438 H        1 ZINC000003944216    0.0700
75     H75    -0.6919   -3.3807    2.3191 H        1 ZINC000003944216    0.1000
76     H76    -0.2035   -4.8597    1.4577 H        1 ZINC000003944216    0.1000
77     H77    -1.5299   -5.1723    3.0614 H        1 ZINC000003944216    0.1300
78     H78    -3.0187   -6.5030    4.4996 H        1 ZINC000003944216    0.1400
79     H79     0.1596   -7.0561    7.2931 H        1 ZINC000003944216    0.1400
80     H80     1.6579   -5.7324    5.8583 H        1 ZINC000003944216    0.1400
@<TRIPOS>BOND
1     1     2     1
2     1     46    1
3     1     47    1
4     1     48    1
5     2     3     1
6     3     34    ar
7     3     4     ar
8     4     5     ar
9     4     49    1
10    5     6     1
11    5     25    ar
12    6     7     1
13    6     24    1
14    6     8     1
15    8     9     1
16    8     50    1
17    8     51    1
18    9     10    1
19    9     52    1
20    9     53    1
21    10    11    1
22    10    12    1
23    10    24    1
24    12    23    ar
25    12    13    ar
26    13    14    ar
27    13    54    1
28    14    15    1
29    14    17    ar
30    15    16    1
31    16    55    1
32    16    56    1
33    16    57    1
34    17    18    1
35    17    20    ar
36    18    19    1
37    19    58    1
38    19    59    1
39    19    60    1
40    20    21    1
41    20    23    ar
42    21    22    1
43    22    61    1
44    22    62    1
45    22    63    1
46    23    64    1
47    25    26    ar
48    25    65    1
49    26    27    1
50    26    34    ar
51    27    28    1
52    27    66    1
53    27    67    1
54    28    29    am
55    28    68    1
56    29    30    2
57    29    31    am
58    31    32    1
59    31    33    1
60    32    69    1
61    32    70    1
62    32    71    1
63    33    72    1
64    34    35    1
65    35    36    1
66    36    37    1
67    36    73    1
68    36    74    1
69    37    38    1
70    37    75    1
71    37    76    1
72    38    39    1
73    39    45    ar
74    39    40    ar
75    40    41    ar
76    40    77    1
77    41    42    ar
78    41    78    1
79    42    43    1
80    42    44    ar
81    44    45    ar
82    44    79    1
83    45    80    1
@<TRIPOS>SUBSTRUCTURE
1   ZINC000003944216 1     RESIDUE    1   A     ZIN   1
