@<TRIPOS>MOLECULE
ZINC000003881648
  53   57    0    0    0
SMALL
USER_CHARGES
NO_NAME
@<TRIPOS>ATOM
    1 C1       -0.0187     1.5258     0.0104 C.3    1 <0>      -0.1500
    2 C2        0.0021    -0.0041     0.0020 C.3    1 <0>      -0.0500
    3 C3       -1.4051    -0.5330     0.1901 C.3    1 <0>      -0.1100
    4 C4       -1.9629     0.0933     1.4801 C.3    1 <0>      -0.1200
    5 C5       -1.0748    -0.2265     2.6772 C.3    1 <0>      -0.0700
    6 H6       -1.0893    -1.3023     2.8521 H      1 <0>       0.0800
    7 C7        0.3760     0.2213     2.4369 C.3    1 <0>      -0.0600
    8 H8        0.4043     1.2987     2.2739 H      1 <0>       0.1100
    9 C9        1.2140    -0.1301     3.6343 C.2    1 <0>      -0.1000
   10 C10       0.6945    -0.1569     4.8601 C.2    1 <0>      -0.1500
   11 C11      -0.7160     0.1483     5.0918 C.2    1 <0>       0.0300
   12 C12      -1.2129     0.1260     6.3518 C.2    1 <0>      -0.2400
   13 C13      -2.5654     0.3928     6.6168 C.2    1 <0>       0.3900
   14 O14      -2.9672     0.3771     7.7629 O.2    1 <0>      -0.4700
   15 C15      -3.5242     0.6990     5.4955 C.3    1 <0>      -0.1700
   16 C16      -3.0327     0.0141     4.2158 C.3    1 <0>      -0.1100
   17 C17      -1.5937     0.4874     3.9266 C.3    1 <0>      -0.0400
   18 C18      -1.5872     2.0012     3.7050 C.3    1 <0>      -0.1500
   19 C19       0.8604    -0.5205     1.1907 C.3    1 <0>      -0.0800
   20 H20       0.7414    -1.5963     1.3196 H      1 <0>       0.0900
   21 C21       2.2850    -0.1923     0.7281 C.3    1 <0>      -0.1200
   22 C22       2.2581    -0.5716    -0.7800 C.3    1 <0>      -0.1400
   23 C23       0.7633    -0.4962    -1.2131 C.3    1 <0>       0.1200
   24 C24       0.2743    -1.8794    -1.6736 C.3    1 <0>      -0.1500
   25 C25       0.5005    -1.8067    -3.2018 C.3    1 <0>      -0.1900
   26 C26       0.7188    -0.3370    -3.4918 C.2    1 <0>       0.4800
   27 O27       0.9641     0.1266    -4.5803 O.2    1 <0>      -0.4600
   28 O28       0.5995     0.3750    -2.3590 O.3    1 <0>      -0.3300
   29 H29       1.0030     1.9032    -0.0311 H      1 <0>       0.0600
   30 H30      -0.5747     1.8864    -0.8550 H      1 <0>       0.0600
   31 H31      -0.4991     1.8776     0.9234 H      1 <0>       0.0700
   32 H32      -2.0253    -0.2465    -0.6592 H      1 <0>       0.0700
   33 H33      -1.3833    -1.6187     0.2846 H      1 <0>       0.0700
   34 H34      -2.0200     1.1747     1.3564 H      1 <0>       0.0800
   35 H35      -2.9637    -0.2977     1.6632 H      1 <0>       0.0700
   36 H36       2.2590    -0.3660     3.4975 H      1 <0>       0.1200
   37 H37       1.3269    -0.4091     5.6985 H      1 <0>       0.1200
   38 H38      -0.5512    -0.1035     7.1739 H      1 <0>       0.1300
   39 H39      -4.5156     0.3252     5.7513 H      1 <0>       0.1000
   40 H40      -3.5689     1.7766     5.3381 H      1 <0>       0.1000
   41 H41      -3.0386    -1.0671     4.3545 H      1 <0>       0.0700
   42 H42      -3.6848     0.2817     3.3844 H      1 <0>       0.0800
   43 H43      -1.9604     2.5009     4.5989 H      1 <0>       0.0600
   44 H44      -0.5695     2.3341     3.5008 H      1 <0>       0.0600
   45 H45      -2.2269     2.2471     2.8574 H      1 <0>       0.0700
   46 H46       2.4966     0.8694     0.8549 H      1 <0>       0.0800
   47 H47       3.0142    -0.7987     1.2653 H      1 <0>       0.0700
   48 H48       2.8568     0.1346    -1.3553 H      1 <0>       0.0800
   49 H49       2.6355    -1.5847    -0.9189 H      1 <0>       0.0800
   50 H50       0.8746    -2.6727    -1.2283 H      1 <0>       0.1000
   51 H51      -0.7821    -2.0158    -1.4423 H      1 <0>       0.1000
   52 H52       1.3815    -2.3837    -3.4827 H      1 <0>       0.1100
   53 H53      -0.3784    -2.1718    -3.7331 H      1 <0>       0.1100
@<TRIPOS>BOND
   1    1    2 1
   2    1   29 1
   3    1   30 1
   4    1   31 1
   5    2   19 1
   6    2   23 1
   7    2    3 1
   8    3    4 1
   9    3   32 1
  10    3   33 1
  11    4    5 1
  12    4   34 1
  13    4   35 1
  14    5    6 1
  15    5   17 1
  16    5    7 1
  17    7    8 1
  18    7    9 1
  19    7   19 1
  20    9   10 2
  21    9   36 1
  22   10   11 1
  23   10   37 1
  24   11   17 1
  25   11   12 2
  26   12   13 1
  27   12   38 1
  28   13   14 2
  29   13   15 1
  30   15   16 1
  31   15   39 1
  32   15   40 1
  33   16   17 1
  34   16   41 1
  35   16   42 1
  36   17   18 1
  37   18   43 1
  38   18   44 1
  39   18   45 1
  40   19   20 1
  41   19   21 1
  42   21   22 1
  43   21   46 1
  44   21   47 1
  45   22   23 1
  46   22   48 1
  47   22   49 1
  48   23   28 1
  49   23   24 1
  50   24   25 1
  51   24   50 1
  52   24   51 1
  53   25   26 1
  54   25   52 1
  55   25   53 1
  56   26   27 2
  57   26   28 1
