@<TRIPOS>MOLECULE
ZINC000058583489
51    55    1     0     0
SMALL
USER_CHARGES
@<TRIPOS>ATOM
1      N1     -1.5826   -0.6282   -1.0948 N.1      1 ZINC000058583489   -0.4100
2      C2     -1.3544    0.4717   -0.9253 C.1      1 ZINC000058583489    0.2600
3      C3     -1.0669    1.8581   -0.7116 C.ar     1 ZINC000058583489   -0.0500
4      C4     -1.6145    2.8260   -1.5590 C.ar     1 ZINC000058583489   -0.0300
5      C5     -1.3363    4.1578   -1.3512 C.ar     1 ZINC000058583489   -0.1400
6      C6     -0.5101    4.5426   -0.2983 C.ar     1 ZINC000058583489    0.2800
7      N7     -0.2318    5.8896   -0.0914 N.pl3    1 ZINC000058583489   -0.4900
8      N8     -1.1763    6.9179   -0.0488 N.2      1 ZINC000058583489   -0.2300
9      C9     -0.6779    8.0687    0.2003 C.2      1 ZINC000058583489    0.1400
10     C10    -1.2871    9.4092    0.1391 C.ar     1 ZINC000058583489   -0.0500
11     C11    -2.6633    9.5900    0.2522 C.ar     1 ZINC000058583489   -0.0900
12     C12    -3.1908   10.8491    0.1773 C.ar     1 ZINC000058583489   -0.0900
13     C13    -2.3405   11.9444   -0.0135 C.ar     1 ZINC000058583489   -0.1100
14     C14    -2.9043   13.3015   -0.1017 C.2      1 ZINC000058583489    0.5200
15     O15    -4.1126   13.4692   -0.0082 O.co2    1 ZINC000058583489   -0.6800
16     O16    -2.1646   14.2617   -0.2685 O.co2    1 ZINC000058583489   -0.6800
17     C17    -0.9588   11.7579   -0.1205 C.ar     1 ZINC000058583489   -0.0900
18     C18    -0.4226   10.5004   -0.0400 C.ar     1 ZINC000058583489   -0.0700
19     C19     1.0680   10.3328   -0.1252 C.3      1 ZINC000058583489   -0.0800
20     C20     1.5003    8.9113   -0.4780 C.3      1 ZINC000058583489   -0.1200
21     C21     0.8159    7.9276    0.4726 C.3      1 ZINC000058583489   -0.1000
22     H22     1.0549    8.1515    1.5123 H        1 ZINC000058583489    0.1100
23     C23     1.1083    6.4659    0.1253 C.3      1 ZINC000058583489    0.1300
24     H24     1.6149    5.9687    0.9524 H        1 ZINC000058583489    0.0900
25     C25     1.9455    6.3725   -1.1519 C.3      1 ZINC000058583489   -0.1000
26     C26     2.3397    4.9016   -1.4352 C.3      1 ZINC000058583489   -0.1300
27     C27     2.6048    4.9067   -2.9612 C.3      1 ZINC000058583489   -0.1200
28     C28     1.5248    5.8503   -3.5297 C.3      1 ZINC000058583489   -0.1200
29     C29     1.1057    6.7822   -2.3792 C.3      1 ZINC000058583489   -0.1300
30     C30     0.0374    3.5825    0.5480 C.ar     1 ZINC000058583489   -0.1500
31     C31    -0.2415    2.2480    0.3495 C.ar     1 ZINC000058583489    0.0300
32     Cl32    0.4414    1.0507    1.4049 Cl       1 ZINC000058583489   -0.0500
33     H33    -2.2551    2.5289   -2.3762 H        1 ZINC000058583489    0.1500
34     H34    -1.7590    4.9055   -2.0059 H        1 ZINC000058583489    0.1400
35     H35    -3.3115    8.7387    0.3988 H        1 ZINC000058583489    0.1200
36     H36    -4.2569   10.9977    0.2653 H        1 ZINC000058583489    0.1300
37     H37    -0.3114   12.6097   -0.2677 H        1 ZINC000058583489    0.1300
38     H38     1.4532   11.0135   -0.8843 H        1 ZINC000058583489    0.0800
39     H39     1.5053   10.6024    0.8361 H        1 ZINC000058583489    0.0800
40     H40     1.2115    8.6871   -1.5048 H        1 ZINC000058583489    0.0900
41     H41     2.5819    8.8236   -0.3756 H        1 ZINC000058583489    0.0700
42     H42     2.8339    6.9988   -1.0712 H        1 ZINC000058583489    0.0900
43     H43     3.2423    4.6311   -0.8872 H        1 ZINC000058583489    0.0700
44     H44     1.5197    4.2274   -1.1878 H        1 ZINC000058583489    0.0700
45     H45     3.6009    5.2948   -3.1741 H        1 ZINC000058583489    0.0600
46     H46     2.4894    3.9036   -3.3718 H        1 ZINC000058583489    0.0600
47     H47     1.9355    6.4348   -4.3530 H        1 ZINC000058583489    0.0600
48     H48     0.6671    5.2720   -3.8732 H        1 ZINC000058583489    0.0600
49     H49     0.0445    6.6563   -2.1644 H        1 ZINC000058583489    0.0800
50     H50     1.3129    7.8190   -2.6442 H        1 ZINC000058583489    0.0700
51     H51     0.6780    3.8843    1.3635 H        1 ZINC000058583489    0.1400
@<TRIPOS>BOND
1     1     2     3
2     2     3     1
3     3     31    ar
4     3     4     ar
5     4     5     ar
6     4     33    1
7     5     6     ar
8     5     34    1
9     6     7     1
10    6     30    ar
11    7     23    1
12    7     8     1
13    8     9     2
14    9     21    1
15    9     10    1
16    10    18    ar
17    10    11    ar
18    11    12    ar
19    11    35    1
20    12    13    ar
21    12    36    1
22    13    14    1
23    13    17    ar
24    14    15    ar
25    14    16    ar
26    17    18    ar
27    17    37    1
28    18    19    1
29    19    20    1
30    19    38    1
31    19    39    1
32    20    21    1
33    20    40    1
34    20    41    1
35    21    22    1
36    21    23    1
37    23    24    1
38    23    25    1
39    25    29    1
40    25    26    1
41    25    42    1
42    26    27    1
43    26    43    1
44    26    44    1
45    27    28    1
46    27    45    1
47    27    46    1
48    28    29    1
49    28    47    1
50    28    48    1
51    29    49    1
52    29    50    1
53    30    31    ar
54    30    51    1
55    31    32    1
@<TRIPOS>SUBSTRUCTURE
1   ZINC000058583489 1     RESIDUE    1   A     ZIN   1
