@<TRIPOS>MOLECULE
ZINC000008214671
61    60    1     0     0
SMALL
USER_CHARGES
@<TRIPOS>ATOM
1      C1     -0.0187    1.5258    0.0104 C.3      1 ZINC000008214671   -0.1500
2      C2      0.0021   -0.0041    0.0020 C.3      1 ZINC000008214671   -0.1300
3      C3      0.7182   -0.4975   -1.2568 C.3      1 ZINC000008214671   -0.1200
4      C4      0.7390   -2.0273   -1.2652 C.3      1 ZINC000008214671   -0.1200
5      C5      1.4551   -2.5207   -2.5240 C.3      1 ZINC000008214671   -0.1200
6      C6      1.4758   -4.0506   -2.5324 C.3      1 ZINC000008214671   -0.1200
7      C7      2.1920   -4.5440   -3.7912 C.3      1 ZINC000008214671   -0.1200
8      C8      2.2127   -6.0738   -3.7996 C.3      1 ZINC000008214671   -0.1200
9      C9      2.9289   -6.5673   -5.0584 C.3      1 ZINC000008214671   -0.1200
10     C10     2.9496   -8.0971   -5.0668 C.3      1 ZINC000008214671   -0.1200
11     C11     3.6658   -8.5905   -6.3257 C.3      1 ZINC000008214671   -0.1200
12     C12     3.6865  -10.1203   -6.3341 C.3      1 ZINC000008214671   -0.1200
13     C13     4.4026  -10.6138   -7.5929 C.3      1 ZINC000008214671   -0.1200
14     C14     4.4234  -12.1436   -7.6013 C.3      1 ZINC000008214671   -0.1200
15     C15     5.1395  -12.6370   -8.8601 C.3      1 ZINC000008214671   -0.1700
16     C16     5.1603  -14.1669   -8.8685 C.3      1 ZINC000008214671    0.0900
17     H17     4.1425  -14.5446   -8.7712 H        1 ZINC000008214671    0.1500
18     O18     5.9499  -14.6385   -7.7749 O.3      1 ZINC000008214671   -0.5300
19     C19     5.7643  -14.6615  -10.1843 C.3      1 ZINC000008214671    0.0000
20     H20     5.1619  -14.3017  -11.0185 H        1 ZINC000008214671    0.1600
21     N21     7.1360  -14.1524  -10.3154 N.4      1 ZINC000008214671   -0.6400
22     H22     7.5343  -14.4786  -11.1832 H        1 ZINC000008214671    0.4500
23     H23     7.1223  -13.1435  -10.3099 H        1 ZINC000008214671    0.4400
24     H24     7.6936  -14.4855   -9.5432 H        1 ZINC000008214671    0.4300
25     C25     5.7850  -16.1913  -10.1928 C.3      1 ZINC000008214671    0.0500
26     O26     6.2401  -16.6545  -11.4657 O.3      1 ZINC000008214671   -0.5800
27     H27     1.0039    1.9031    0.0027 H        1 ZINC000008214671    0.0500
28     H28    -0.5459    1.8868   -0.8726 H        1 ZINC000008214671    0.0500
29     H29    -0.5289    1.8773    0.9072 H        1 ZINC000008214671    0.0500
30     H30     0.5293   -0.3651    0.8851 H        1 ZINC000008214671    0.0600
31     H31    -1.0205   -0.3814    0.0098 H        1 ZINC000008214671    0.0600
32     H32     0.1910   -0.1364   -2.1398 H        1 ZINC000008214671    0.0600
33     H33     1.7408   -0.1202   -1.2645 H        1 ZINC000008214671    0.0600
34     H34     1.2661   -2.3884   -0.3821 H        1 ZINC000008214671    0.0600
35     H35    -0.2836   -2.4046   -1.2575 H        1 ZINC000008214671    0.0600
36     H36     0.9279   -2.1597   -3.4071 H        1 ZINC000008214671    0.0600
37     H37     2.4777   -2.1435   -2.5317 H        1 ZINC000008214671    0.0600
38     H38     2.0030   -4.4117   -1.6494 H        1 ZINC000008214671    0.0600
39     H39     0.4533   -4.4279   -2.5247 H        1 ZINC000008214671    0.0600
40     H40     1.6648   -4.1829   -4.6743 H        1 ZINC000008214671    0.0600
41     H41     3.2146   -4.1667   -3.7990 H        1 ZINC000008214671    0.0600
42     H42     2.7399   -6.4349   -2.9166 H        1 ZINC000008214671    0.0600
43     H43     1.1901   -6.4511   -3.7919 H        1 ZINC000008214671    0.0600
44     H44     2.4017   -6.2062   -5.9415 H        1 ZINC000008214671    0.0600
45     H45     3.9515   -6.1900   -5.0662 H        1 ZINC000008214671    0.0600
46     H46     3.4768   -8.4582   -4.1838 H        1 ZINC000008214671    0.0600
47     H47     1.9270   -8.4744   -5.0591 H        1 ZINC000008214671    0.0600
48     H48     3.1386   -8.2294   -7.2087 H        1 ZINC000008214671    0.0600
49     H49     4.6884   -8.2132   -6.3334 H        1 ZINC000008214671    0.0600
50     H50     4.2137  -10.4814   -5.4510 H        1 ZINC000008214671    0.0600
51     H51     2.6639  -10.4976   -6.3263 H        1 ZINC000008214671    0.0600
52     H52     3.8755  -10.2527   -8.4759 H        1 ZINC000008214671    0.0600
53     H53     5.4252  -10.2365   -7.6006 H        1 ZINC000008214671    0.0600
54     H54     4.9506  -12.5047   -6.7182 H        1 ZINC000008214671    0.0800
55     H55     3.4008  -12.5209   -7.5935 H        1 ZINC000008214671    0.0700
56     H56     4.6123  -12.2759   -9.7431 H        1 ZINC000008214671    0.0900
57     H57     6.1621  -12.2597   -8.8678 H        1 ZINC000008214671    0.0700
58     H58     6.8696  -14.3406   -7.7965 H        1 ZINC000008214671    0.3700
59     H59     6.4579  -16.5498   -9.4138 H        1 ZINC000008214671    0.0800
60     H60     4.7797  -16.5693  -10.0067 H        1 ZINC000008214671    0.1000
61     H61     6.2786  -17.6177  -11.5430 H        1 ZINC000008214671    0.4100
@<TRIPOS>BOND
1     1     2     1
2     1     27    1
3     1     28    1
4     1     29    1
5     2     3     1
6     2     30    1
7     2     31    1
8     3     4     1
9     3     32    1
10    3     33    1
11    4     5     1
12    4     34    1
13    4     35    1
14    5     6     1
15    5     36    1
16    5     37    1
17    6     7     1
18    6     38    1
19    6     39    1
20    7     8     1
21    7     40    1
22    7     41    1
23    8     9     1
24    8     42    1
25    8     43    1
26    9     10    1
27    9     44    1
28    9     45    1
29    10    11    1
30    10    46    1
31    10    47    1
32    11    12    1
33    11    48    1
34    11    49    1
35    12    13    1
36    12    50    1
37    12    51    1
38    13    14    1
39    13    52    1
40    13    53    1
41    14    15    1
42    14    54    1
43    14    55    1
44    15    16    1
45    15    56    1
46    15    57    1
47    16    17    1
48    16    18    1
49    16    19    1
50    18    58    1
51    19    20    1
52    19    21    1
53    19    25    1
54    21    22    1
55    21    23    1
56    21    24    1
57    25    26    1
58    25    59    1
59    25    60    1
60    26    61    1
@<TRIPOS>SUBSTRUCTURE
1   ZINC000008214671 1     RESIDUE    1   A     ZIN   1
