@<TRIPOS>MOLECULE
ZINC000006718666
40    43    1     0     0
SMALL
USER_CHARGES
@<TRIPOS>ATOM
1      N1      0.0794    1.3052    0.9220 N.pl3    1 ZINC000006718666   -0.8000
2      C2      0.0774   -0.0305    0.5677 C.ar     1 ZINC000006718666    0.6400
3      N3     -1.0672   -0.5732    0.1654 N.ar     1 ZINC000006718666   -0.6300
4      C4     -1.1370   -1.8493   -0.1885 C.ar     1 ZINC000006718666    0.5500
5      N5     -2.3252   -2.4090   -0.6057 N.pl3    1 ZINC000006718666   -0.7900
6      C6      0.0910   -2.6430   -0.1214 C.ar     1 ZINC000006718666   -0.0900
7      N7      0.1143   -3.9291   -0.4573 N.ar     1 ZINC000006718666   -0.3700
8      C8      1.2489   -4.6042   -0.3803 C.ar     1 ZINC000006718666    0.1000
9      C9      1.2812   -6.0378   -0.7534 C.ar     1 ZINC000006718666   -0.0200
10     C10     2.3118   -6.5291   -1.5541 C.ar     1 ZINC000006718666   -0.1000
11     C11     2.3393   -7.8651   -1.9001 C.ar     1 ZINC000006718666   -0.1000
12     C12     1.3473   -8.7189   -1.4555 C.ar     1 ZINC000006718666   -0.1300
13     C13     0.3175   -8.2381   -0.6579 C.ar     1 ZINC000006718666    0.1000
14     O14    -0.6553   -9.0817   -0.2229 O.3      1 ZINC000006718666   -0.5000
15     C15     0.2847   -6.9007   -0.3003 C.ar     1 ZINC000006718666   -0.1100
16     C16     2.4323   -3.9629    0.0566 C.ar     1 ZINC000006718666    0.2200
17     C17     3.6973   -4.7291    0.1385 C.ar     1 ZINC000006718666   -0.0400
18     C18     3.7089   -6.0015    0.7098 C.ar     1 ZINC000006718666   -0.0900
19     C19     4.8892   -6.7133    0.7842 C.ar     1 ZINC000006718666   -0.1000
20     C20     6.0615   -6.1687    0.2944 C.ar     1 ZINC000006718666   -0.1200
21     C21     6.0592   -4.9028   -0.2759 C.ar     1 ZINC000006718666    0.1000
22     O22     7.2144   -4.3721   -0.7565 O.3      1 ZINC000006718666   -0.5000
23     C23     4.8792   -4.1832   -0.3605 C.ar     1 ZINC000006718666   -0.1000
24     N24     2.4160   -2.6832    0.3920 N.ar     1 ZINC000006718666   -0.4300
25     C25     1.2743   -1.9955    0.3176 C.ar     1 ZINC000006718666    0.3800
26     N26     1.2121   -0.6977    0.6417 N.ar     1 ZINC000006718666   -0.6000
27     H27     0.9016    1.7279    1.2157 H        1 ZINC000006718666    0.4200
28     H28    -0.7406    1.8211    0.8733 H        1 ZINC000006718666    0.4200
29     H29    -3.1292   -1.8676   -0.6443 H        1 ZINC000006718666    0.4200
30     H30    -2.3576   -3.3443   -0.8609 H        1 ZINC000006718666    0.4300
31     H31     3.0879   -5.8644   -1.9037 H        1 ZINC000006718666    0.1300
32     H32     3.1380   -8.2443   -2.5204 H        1 ZINC000006718666    0.1300
33     H33     1.3731   -9.7632   -1.7298 H        1 ZINC000006718666    0.1300
34     H34    -0.4601   -9.5031    0.6253 H        1 ZINC000006718666    0.3900
35     H35    -0.5155   -6.5256    0.3204 H        1 ZINC000006718666    0.1300
36     H36     2.7948   -6.4295    1.0940 H        1 ZINC000006718666    0.1300
37     H37     4.8968   -7.6984    1.2268 H        1 ZINC000006718666    0.1300
38     H38     6.9824   -6.7297    0.3558 H        1 ZINC000006718666    0.1300
39     H39     7.3835   -4.5752   -1.6867 H        1 ZINC000006718666    0.3900
40     H40     4.8759   -3.1984   -0.8038 H        1 ZINC000006718666    0.1400
@<TRIPOS>BOND
1     1     2     1
2     1     27    1
3     1     28    1
4     2     26    ar
5     2     3     ar
6     3     4     ar
7     4     5     1
8     4     6     ar
9     5     29    1
10    5     30    1
11    6     25    ar
12    6     7     ar
13    7     8     ar
14    8     9     1
15    8     16    ar
16    9     15    ar
17    9     10    ar
18    10    11    ar
19    10    31    1
20    11    12    ar
21    11    32    1
22    12    13    ar
23    12    33    1
24    13    14    1
25    13    15    ar
26    14    34    1
27    15    35    1
28    16    17    1
29    16    24    ar
30    17    23    ar
31    17    18    ar
32    18    19    ar
33    18    36    1
34    19    20    ar
35    19    37    1
36    20    21    ar
37    20    38    1
38    21    22    1
39    21    23    ar
40    22    39    1
41    23    40    1
42    24    25    ar
43    25    26    ar
@<TRIPOS>SUBSTRUCTURE
1   ZINC000006718666 1     RESIDUE    1   A     ZIN   1
