@<TRIPOS>MOLECULE
ZINC000003929532
79    80    1     0     0
SMALL
USER_CHARGES
@<TRIPOS>ATOM
1      N1     -0.2353    1.6257    0.0157 N.pl3    1 ZINC000003929532   -0.7900
2      C2     -0.1592    0.2978    0.0868 C.cat    1 ZINC000003929532    0.7400
3      N3      1.0303   -0.2995    0.1352 N.pl3    1 ZINC000003929532   -0.7900
4      H4      1.0857   -1.2666    0.1869 H        1 ZINC000003929532    0.4400
5      H5      1.8412    0.2325    0.1187 H        1 ZINC000003929532    0.4400
6      N6     -1.3027   -0.4525    0.1101 N.pl3    1 ZINC000003929532   -0.7000
7      C7     -2.6111    0.2045    0.0568 C.3      1 ZINC000003929532    0.0900
8      C8     -3.7152   -0.8539    0.0969 C.3      1 ZINC000003929532   -0.1400
9      C9     -5.0816   -0.1678    0.0413 C.3      1 ZINC000003929532   -0.1200
10     C10    -6.1815   -1.2280   -0.0438 C.3      1 ZINC000003929532    0.1400
11     H11    -6.0026   -1.8686   -0.9073 H        1 ZINC000003929532    0.1100
12     N12    -6.1734   -2.0391    1.1761 N.am     1 ZINC000003929532   -1.1000
13     S13    -6.5020   -3.6602    1.0948 S.o2     1 ZINC000003929532    2.6000
14     O14    -6.4359   -4.0993    2.4446 O.2      1 ZINC000003929532   -0.9400
15     O15    -7.7150   -3.7353    0.3585 O.2      1 ZINC000003929532   -0.9300
16     C16    -5.1291   -4.3525    0.1322 C.3      1 ZINC000003929532   -0.5800
17     C17    -5.3727   -5.8205   -0.1059 C.ar     1 ZINC000003929532   -0.1100
18     C18    -4.9095   -6.7542    0.8022 C.ar     1 ZINC000003929532   -0.1100
19     C19    -5.1329   -8.1008    0.5838 C.ar     1 ZINC000003929532   -0.1100
20     C20    -5.8198   -8.5136   -0.5425 C.ar     1 ZINC000003929532   -0.1000
21     C21    -6.2838   -7.5799   -1.4502 C.ar     1 ZINC000003929532   -0.1200
22     C22    -6.0641   -6.2331   -1.2296 C.ar     1 ZINC000003929532   -0.1000
23     C23    -7.5206   -0.5520   -0.1887 C.2      1 ZINC000003929532    0.5000
24     O24    -8.3832   -0.7302    0.6449 O.2      1 ZINC000003929532   -0.5000
25     N25    -7.7595    0.2507   -1.2447 N.am     1 ZINC000003929532   -0.7200
26     C26    -9.0613    0.9078   -1.3856 C.3      1 ZINC000003929532    0.1000
27     C27    -9.0696    1.7422   -2.6405 C.2      1 ZINC000003929532    0.5200
28     O28    -8.0851    1.7839   -3.3475 O.2      1 ZINC000003929532   -0.5300
29     N29   -10.1711    2.4421   -2.9770 N.am     1 ZINC000003929532   -0.7100
30     C30   -10.1792    3.2533   -4.1969 C.3      1 ZINC000003929532    0.1300
31     H31    -9.5897    2.7565   -4.9675 H        1 ZINC000003929532    0.1300
32     C32   -11.6187    3.4237   -4.6866 C.3      1 ZINC000003929532   -0.1200
33     C33   -12.1806    2.0625   -5.1018 C.3      1 ZINC000003929532   -0.1300
34     C34   -13.6200    2.2329   -5.5915 C.3      1 ZINC000003929532    0.0900
35     N35   -14.1581    0.9295   -5.9891 N.pl3    1 ZINC000003929532   -0.7000
36     C36   -15.4376    0.8336   -6.4632 C.cat    1 ZINC000003929532    0.7400
37     N37   -16.1943    1.9251   -6.5633 N.pl3    1 ZINC000003929532   -0.7900
38     N38   -15.9268   -0.3514   -6.8247 N.pl3    1 ZINC000003929532   -0.7900
39     H39   -15.3757   -1.1463   -6.7518 H        1 ZINC000003929532    0.4400
40     H40   -16.8341   -0.4194   -7.1608 H        1 ZINC000003929532    0.4400
41     C41    -9.5846    4.6068   -3.9042 C.2      1 ZINC000003929532    0.4300
42     O42    -9.4445    4.9723   -2.7556 O.2      1 ZINC000003929532   -0.4200
43     C43    -9.1762    5.4804   -5.0053 C.2      1 ZINC000003929532   -0.0800
44     N44    -9.2826    5.1995   -6.2787 N.2      1 ZINC000003929532   -0.4100
45     C45    -8.8590    6.1182   -7.1024 C.2      1 ZINC000003929532    0.0200
46     C46    -8.3685    7.2337   -6.5328 C.2      1 ZINC000003929532   -0.2600
47     S47    -8.4687    7.0836   -4.8316 S.3      1 ZINC000003929532    0.2600
48     H48     0.5756    2.1577   -0.0008 H        1 ZINC000003929532    0.4400
49     H49    -1.1015    2.0604   -0.0236 H        1 ZINC000003929532    0.4400
50     H50    -1.2473   -1.4195    0.1618 H        1 ZINC000003929532    0.4400
51     H51    -2.7171    0.8727    0.9114 H        1 ZINC000003929532    0.1000
52     H52    -2.6919    0.7790   -0.8659 H        1 ZINC000003929532    0.1000
53     H53    -3.6091   -1.5222   -0.7576 H        1 ZINC000003929532    0.0900
54     H54    -3.6344   -1.4285    1.0197 H        1 ZINC000003929532    0.0900
55     H55    -5.2239    0.4319    0.9403 H        1 ZINC000003929532    0.0900
56     H56    -5.1292    0.4764   -0.8366 H        1 ZINC000003929532    0.0900
57     H57    -5.9756   -1.6267    2.0315 H        1 ZINC000003929532    0.4200
58     H58    -5.0596   -3.8358   -0.8250 H        1 ZINC000003929532    0.1400
59     H59    -4.1976   -4.2235    0.6833 H        1 ZINC000003929532    0.1400
60     H60    -4.3728   -6.4316    1.6821 H        1 ZINC000003929532    0.1300
61     H61    -4.7704   -8.8302    1.2929 H        1 ZINC000003929532    0.1300
62     H62    -5.9938   -9.5657   -0.7135 H        1 ZINC000003929532    0.1300
63     H63    -6.8202   -7.9025   -2.3303 H        1 ZINC000003929532    0.1300
64     H64    -6.4266   -5.5036   -1.9387 H        1 ZINC000003929532    0.1300
65     H65    -7.0696    0.3932   -1.9115 H        1 ZINC000003929532    0.4100
66     H66    -9.8449    0.1525   -1.4462 H        1 ZINC000003929532    0.1100
67     H67    -9.2402    1.5484   -0.5221 H        1 ZINC000003929532    0.1100
68     H68   -10.9585    2.4088   -2.4115 H        1 ZINC000003929532    0.4100
69     H69   -12.2285    3.8391   -3.8844 H        1 ZINC000003929532    0.0900
70     H70   -11.6340    4.0993   -5.5418 H        1 ZINC000003929532    0.1000
71     H71   -11.5707    1.6471   -5.9041 H        1 ZINC000003929532    0.0900
72     H72   -12.1652    1.3869   -4.2466 H        1 ZINC000003929532    0.0900
73     H73   -14.2299    2.6483   -4.7893 H        1 ZINC000003929532    0.0900
74     H74   -13.6354    2.9085   -6.4467 H        1 ZINC000003929532    0.1000
75     H75   -13.6070    0.1346   -5.9162 H        1 ZINC000003929532    0.4400
76     H76   -15.8381    2.7881   -6.3000 H        1 ZINC000003929532    0.4400
77     H77   -17.1017    1.8571   -6.8994 H        1 ZINC000003929532    0.4400
78     H78    -8.8993    5.9910   -8.1742 H        1 ZINC000003929532    0.1800
79     H79    -7.9778    8.0889   -7.0643 H        1 ZINC000003929532    0.1900
@<TRIPOS>BOND
1     1     2     ar
2     1     48    1
3     1     49    1
4     2     3     ar
5     2     6     ar
6     3     4     1
7     3     5     1
8     6     7     1
9     6     50    1
10    7     8     1
11    7     51    1
12    7     52    1
13    8     9     1
14    8     53    1
15    8     54    1
16    9     10    1
17    9     55    1
18    9     56    1
19    10    11    1
20    10    12    1
21    10    23    1
22    12    13    am
23    12    57    1
24    13    14    2
25    13    15    2
26    13    16    1
27    16    17    1
28    16    58    1
29    16    59    1
30    17    22    ar
31    17    18    ar
32    18    19    ar
33    18    60    1
34    19    20    ar
35    19    61    1
36    20    21    ar
37    20    62    1
38    21    22    ar
39    21    63    1
40    22    64    1
41    23    24    2
42    23    25    am
43    25    26    1
44    25    65    1
45    26    27    1
46    26    66    1
47    26    67    1
48    27    28    2
49    27    29    am
50    29    30    1
51    29    68    1
52    30    31    1
53    30    32    1
54    30    41    1
55    32    33    1
56    32    69    1
57    32    70    1
58    33    34    1
59    33    71    1
60    33    72    1
61    34    35    1
62    34    73    1
63    34    74    1
64    35    36    ar
65    35    75    1
66    36    37    ar
67    36    38    ar
68    37    76    1
69    37    77    1
70    38    39    1
71    38    40    1
72    41    42    2
73    41    43    1
74    43    47    1
75    43    44    2
76    44    45    1
77    45    46    2
78    45    78    1
79    46    47    1
80    46    79    1
@<TRIPOS>SUBSTRUCTURE
1   ZINC000003929532 1     RESIDUE    1   A     ZIN   1
