@<TRIPOS>MOLECULE
ZINC000028771591
73    78    1     0     0
SMALL
USER_CHARGES
@<TRIPOS>ATOM
1      C1      1.6230    1.4516    0.6484 C.3      1 ZINC000028771591   -0.1500
2      C2      1.4653   -0.0683    0.5714 C.3      1 ZINC000028771591    0.0700
3      O3      1.7031   -0.5045   -0.7685 O.3      1 ZINC000028771591   -0.3400
4      C4      1.6027   -1.8296   -1.0088 C.2      1 ZINC000028771591    0.5200
5      O5      1.3206   -2.5930   -0.1030 O.2      1 ZINC000028771591   -0.5100
6      C6      1.8242   -2.3282   -2.3058 C.2      1 ZINC000028771591   -0.2300
7      C7      1.5919   -3.6440   -2.5639 C.2      1 ZINC000028771591    0.2700
8      C8      1.1040   -4.5264   -1.4874 C.ar     1 ZINC000028771591   -0.0500
9      C9     -0.1736   -4.3382   -0.9520 C.ar     1 ZINC000028771591   -0.0400
10     C10    -0.6255   -5.1640    0.0529 C.ar     1 ZINC000028771591   -0.1000
11     C11     0.1873   -6.1843    0.5353 C.ar     1 ZINC000028771591    0.1300
12     N12    -0.2751   -7.0205    1.5555 N.pl3    1 ZINC000028771591   -0.4400
13     C13    -0.5730   -6.6484    2.8342 C.2      1 ZINC000028771591    0.3000
14     C14    -0.4533   -5.2473    3.3759 C.3      1 ZINC000028771591   -0.0800
15     N15    -0.9761   -7.6801    3.5172 N.2      1 ZINC000028771591   -0.4700
16     C16    -0.9652   -8.7833    2.7275 C.ar     1 ZINC000028771591    0.0000
17     C17    -1.2877  -10.1261    2.9210 C.ar     1 ZINC000028771591    0.1700
18     N18    -1.1703  -10.9862    1.9310 N.ar     1 ZINC000028771591   -0.4800
19     C19    -0.7502  -10.6296    0.7290 C.ar     1 ZINC000028771591    0.1000
20     C20    -0.4098   -9.3232    0.4489 C.ar     1 ZINC000028771591   -0.1600
21     C21    -0.5202   -8.3718    1.4556 C.ar     1 ZINC000028771591    0.0800
22     C22     1.4588   -6.3751    0.0049 C.ar     1 ZINC000028771591   -0.1100
23     C23     1.9158   -5.5567   -1.0039 C.ar     1 ZINC000028771591   -0.0800
24     N24     1.8088   -4.1576   -3.8237 N.pl3    1 ZINC000028771591   -0.6200
25     C25     2.5817   -3.4732   -4.7215 C.2      1 ZINC000028771591    0.2300
26     C26     3.1405   -4.1947   -5.9207 C.3      1 ZINC000028771591   -0.1100
27     C27     2.8498   -2.1687   -4.5510 C.2      1 ZINC000028771591   -0.2700
28     C28     3.6613   -1.5023   -5.5005 C.2      1 ZINC000028771591    0.5600
29     O29     4.1060   -2.1120   -6.4561 O.2      1 ZINC000028771591   -0.4800
30     N30     3.9417   -0.1930   -5.3468 N.am     1 ZINC000028771591   -0.6600
31     C31     4.6496    0.4883   -6.3342 C.ar     1 ZINC000028771591    0.3600
32     C32     4.8404    1.8608   -6.2220 C.ar     1 ZINC000028771591   -0.2100
33     C33     5.5460    2.5252   -7.2098 C.ar     1 ZINC000028771591   -0.0500
34     C34     6.0382    1.7909   -8.2799 C.ar     1 ZINC000028771591   -0.2100
35     C35     5.8113    0.4294   -8.3271 C.ar     1 ZINC000028771591    0.1300
36     N36     5.1393   -0.1780   -7.3682 N.ar     1 ZINC000028771591   -0.4800
37     C37     2.3067   -1.3966   -3.3812 C.3      1 ZINC000028771591    0.0600
38     H38     3.0943   -0.7632   -2.9729 H        1 ZINC000028771591    0.1000
39     C39     1.1650   -0.5299   -3.8463 C.ar     1 ZINC000028771591   -0.0700
40     C40     0.0448   -1.1079   -4.4128 C.ar     1 ZINC000028771591   -0.0900
41     C41    -1.0028   -0.3129   -4.8396 C.ar     1 ZINC000028771591   -0.1100
42     C42    -0.9302    1.0603   -4.7004 C.ar     1 ZINC000028771591   -0.1100
43     C43     0.1898    1.6397   -4.1339 C.ar     1 ZINC000028771591   -0.1100
44     C44     1.2356    0.8444   -3.7011 C.ar     1 ZINC000028771591   -0.0300
45     Cl45    2.6424    1.5712   -2.9895 Cl       1 ZINC000028771591   -0.0600
46     H46     2.6346    1.7275    0.3506 H        1 ZINC000028771591    0.0700
47     H47     0.9052    1.9258   -0.0208 H        1 ZINC000028771591    0.0700
48     H48     1.4416    1.7843    1.6704 H        1 ZINC000028771591    0.0800
49     H49     2.1831   -0.5425    1.2406 H        1 ZINC000028771591    0.0700
50     H50     0.4537   -0.3442    0.8692 H        1 ZINC000028771591    0.0600
51     H51    -0.8052   -3.5459   -1.3258 H        1 ZINC000028771591    0.1300
52     H52    -1.6122   -5.0190    0.4673 H        1 ZINC000028771591    0.1300
53     H53    -1.3939   -4.7177    3.2248 H        1 ZINC000028771591    0.0900
54     H54    -0.2262   -5.2878    4.4412 H        1 ZINC000028771591    0.1000
55     H55     0.3469   -4.7229    2.8536 H        1 ZINC000028771591    0.0900
56     H56    -1.6347  -10.4621    3.8870 H        1 ZINC000028771591    0.1700
57     H57    -0.6718  -11.3757   -0.0478 H        1 ZINC000028771591    0.1600
58     H58    -0.0675   -9.0435   -0.5366 H        1 ZINC000028771591    0.1300
59     H59     2.0869   -7.1686    0.3818 H        1 ZINC000028771591    0.1300
60     H60     2.9032   -5.7054   -1.4152 H        1 ZINC000028771591    0.1400
61     H61     1.4127   -5.0067   -4.0747 H        1 ZINC000028771591    0.4300
62     H62     2.8237   -5.2374   -5.8975 H        1 ZINC000028771591    0.0600
63     H63     2.7727   -3.7235   -6.8322 H        1 ZINC000028771591    0.1000
64     H64     4.2291   -4.1452   -5.8998 H        1 ZINC000028771591    0.1100
65     H65     3.6505    0.2749   -4.5485 H        1 ZINC000028771591    0.4100
66     H66     4.4430    2.4013   -5.3756 H        1 ZINC000028771591    0.1300
67     H67     5.7096    3.5911   -7.1497 H        1 ZINC000028771591    0.1400
68     H68     6.5927    2.2792   -9.0677 H        1 ZINC000028771591    0.1400
69     H69     6.1921   -0.1460   -9.1580 H        1 ZINC000028771591    0.1600
70     H70    -0.0122   -2.1808   -4.5225 H        1 ZINC000028771591    0.1200
71     H71    -1.8780   -0.7651   -5.2823 H        1 ZINC000028771591    0.1300
72     H72    -1.7485    1.6809   -5.0347 H        1 ZINC000028771591    0.1300
73     H73     0.2463    2.7127   -4.0252 H        1 ZINC000028771591    0.1400
@<TRIPOS>BOND
1     1     2     1
2     1     46    1
3     1     47    1
4     1     48    1
5     2     3     1
6     2     49    1
7     2     50    1
8     3     4     1
9     4     5     2
10    4     6     1
11    6     37    1
12    6     7     2
13    7     8     1
14    7     24    1
15    8     23    ar
16    8     9     ar
17    9     10    ar
18    9     51    1
19    10    11    ar
20    10    52    1
21    11    12    1
22    11    22    ar
23    12    21    1
24    12    13    1
25    13    14    1
26    13    15    2
27    14    53    1
28    14    54    1
29    14    55    1
30    15    16    1
31    16    21    ar
32    16    17    ar
33    17    18    ar
34    17    56    1
35    18    19    ar
36    19    20    ar
37    19    57    1
38    20    21    ar
39    20    58    1
40    22    23    ar
41    22    59    1
42    23    60    1
43    24    25    1
44    24    61    1
45    25    26    1
46    25    27    2
47    26    62    1
48    26    63    1
49    26    64    1
50    27    28    1
51    27    37    1
52    28    29    2
53    28    30    am
54    30    31    1
55    30    65    1
56    31    36    ar
57    31    32    ar
58    32    33    ar
59    32    66    1
60    33    34    ar
61    33    67    1
62    34    35    ar
63    34    68    1
64    35    36    ar
65    35    69    1
66    37    38    1
67    37    39    1
68    39    44    ar
69    39    40    ar
70    40    41    ar
71    40    70    1
72    41    42    ar
73    41    71    1
74    42    43    ar
75    42    72    1
76    43    44    ar
77    43    73    1
78    44    45    1
@<TRIPOS>SUBSTRUCTURE
1   ZINC000028771591 1     RESIDUE    1   A     ZIN   1
