@<TRIPOS>MOLECULE
ZINC000038477407
  48   50    0    0    0
SMALL
USER_CHARGES
NO_NAME
@<TRIPOS>ATOM
    1 C1       -0.0187     1.5258     0.0104 C.3    1 <0>      -0.1500
    2 C2        0.0021    -0.0041     0.0020 C.3    1 <0>      -0.0400
    3 C3        0.7074    -0.4901    -1.2379 C.2    1 <0>       0.2500
    4 N4        0.1312    -0.7359    -2.3795 N.2    1 <0>      -0.4600
    5 C5        1.0584    -1.1552    -3.2735 C.ar   1 <0>      -0.0500
    6 C6        2.2892    -1.1597    -2.6098 C.ar   1 <0>       0.1000
    7 C7        3.4670    -1.5768    -3.3583 C.ar   1 <0>      -0.1100
    8 C8        4.7375    -1.6125    -2.7758 C.ar   1 <0>      -0.0900
    9 C9        5.8108    -2.0111    -3.5186 C.ar   1 <0>      -0.1400
   10 C10       5.6550    -2.3826    -4.8495 C.ar   1 <0>      -0.0900
   11 C11       4.4295    -2.3586    -5.4462 C.ar   1 <0>      -0.1100
   12 C12       3.3037    -1.9543    -4.7136 C.ar   1 <0>       0.1900
   13 N13       2.0880    -1.9234    -5.2802 N.ar   1 <0>      -0.5700
   14 C14       1.0098    -1.5514    -4.6293 C.ar   1 <0>       0.5100
   15 N15      -0.2078    -1.5484    -5.2888 N.pl3  1 <0>      -0.8300
   16 N16       2.0435    -0.7324    -1.3342 N.pl3  1 <0>      -0.4500
   17 C17       3.0336    -0.5737    -0.2661 C.3    1 <0>       0.1000
   18 C18       3.6053     0.8448    -0.3073 C.3    1 <0>      -0.1400
   19 C19       4.6393     1.0105     0.8082 C.3    1 <0>      -0.1200
   20 C20       5.2111     2.4291     0.7670 C.3    1 <0>       0.1100
   21 N21       6.2012     2.5877     1.8351 N.am   1 <0>      -1.1200
   22 S22       7.2461     3.8722     1.8114 S.o2   1 <0>       2.6200
   23 C23       6.1803     5.3264     2.0119 C.3    1 <0>      -0.6700
   24 O24       8.0569     3.6856     2.9633 O.2    1 <0>      -0.9600
   25 O25       7.8086     3.8423     0.5068 O.2    1 <0>      -0.9500
   26 H26       1.0039     1.9031     0.0027 H      1 <0>       0.0600
   27 H27      -0.5459     1.8868    -0.8726 H      1 <0>       0.0700
   28 H28      -0.5289     1.8773     0.9072 H      1 <0>       0.0700
   29 H29       0.5293    -0.3651     0.8851 H      1 <0>       0.0800
   30 H30      -1.0205    -0.3814     0.0098 H      1 <0>       0.1000
   31 H31       4.8690    -1.3255    -1.7429 H      1 <0>       0.1200
   32 H32       6.7919    -2.0380    -3.0679 H      1 <0>       0.1300
   33 H33       6.5179    -2.6945    -5.4191 H      1 <0>       0.1300
   34 H34       4.3257    -2.6499    -6.4810 H      1 <0>       0.1400
   35 H35      -0.2561    -1.8187    -6.2192 H      1 <0>       0.4100
   36 H36      -1.0124    -1.2760    -4.8205 H      1 <0>       0.4200
   37 H37       2.5574    -0.7457     0.6992 H      1 <0>       0.1000
   38 H38       3.8391    -1.2943    -0.4075 H      1 <0>       0.1000
   39 H39       4.0814     1.0168    -1.2726 H      1 <0>       0.0800
   40 H40       2.7998     1.5655    -0.1660 H      1 <0>       0.0800
   41 H41       4.1632     0.8385     1.7735 H      1 <0>       0.0800
   42 H42       5.4448     0.2899     0.6668 H      1 <0>       0.0800
   43 H43       5.6872     2.6010    -0.1983 H      1 <0>       0.0800
   44 H44       4.4055     3.1497     0.9083 H      1 <0>       0.0700
   45 H45       6.2447     1.9403     2.5561 H      1 <0>       0.4200
   46 H46       5.6436     5.2558     2.9580 H      1 <0>       0.1300
   47 H47       6.7921     6.2285     2.0076 H      1 <0>       0.1300
   48 H48       5.4649     5.3686     1.1906 H      1 <0>       0.1300
@<TRIPOS>BOND
   1    1    2 1
   2    1   26 1
   3    1   27 1
   4    1   28 1
   5    2    3 1
   6    2   29 1
   7    2   30 1
   8    3   16 1
   9    3    4 2
  10    4    5 1
  11    5   14 ar
  12    5    6 ar
  13    6    7 ar
  14    6   16 1
  15    7   12 ar
  16    7    8 ar
  17    8    9 ar
  18    8   31 1
  19    9   10 ar
  20    9   32 1
  21   10   11 ar
  22   10   33 1
  23   11   12 ar
  24   11   34 1
  25   12   13 ar
  26   13   14 ar
  27   14   15 1
  28   15   35 1
  29   15   36 1
  30   16   17 1
  31   17   18 1
  32   17   37 1
  33   17   38 1
  34   18   19 1
  35   18   39 1
  36   18   40 1
  37   19   20 1
  38   19   41 1
  39   19   42 1
  40   20   21 1
  41   20   43 1
  42   20   44 1
  43   21   22 am
  44   21   45 1
  45   22   23 1
  46   22   24 2
  47   22   25 2
  48   23   46 1
  49   23   47 1
  50   23   48 1
