@<TRIPOS>MOLECULE
ZINC000000602902
56    59    1     0     0
SMALL
USER_CHARGES
@<TRIPOS>ATOM
1      C1      0.0014    1.5773    0.0347 C.3      1 ZINC000000602902   -0.1500
2      C2      0.0119    0.0474    0.0183 C.3      1 ZINC000000602902   -0.0800
3      C3      0.7388   -0.4630    1.2357 C.ar     1 ZINC000000602902   -0.1200
4      C4      2.1037   -0.6777    1.1851 C.ar     1 ZINC000000602902   -0.0800
5      C5      2.7723   -1.1456    2.2997 C.ar     1 ZINC000000602902   -0.1500
6      C6      2.0731   -1.3995    3.4708 C.ar     1 ZINC000000602902    0.1300
7      O7      2.7287   -1.8594    4.5688 O.3      1 ZINC000000602902   -0.3200
8      C8      1.9449   -2.0989    5.7394 C.3      1 ZINC000000602902    0.1100
9      C9      2.8357   -2.6014    6.8463 C.ar     1 ZINC000000602902   -0.0300
10     C10     4.1890   -2.7550    6.6285 C.ar     1 ZINC000000602902   -0.1100
11     C11     5.0083   -3.2163    7.6438 C.ar     1 ZINC000000602902   -0.0900
12     C12     4.4770   -3.5264    8.8829 C.ar     1 ZINC000000602902   -0.1300
13     C13     3.1249   -3.3777    9.1139 C.ar     1 ZINC000000602902   -0.0800
14     C14     2.2938   -2.9070    8.0961 C.ar     1 ZINC000000602902   -0.1400
15     C15     0.8445   -2.7447    8.3366 C.2      1 ZINC000000602902    0.5600
16     O16     0.1231   -2.3345    7.4482 O.2      1 ZINC000000602902   -0.5100
17     N17     0.3227   -3.0516    9.5408 N.am     1 ZINC000000602902   -0.6700
18     C18    -1.0304   -2.8078    9.7995 C.ar     1 ZINC000000602902    0.1400
19     C19    -1.9724   -2.9713    8.7789 C.ar     1 ZINC000000602902   -0.0900
20     C20    -3.2941   -2.7416    9.0031 C.ar     1 ZINC000000602902   -0.0900
21     C21    -3.7307   -2.3336   10.2753 C.ar     1 ZINC000000602902    0.1600
22     N22    -5.0275   -2.1034   10.5148 N.ar     1 ZINC000000602902   -0.5200
23     C23    -5.4537   -1.7224   11.6960 C.ar     1 ZINC000000602902    0.2000
24     C24    -6.9270   -1.4798   11.8994 C.3      1 ZINC000000602902   -0.1100
25     C25    -4.5856   -1.5368   12.7640 C.ar     1 ZINC000000602902   -0.2700
26     C26    -3.2287   -1.7562   12.5912 C.ar     1 ZINC000000602902    0.2700
27     N27    -2.3362   -1.5789   13.6382 N.pl3    1 ZINC000000602902   -0.8500
28     C28    -2.7814   -2.1666   11.3119 C.ar     1 ZINC000000602902   -0.1400
29     C29    -1.4257   -2.4137   11.0604 C.ar     1 ZINC000000602902   -0.1200
30     C30     0.7037   -1.1828    3.5192 C.ar     1 ZINC000000602902   -0.2000
31     C31     0.0405   -0.7103    2.4032 C.ar     1 ZINC000000602902   -0.0800
32     H32     1.0265    1.9477    0.0277 H        1 ZINC000000602902    0.0600
33     H33    -0.5243    1.9465   -0.8459 H        1 ZINC000000602902    0.0600
34     H34    -0.5054    1.9276    0.9338 H        1 ZINC000000602902    0.0500
35     H35    -1.0132   -0.3230    0.0253 H        1 ZINC000000602902    0.0700
36     H36     0.5187   -0.3029   -0.8809 H        1 ZINC000000602902    0.0700
37     H37     2.6475   -0.4799    0.2732 H        1 ZINC000000602902    0.1300
38     H38     3.8384   -1.3138    2.2595 H        1 ZINC000000602902    0.1300
39     H39     1.4654   -1.1712    6.0517 H        1 ZINC000000602902    0.0900
40     H40     1.1822   -2.8459    5.5194 H        1 ZINC000000602902    0.0900
41     H41     4.6101   -2.5150    5.6633 H        1 ZINC000000602902    0.1400
42     H42     6.0673   -3.3351    7.4680 H        1 ZINC000000602902    0.1300
43     H43     5.1219   -3.8859    9.6710 H        1 ZINC000000602902    0.1300
44     H44     2.7112   -3.6208   10.0815 H        1 ZINC000000602902    0.1300
45     H45     0.8853   -3.4414   10.2281 H        1 ZINC000000602902    0.4100
46     H46    -1.6456   -3.2842    7.7982 H        1 ZINC000000602902    0.1500
47     H47    -4.0081   -2.8723    8.2034 H        1 ZINC000000602902    0.1400
48     H48    -7.4065   -2.4045   12.2208 H        1 ZINC000000602902    0.0800
49     H49    -7.0672   -0.7138   12.6621 H        1 ZINC000000602902    0.0800
50     H50    -7.3730   -1.1458   10.9626 H        1 ZINC000000602902    0.0800
51     H51    -4.9665   -1.2225   13.7245 H        1 ZINC000000602902    0.1300
52     H52    -2.6593   -1.2970   14.5084 H        1 ZINC000000602902    0.4100
53     H53    -1.3892   -1.7368   13.5003 H        1 ZINC000000602902    0.4000
54     H54    -0.6954   -2.2930   11.8469 H        1 ZINC000000602902    0.1200
55     H55     0.1572   -1.3801    4.4295 H        1 ZINC000000602902    0.1300
56     H56    -1.0255   -0.5411    2.4405 H        1 ZINC000000602902    0.1200
@<TRIPOS>BOND
1     1     2     1
2     1     32    1
3     1     33    1
4     1     34    1
5     2     3     1
6     2     35    1
7     2     36    1
8     3     31    ar
9     3     4     ar
10    4     5     ar
11    4     37    1
12    5     6     ar
13    5     38    1
14    6     7     1
15    6     30    ar
16    7     8     1
17    8     9     1
18    8     39    1
19    8     40    1
20    9     14    ar
21    9     10    ar
22    10    11    ar
23    10    41    1
24    11    12    ar
25    11    42    1
26    12    13    ar
27    12    43    1
28    13    14    ar
29    13    44    1
30    14    15    1
31    15    16    2
32    15    17    am
33    17    18    1
34    17    45    1
35    18    29    ar
36    18    19    ar
37    19    20    ar
38    19    46    1
39    20    21    ar
40    20    47    1
41    21    28    ar
42    21    22    ar
43    22    23    ar
44    23    24    1
45    23    25    ar
46    24    48    1
47    24    49    1
48    24    50    1
49    25    26    ar
50    25    51    1
51    26    27    1
52    26    28    ar
53    27    52    1
54    27    53    1
55    28    29    ar
56    29    54    1
57    30    31    ar
58    30    55    1
59    31    56    1
@<TRIPOS>SUBSTRUCTURE
1   ZINC000000602902 1     RESIDUE    1   A     ZIN   1
