@<TRIPOS>MOLECULE
ZINC000043171152
81    85    1     0     0
SMALL
USER_CHARGES
@<TRIPOS>ATOM
1      C1     -6.8627   -1.1731   -0.1109 C.3      1 ZINC000043171152   -0.1600
2      C2     -5.4815   -0.7056    0.3523 C.3      1 ZINC000043171152    0.0500
3      O3     -4.5192   -1.7285    0.0883 O.3      1 ZINC000043171152   -0.3700
4      C4     -3.1885   -1.3911    0.4854 C.3      1 ZINC000043171152    0.0800
5      H5     -3.2008   -0.7061    1.3331 H        1 ZINC000043171152    0.1000
6      C6     -2.3998   -0.7877   -0.6962 C.3      1 ZINC000043171152   -0.1100
7      C7     -0.9806   -1.2834   -0.5195 C.ar     1 ZINC000043171152   -0.0600
8      C8      0.2041   -0.8291   -1.0735 C.ar     1 ZINC000043171152   -0.0500
9      C9      1.3994   -1.4479   -0.7626 C.ar     1 ZINC000043171152   -0.1500
10     C10     2.6865   -0.9497   -1.3676 C.3      1 ZINC000043171152    0.5100
11     F11     3.2455    0.0267   -0.5360 F        1 ZINC000043171152   -0.1700
12     F12     3.5821   -2.0160   -1.5021 F        1 ZINC000043171152   -0.1700
13     F13     2.4269   -0.3971   -2.6264 F        1 ZINC000043171152   -0.1700
14     C14     1.4137   -2.5243    0.1044 C.ar     1 ZINC000043171152   -0.0600
15     C15     0.2327   -2.9791    0.6582 C.ar     1 ZINC000043171152   -0.0900
16     C16    -0.9663   -2.3602    0.3477 C.ar     1 ZINC000043171152   -0.1300
17     C17    -2.3766   -2.6609    0.8179 C.3      1 ZINC000043171152    0.0700
18     H18    -2.7798   -3.5189    0.2798 H        1 ZINC000043171152    0.1700
19     N19    -2.3881   -2.9163    2.2645 N.4      1 ZINC000043171152   -0.3800
20     H20    -1.8345   -3.7355    2.4656 H        1 ZINC000043171152    0.4200
21     C21    -1.8230   -1.7586    2.9702 C.3      1 ZINC000043171152   -0.0100
22     C22    -1.8174   -2.0317    4.4759 C.3      1 ZINC000043171152    0.0200
23     N23    -3.1925   -2.2812    4.9308 N.3      1 ZINC000043171152   -0.5200
24     C24    -3.2362   -2.4922    6.3839 C.3      1 ZINC000043171152    0.1200
25     C25    -2.7945   -1.2133    7.0982 C.3      1 ZINC000043171152   -0.1500
26     C26    -4.6649   -2.8437    6.8053 C.3      1 ZINC000043171152   -0.1300
27     C27    -4.7137   -3.0291    8.3251 C.3      1 ZINC000043171152    0.1100
28     N28    -3.7074   -4.0272    8.7124 N.am     1 ZINC000043171152   -0.6100
29     C29    -4.0537   -5.1012    9.4493 C.2      1 ZINC000043171152    0.5800
30     O30    -5.2078   -5.2511    9.8000 O.2      1 ZINC000043171152   -0.5100
31     C31    -3.0298   -6.0968    9.8312 C.ar     1 ZINC000043171152   -0.2400
32     C32    -2.3105   -5.9677   11.0246 C.ar     1 ZINC000043171152    0.2200
33     C33    -2.5650   -4.8061   11.9503 C.3      1 ZINC000043171152   -0.1200
34     N34    -1.4047   -6.8812   11.3270 N.ar     1 ZINC000043171152   -0.5200
35     C35    -1.1754   -7.9014   10.5234 C.ar     1 ZINC000043171152    0.3200
36     N36    -1.8297   -8.0612    9.3897 N.ar     1 ZINC000043171152   -0.5200
37     C37    -2.7567   -7.1983    9.0122 C.ar     1 ZINC000043171152    0.2100
38     C38    -3.4986   -7.3903    7.7146 C.3      1 ZINC000043171152   -0.1100
39     C39    -2.3166   -3.8325    8.2806 C.3      1 ZINC000043171152    0.1100
40     C40    -2.2947   -3.6381    6.7612 C.3      1 ZINC000043171152   -0.1700
41     C41    -3.7802   -3.4224    4.2149 C.3      1 ZINC000043171152    0.0200
42     C42    -3.7697   -3.1374    2.7114 C.3      1 ZINC000043171152    0.0300
43     H43    -4.3651   -2.2478    2.5061 H        1 ZINC000043171152    0.1400
44     C44    -4.3626   -4.3321    1.9618 C.3      1 ZINC000043171152   -0.1800
45     H45    -7.5968   -0.3929    0.0905 H        1 ZINC000043171152    0.0800
46     H46    -6.8365   -1.3799   -1.1807 H        1 ZINC000043171152    0.0700
47     H47    -7.1390   -2.0796    0.4278 H        1 ZINC000043171152    0.0700
48     H48    -5.2052    0.2008   -0.1864 H        1 ZINC000043171152    0.0600
49     H49    -5.5077   -0.4988    1.4221 H        1 ZINC000043171152    0.0600
50     H50    -2.8084   -1.1404   -1.6432 H        1 ZINC000043171152    0.1200
51     H51    -2.4282    0.3011   -0.6532 H        1 ZINC000043171152    0.1000
52     H52     0.1937    0.0117   -1.7513 H        1 ZINC000043171152    0.1500
53     H53     2.3472   -3.0095    0.3483 H        1 ZINC000043171152    0.1500
54     H54     0.2446   -3.8204    1.3352 H        1 ZINC000043171152    0.1400
55     H55    -0.8023   -1.5873    2.6282 H        1 ZINC000043171152    0.1400
56     H56    -2.4283   -0.8760    2.7633 H        1 ZINC000043171152    0.1400
57     H57    -1.2010   -2.9062    4.6846 H        1 ZINC000043171152    0.0700
58     H58    -1.4119   -1.1669    5.0009 H        1 ZINC000043171152    0.1300
59     H59    -3.4647   -0.3969    6.8292 H        1 ZINC000043171152    0.0700
60     H60    -2.8269   -1.3697    8.1764 H        1 ZINC000043171152    0.0700
61     H61    -1.7772   -0.9622    6.7978 H        1 ZINC000043171152    0.0600
62     H62    -5.3385   -2.0374    6.5153 H        1 ZINC000043171152    0.0900
63     H63    -4.9714   -3.7683    6.3160 H        1 ZINC000043171152    0.0700
64     H64    -4.4954   -2.0807    8.8161 H        1 ZINC000043171152    0.0800
65     H65    -5.7043   -3.3757    8.6194 H        1 ZINC000043171152    0.1000
66     H66    -3.3431   -5.0746   12.6648 H        1 ZINC000043171152    0.1000
67     H67    -1.6481   -4.5611   12.4865 H        1 ZINC000043171152    0.0900
68     H68    -2.8878   -3.9423   11.3690 H        1 ZINC000043171152    0.0800
69     H69    -0.4277   -8.6290   10.8025 H        1 ZINC000043171152    0.2100
70     H70    -4.3917   -7.9895    7.8919 H        1 ZINC000043171152    0.1000
71     H71    -3.7867   -6.4186    7.3135 H        1 ZINC000043171152    0.0700
72     H72    -2.8539   -7.9018    6.9998 H        1 ZINC000043171152    0.0900
73     H73    -1.9029   -2.9496    8.7679 H        1 ZINC000043171152    0.0800
74     H74    -1.7256   -4.7092    8.5454 H        1 ZINC000043171152    0.0800
75     H75    -2.6235   -4.5552    6.2724 H        1 ZINC000043171152    0.0700
76     H76    -1.2814   -3.3972    6.4399 H        1 ZINC000043171152    0.0800
77     H77    -3.1962   -4.3197    4.4193 H        1 ZINC000043171152    0.0600
78     H78    -4.8067   -3.5720    4.5495 H        1 ZINC000043171152    0.1300
79     H79    -5.3449   -4.5670    2.3716 H        1 ZINC000043171152    0.1100
80     H80    -4.4595   -4.0858    0.9044 H        1 ZINC000043171152    0.1000
81     H81    -3.7058   -5.1946    2.0753 H        1 ZINC000043171152    0.0800
@<TRIPOS>BOND
1     1     2     1
2     1     45    1
3     1     46    1
4     1     47    1
5     2     3     1
6     2     48    1
7     2     49    1
8     3     4     1
9     4     5     1
10    4     17    1
11    4     6     1
12    6     7     1
13    6     50    1
14    6     51    1
15    7     16    ar
16    7     8     ar
17    8     9     ar
18    8     52    1
19    9     10    1
20    9     14    ar
21    10    11    1
22    10    12    1
23    10    13    1
24    14    15    ar
25    14    53    1
26    15    16    ar
27    15    54    1
28    16    17    1
29    17    18    1
30    17    19    1
31    19    20    1
32    19    42    1
33    19    21    1
34    21    22    1
35    21    55    1
36    21    56    1
37    22    23    1
38    22    57    1
39    22    58    1
40    23    24    1
41    23    41    1
42    24    40    1
43    24    25    1
44    24    26    1
45    25    59    1
46    25    60    1
47    25    61    1
48    26    27    1
49    26    62    1
50    26    63    1
51    27    28    1
52    27    64    1
53    27    65    1
54    28    29    am
55    28    39    1
56    29    30    2
57    29    31    1
58    31    37    ar
59    31    32    ar
60    32    33    1
61    32    34    ar
62    33    66    1
63    33    67    1
64    33    68    1
65    34    35    ar
66    35    36    ar
67    35    69    1
68    36    37    ar
69    37    38    1
70    38    70    1
71    38    71    1
72    38    72    1
73    39    40    1
74    39    73    1
75    39    74    1
76    40    75    1
77    40    76    1
78    41    42    1
79    41    77    1
80    41    78    1
81    42    43    1
82    42    44    1
83    44    79    1
84    44    80    1
85    44    81    1
@<TRIPOS>SUBSTRUCTURE
1   ZINC000043171152 1     RESIDUE    1   A     ZIN   1
