@<TRIPOS>MOLECULE
ZINC000003786156
  21   21    0    0    0
SMALL
USER_CHARGES
NO_NAME
@<TRIPOS>ATOM
    1 C1       -0.0176     1.4478     0.0100 C.3    1 <0>       0.0300
    2 O2        0.0021    -0.0041     0.0020 O.3    1 <0>      -0.3500
    3 C3        0.6181    -0.6108     1.0287 C.2    1 <0>       0.4700
    4 O4        1.1242     0.0494     1.9050 O.2    1 <0>      -0.4800
    5 C5        0.6786    -2.1154     1.0883 C.3    1 <0>      -0.1200
    6 H6       -0.3320    -2.5230     1.1131 H      1 <0>       0.1400
    7 C7        1.4222    -2.6518    -0.1405 C.3    1 <0>       0.0800
    8 N8        1.5986    -4.0979     0.0020 N.pl3  1 <0>      -0.6300
    9 C9        1.6855    -4.6691     1.1817 C.cat  1 <0>       0.5000
   10 N10       1.6183    -4.0055     2.3134 N.pl3  1 <0>      -0.6300
   11 H11       1.6866    -4.4905     3.1507 H      1 <0>       0.4500
   12 C12       1.4429    -2.5525     2.3435 C.3    1 <0>       0.0800
   13 H13       1.0050     1.8251     0.0023 H      1 <0>       0.0700
   14 H14      -0.5448     1.8089    -0.8731 H      1 <0>       0.1100
   15 H15      -0.5278     1.7993     0.9068 H      1 <0>       0.0700
   16 H16       0.8412    -2.4420    -1.0386 H      1 <0>       0.1400
   17 H17       2.3976    -2.1711    -0.2150 H      1 <0>       0.1200
   18 H18       1.6524    -4.6483    -0.7949 H      1 <0>       0.4500
   19 H19       1.8188    -5.7400     1.2234 H      1 <0>       0.2300
   20 H20       2.4190    -2.0677     2.3629 H      1 <0>       0.1200
   21 H21       0.8772    -2.2718     3.2319 H      1 <0>       0.1400
@<TRIPOS>BOND
   1    1    2 1
   2    1   13 1
   3    1   14 1
   4    1   15 1
   5    2    3 1
   6    3    4 2
   7    3    5 1
   8    5    6 1
   9    5   12 1
  10    5    7 1
  11    7    8 1
  12    7   16 1
  13    7   17 1
  14    8    9 ar
  15    8   18 1
  16    9   10 ar
  17    9   19 1
  18   10   11 1
  19   10   12 1
  20   12   20 1
  21   12   21 1
