@<TRIPOS>MOLECULE
ZINC000013283639
25    25    1     0     0
SMALL
USER_CHARGES
@<TRIPOS>ATOM
1      C1     -0.0173    1.4248    0.0099 C.3      1 ZINC000013283639    0.0300
2      O2      0.0021   -0.0041    0.0020 O.3      1 ZINC000013283639   -0.3800
3      C3      0.6518   -0.5703   -1.1379 C.3      1 ZINC000013283639    0.0300
4      C4      0.6131   -2.0967   -1.0411 C.3      1 ZINC000013283639    0.1000
5      H5     -0.4186   -2.4271   -0.9202 H        1 ZINC000013283639    0.1100
6      O6      1.3845   -2.5224    0.0840 O.3      1 ZINC000013283639   -0.5400
7      C7      1.1966   -2.7037   -2.3185 C.3      1 ZINC000013283639    0.0600
8      N8      1.0508   -4.1609   -2.2776 N.pl3    1 ZINC000013283639   -0.4100
9      C9      1.9897   -5.0593   -1.8478 C.2      1 ZINC000013283639    0.0300
10     C10     1.4455   -6.2842   -1.9783 C.2      1 ZINC000013283639   -0.0100
11     N11     0.2080   -6.1376   -2.4744 N.2      1 ZINC000013283639   -0.4000
12     C12    -0.0372   -4.8682   -2.6514 C.2      1 ZINC000013283639    0.2300
13     N13    -1.2961   -4.2984   -3.1823 N.pl3    1 ZINC000013283639    0.0700
14     O14    -2.2134   -5.0356   -3.4963 O.2      1 ZINC000013283639   -0.0900
15     O15    -1.4146   -3.0924   -3.3050 O.2      1 ZINC000013283639   -0.1600
16     H16     1.0053    1.8021    0.0021 H        1 ZINC000013283639    0.0400
17     H17    -0.5445    1.7859   -0.8732 H        1 ZINC000013283639    0.0500
18     H18    -0.5275    1.7763    0.9067 H        1 ZINC000013283639    0.0900
19     H19     0.1385   -0.2506   -2.0447 H        1 ZINC000013283639    0.0700
20     H20     1.6883   -0.2344   -1.1694 H        1 ZINC000013283639    0.0600
21     H21     2.3151   -2.2625    0.0439 H        1 ZINC000013283639    0.3800
22     H22     0.6642   -2.3095   -3.1842 H        1 ZINC000013283639    0.1300
23     H23     2.2531   -2.4462   -2.3935 H        1 ZINC000013283639    0.1200
24     H24     2.9774   -4.8300   -1.4758 H        1 ZINC000013283639    0.2000
25     H25     1.9219   -7.2204   -1.7276 H        1 ZINC000013283639    0.2000
@<TRIPOS>BOND
1     1     2     1
2     1     16    1
3     1     17    1
4     1     18    1
5     2     3     1
6     3     4     1
7     3     19    1
8     3     20    1
9     4     5     1
10    4     6     1
11    4     7     1
12    6     21    1
13    7     8     1
14    7     22    1
15    7     23    1
16    8     12    1
17    8     9     1
18    9     10    2
19    9     24    1
20    10    11    1
21    10    25    1
22    11    12    2
23    12    13    1
24    13    14    2
25    13    15    2
@<TRIPOS>SUBSTRUCTURE
1   ZINC000013283639 1     RESIDUE    1   A     ZIN   1
