@<TRIPOS>MOLECULE
ZINC000000602917
44    45    1     0     0
SMALL
USER_CHARGES
@<TRIPOS>ATOM
1      C1     -0.0674    1.4219   -0.0172 C.3      1 ZINC000000602917    0.0400
2      O2     -0.0424   -0.0069   -0.0224 O.3      1 ZINC000000602917   -0.3600
3      C3      0.5664   -0.6053   -1.0680 C.2      1 ZINC000000602917    0.5400
4      O4      1.0623    0.0696   -1.9511 O.2      1 ZINC000000602917   -0.5200
5      C5      0.6280   -2.0173   -1.1374 C.2      1 ZINC000000602917   -0.1000
6      C6      1.2228   -2.7668   -2.1433 C.2      1 ZINC000000602917    0.2100
7      N7      1.8717   -2.2724   -3.2742 N.am     1 ZINC000000602917   -0.6500
8      C8      2.4051   -3.1248   -4.1716 C.2      1 ZINC000000602917    0.7100
9      O9      2.3205   -4.3248   -3.9952 O.2      1 ZINC000000602917   -0.5500
10     N10     3.0323   -2.6469   -5.2647 N.am     1 ZINC000000602917   -0.6800
11     C11     3.6677   -3.5276   -6.1482 C.ar     1 ZINC000000602917    0.1900
12     C12     3.1318   -4.7869   -6.3803 C.ar     1 ZINC000000602917   -0.1000
13     C13     3.7603   -5.6543   -7.2530 C.ar     1 ZINC000000602917   -0.0800
14     C14     4.9223   -5.2700   -7.8957 C.ar     1 ZINC000000602917   -0.1100
15     C15     5.4603   -4.0153   -7.6674 C.ar     1 ZINC000000602917   -0.0100
16     Cl16    6.9197   -3.5368   -8.4766 Cl       1 ZINC000000602917   -0.0400
17     C17     4.8329   -3.1407   -6.7990 C.ar     1 ZINC000000602917   -0.0600
18     Cl18    5.5070   -1.5667   -6.5127 Cl       1 ZINC000000602917   -0.0400
19     C19     1.0464   -4.1182   -1.8038 C.2      1 ZINC000000602917   -0.2100
20     C20     0.3691   -4.1701   -0.6346 C.2      1 ZINC000000602917    0.1100
21     C21    -0.0309   -5.4307    0.0878 C.3      1 ZINC000000602917   -0.0100
22     C22     1.2216   -6.2360    0.4397 C.3      1 ZINC000000602917   -0.1400
23     C23    -0.7806   -5.0672    1.3710 C.3      1 ZINC000000602917   -0.1600
24     C24    -0.9395   -6.2688   -0.8138 C.3      1 ZINC000000602917   -0.1400
25     N25     0.1121   -2.9071   -0.2125 N.pl3    1 ZINC000000602917   -0.5200
26     H26     0.9537    1.8032   -0.0190 H        1 ZINC000000602917    0.0600
27     H27    -0.5903    1.7793   -0.9043 H        1 ZINC000000602917    0.0600
28     H28    -0.5848    1.7730    0.8756 H        1 ZINC000000602917    0.1000
29     H29     1.9393   -1.3151   -3.4149 H        1 ZINC000000602917    0.4200
30     H30     3.0435   -1.6928   -5.4392 H        1 ZINC000000602917    0.4100
31     H31     2.2242   -5.0887   -5.8787 H        1 ZINC000000602917    0.1600
32     H32     3.3433   -6.6341   -7.4331 H        1 ZINC000000602917    0.1500
33     H33     5.4115   -5.9503   -8.5771 H        1 ZINC000000602917    0.1500
34     H34     1.3909   -4.9669   -2.3762 H        1 ZINC000000602917    0.1800
35     H35     1.8689   -5.6390    1.0820 H        1 ZINC000000602917    0.0600
36     H36     0.9323   -7.1479    0.9622 H        1 ZINC000000602917    0.0700
37     H37     1.7557   -6.4950   -0.4745 H        1 ZINC000000602917    0.0700
38     H38    -1.6729   -4.4934    1.1203 H        1 ZINC000000602917    0.0600
39     H39    -1.0699   -5.9790    1.8935 H        1 ZINC000000602917    0.0700
40     H40    -0.1333   -4.4701    2.0133 H        1 ZINC000000602917    0.0600
41     H41    -0.4054   -6.5278   -1.7279 H        1 ZINC000000602917    0.0700
42     H42    -1.2288   -7.1806   -0.2912 H        1 ZINC000000602917    0.0700
43     H43    -1.8318   -5.6951   -1.0644 H        1 ZINC000000602917    0.0600
44     H44    -0.3611   -2.6676    0.5997 H        1 ZINC000000602917    0.4300
@<TRIPOS>BOND
1     1     2     1
2     1     26    1
3     1     27    1
4     1     28    1
5     2     3     1
6     3     4     2
7     3     5     1
8     5     25    1
9     5     6     2
10    6     7     1
11    6     19    1
12    7     8     am
13    7     29    1
14    8     9     2
15    8     10    am
16    10    11    1
17    10    30    1
18    11    17    ar
19    11    12    ar
20    12    13    ar
21    12    31    1
22    13    14    ar
23    13    32    1
24    14    15    ar
25    14    33    1
26    15    16    1
27    15    17    ar
28    17    18    1
29    19    20    2
30    19    34    1
31    20    21    1
32    20    25    1
33    21    22    1
34    21    23    1
35    21    24    1
36    22    35    1
37    22    36    1
38    22    37    1
39    23    38    1
40    23    39    1
41    23    40    1
42    24    41    1
43    24    42    1
44    24    43    1
45    25    44    1
@<TRIPOS>SUBSTRUCTURE
1   ZINC000000602917 1     RESIDUE    1   A     ZIN   1
