@<TRIPOS>MOLECULE
ZINC000022442861
63    67    1     0     0
SMALL
USER_CHARGES
@<TRIPOS>ATOM
1      N1      0.0275   -1.1440   -0.5871 N.1      1 ZINC000022442861   -0.4200
2      C2      0.0157   -0.0312   -0.3590 C.1      1 ZINC000022442861    0.3000
3      C3      0.0007    1.3716   -0.0715 C.2      1 ZINC000022442861   -0.1600
4      C4     -1.1088    2.1467    0.1702 C.2      1 ZINC000022442861    0.3500
5      N5     -0.6788    3.4216    0.3904 N.pl3    1 ZINC000022442861   -0.3300
6      N6      0.7056    3.4360    0.2948 N.2      1 ZINC000022442861   -0.2500
7      C7      1.1282    2.2269    0.0247 C.2      1 ZINC000022442861    0.1200
8      C8     -1.5850    4.4578    0.6513 C.2      1 ZINC000022442861    0.1900
9      C9     -1.1566    5.8742    0.5939 C.ar     1 ZINC000022442861   -0.0700
10     C10    -0.7505    6.4342   -0.6167 C.ar     1 ZINC000022442861   -0.0500
11     C11    -0.3523    7.7547   -0.6638 C.ar     1 ZINC000022442861   -0.1200
12     C12    -0.3550    8.5223    0.4868 C.ar     1 ZINC000022442861   -0.0500
13     C13    -0.7568    7.9722    1.6911 C.ar     1 ZINC000022442861   -0.1800
14     C14    -0.7568    8.8154    2.9401 C.3      1 ZINC000022442861    0.5100
15     F15    -0.3148   10.1063    2.6314 F        1 ZINC000022442861   -0.1700
16     F16    -2.0541    8.8786    3.4601 F        1 ZINC000022442861   -0.1700
17     F17     0.0983    8.2440    3.8885 F        1 ZINC000022442861   -0.1700
18     C18    -1.1631    6.6550    1.7496 C.ar     1 ZINC000022442861   -0.0300
19     C19    -2.8462    4.1347    0.9527 C.2      1 ZINC000022442861   -0.2000
20     C20    -3.3059    2.7056    1.0507 C.3      1 ZINC000022442861    0.1400
21     N21    -2.4607    1.8329    0.2167 N.am     1 ZINC000022442861   -0.5400
22     C22    -2.9717    0.7878   -0.4638 C.2      1 ZINC000022442861    0.5200
23     O23    -2.2453    0.0911   -1.1404 O.2      1 ZINC000022442861   -0.4700
24     C24    -4.4459    0.4851   -0.3841 C.3      1 ZINC000022442861    0.0400
25     N25    -4.7256   -0.7750   -1.0854 N.3      1 ZINC000022442861   -0.5200
26     C26    -6.1725   -0.9836   -1.2369 C.3      1 ZINC000022442861    0.0300
27     C27    -6.4195   -2.2733   -2.0226 C.3      1 ZINC000022442861    0.0000
28     N28    -5.8165   -3.4057   -1.3072 N.4      1 ZINC000022442861   -0.3900
29     H29    -6.2242   -3.4776   -0.3871 H        1 ZINC000022442861    0.4200
30     C30    -6.0690   -4.6460   -2.0528 C.3      1 ZINC000022442861    0.0500
31     C31    -5.5585   -5.8215   -1.2599 C.ar     1 ZINC000022442861   -0.1600
32     C32    -4.2560   -6.2536   -1.4256 C.ar     1 ZINC000022442861   -0.1000
33     C33    -3.7877   -7.3319   -0.6983 C.ar     1 ZINC000022442861   -0.1100
34     C34    -4.6218   -7.9777    0.1950 C.ar     1 ZINC000022442861   -0.0800
35     C35    -5.9241   -7.5450    0.3614 C.ar     1 ZINC000022442861   -0.1100
36     C36    -6.3911   -6.4640   -0.3628 C.ar     1 ZINC000022442861   -0.0900
37     C37    -4.3680   -3.1947   -1.1854 C.3      1 ZINC000022442861    0.0000
38     C38    -4.1040   -1.9126   -0.3928 C.3      1 ZINC000022442861    0.0200
39     H39     2.1586    1.9324   -0.1092 H        1 ZINC000022442861    0.2100
40     H40    -0.7473    5.8356   -1.5157 H        1 ZINC000022442861    0.1300
41     H41    -0.0375    8.1896   -1.6010 H        1 ZINC000022442861    0.1400
42     H42    -0.0418    9.5550    0.4451 H        1 ZINC000022442861    0.1500
43     H43    -1.4765    6.2267    2.6902 H        1 ZINC000022442861    0.1400
44     H44    -3.5591    4.9258    1.1322 H        1 ZINC000022442861    0.1700
45     H45    -3.2459    2.3790    2.0889 H        1 ZINC000022442861    0.1000
46     H46    -4.3394    2.6362    0.7115 H        1 ZINC000022442861    0.1100
47     H47    -4.7418    0.3927    0.6609 H        1 ZINC000022442861    0.0800
48     H48    -5.0086    1.2934   -0.8510 H        1 ZINC000022442861    0.1300
49     H49    -6.6335   -1.0635   -0.2524 H        1 ZINC000022442861    0.0600
50     H50    -6.6070   -0.1411   -1.7750 H        1 ZINC000022442861    0.1300
51     H51    -7.4923   -2.4373   -2.1238 H        1 ZINC000022442861    0.1400
52     H52    -5.9701   -2.1878   -3.0119 H        1 ZINC000022442861    0.1400
53     H53    -7.1404   -4.7579   -2.2195 H        1 ZINC000022442861    0.1400
54     H54    -5.5544   -4.6041   -3.0127 H        1 ZINC000022442861    0.1400
55     H55    -3.6043   -5.7490   -2.1235 H        1 ZINC000022442861    0.1300
56     H56    -2.7702   -7.6699   -0.8283 H        1 ZINC000022442861    0.1400
57     H57    -4.2561   -8.8206    0.7627 H        1 ZINC000022442861    0.1400
58     H58    -6.5759   -8.0498    1.0590 H        1 ZINC000022442861    0.1400
59     H59    -7.4085   -6.1259   -0.2328 H        1 ZINC000022442861    0.1300
60     H60    -3.9199   -4.0417   -0.6659 H        1 ZINC000022442861    0.1400
61     H61    -3.9291   -3.1044   -2.1790 H        1 ZINC000022442861    0.1400
62     H62    -3.0293   -1.7479   -0.3150 H        1 ZINC000022442861    0.1300
63     H63    -4.5308   -2.0078    0.6056 H        1 ZINC000022442861    0.0600
@<TRIPOS>BOND
1     1     2     3
2     2     3     1
3     3     7     1
4     3     4     2
5     4     21    1
6     4     5     1
7     5     6     1
8     5     8     1
9     6     7     2
10    7     39    1
11    8     9     1
12    8     19    2
13    9     18    ar
14    9     10    ar
15    10    11    ar
16    10    40    1
17    11    12    ar
18    11    41    1
19    12    13    ar
20    12    42    1
21    13    14    1
22    13    18    ar
23    14    15    1
24    14    16    1
25    14    17    1
26    18    43    1
27    19    20    1
28    19    44    1
29    20    21    1
30    20    45    1
31    20    46    1
32    21    22    am
33    22    23    2
34    22    24    1
35    24    25    1
36    24    47    1
37    24    48    1
38    25    38    1
39    25    26    1
40    26    27    1
41    26    49    1
42    26    50    1
43    27    28    1
44    27    51    1
45    27    52    1
46    28    29    1
47    28    30    1
48    28    37    1
49    30    31    1
50    30    53    1
51    30    54    1
52    31    36    ar
53    31    32    ar
54    32    33    ar
55    32    55    1
56    33    34    ar
57    33    56    1
58    34    35    ar
59    34    57    1
60    35    36    ar
61    35    58    1
62    36    59    1
63    37    38    1
64    37    60    1
65    37    61    1
66    38    62    1
67    38    63    1
@<TRIPOS>SUBSTRUCTURE
1   ZINC000022442861 1     RESIDUE    1   A     ZIN   1
