@<TRIPOS>MOLECULE
ZINC000001722761
56    57    1     0     0
SMALL
USER_CHARGES
@<TRIPOS>ATOM
1      C1     -0.0173    1.4248    0.0099 C.3      1 ZINC000001722761    0.0300
2      O2      0.0021   -0.0041    0.0020 O.3      1 ZINC000001722761   -0.3100
3      C3      0.6062   -0.6075   -1.0564 C.ar     1 ZINC000001722761    0.0900
4      C4      1.1727    0.1587   -2.0618 C.ar     1 ZINC000001722761   -0.1700
5      C5      1.7870   -0.4565   -3.1372 C.ar     1 ZINC000001722761   -0.1100
6      C6      1.8372   -1.8356   -3.2121 C.ar     1 ZINC000001722761   -0.0700
7      C7      2.5079   -2.5009   -4.3863 C.3      1 ZINC000001722761   -0.0800
8      C8      3.9891   -2.7191   -4.0710 C.3      1 ZINC000001722761   -0.0800
9      H9      4.4448   -1.7693   -3.7910 H        1 ZINC000001722761    0.0700
10     C10     4.1235   -3.7102   -2.9132 C.3      1 ZINC000001722761   -0.1500
11     C11     4.6963   -3.2794   -5.3067 C.3      1 ZINC000001722761   -0.0800
12     H12     4.2406   -4.2292   -5.5867 H        1 ZINC000001722761    0.0700
13     C13     6.1775   -3.4977   -4.9915 C.3      1 ZINC000001722761   -0.1500
14     C14     4.5620   -2.2883   -6.4645 C.3      1 ZINC000001722761   -0.0800
15     C15     5.1506   -2.8921   -7.7135 C.ar     1 ZINC000001722761   -0.0700
16     C16     6.4885   -2.7051   -8.0053 C.ar     1 ZINC000001722761   -0.1100
17     C17     7.0334   -3.2571   -9.1501 C.ar     1 ZINC000001722761   -0.1700
18     C18     6.2379   -3.9994  -10.0074 C.ar     1 ZINC000001722761    0.0900
19     O19     6.7723   -4.5433  -11.1335 O.3      1 ZINC000001722761   -0.3100
20     C20     8.1619   -4.3092  -11.3706 C.3      1 ZINC000001722761    0.0300
21     C21     4.8904   -4.1877   -9.7136 C.ar     1 ZINC000001722761    0.1000
22     O22     4.1055   -4.9161  -10.5519 O.3      1 ZINC000001722761   -0.3100
23     C23     2.7323   -5.0678  -10.1867 C.3      1 ZINC000001722761    0.0300
24     C24     4.3522   -3.6368   -8.5622 C.ar     1 ZINC000001722761   -0.1700
25     C25     1.2736   -2.6064   -2.2119 C.ar     1 ZINC000001722761   -0.1700
26     C26     0.6617   -1.9965   -1.1290 C.ar     1 ZINC000001722761    0.1000
27     O27     0.1074   -2.7530   -0.1443 O.3      1 ZINC000001722761   -0.3100
28     C28     0.1924   -4.1720   -0.2907 C.3      1 ZINC000001722761    0.0300
29     H29     1.0053    1.8021    0.0021 H        1 ZINC000001722761    0.0500
30     H30    -0.5445    1.7859   -0.8732 H        1 ZINC000001722761    0.0500
31     H31    -0.5275    1.7763    0.9067 H        1 ZINC000001722761    0.1000
32     H32     1.1343    1.2366   -2.0060 H        1 ZINC000001722761    0.1300
33     H33     2.2283    0.1421   -3.9204 H        1 ZINC000001722761    0.1300
34     H34     2.0321   -3.4623   -4.5797 H        1 ZINC000001722761    0.0700
35     H35     2.4136   -1.8651   -5.2666 H        1 ZINC000001722761    0.0800
36     H36     3.6196   -3.3111   -2.0329 H        1 ZINC000001722761    0.0600
37     H37     3.6678   -4.6600   -3.1932 H        1 ZINC000001722761    0.0500
38     H38     5.1787   -3.8657   -2.6887 H        1 ZINC000001722761    0.0600
39     H39     6.2732   -4.2038   -4.1666 H        1 ZINC000001722761    0.0600
40     H40     6.6813   -3.8968   -5.8718 H        1 ZINC000001722761    0.0600
41     H41     6.6332   -2.5479   -4.7114 H        1 ZINC000001722761    0.0500
42     H42     3.5082   -2.0646   -6.6309 H        1 ZINC000001722761    0.0800
43     H43     5.0942   -1.3692   -6.2196 H        1 ZINC000001722761    0.0700
44     H44     7.1098   -2.1262   -7.3378 H        1 ZINC000001722761    0.1300
45     H45     8.0791   -3.1091   -9.3760 H        1 ZINC000001722761    0.1300
46     H46     8.4593   -4.7967  -12.2990 H        1 ZINC000001722761    0.1000
47     H47     8.3415   -3.2370  -11.4495 H        1 ZINC000001722761    0.0500
48     H48     8.7450   -4.7153  -10.5440 H        1 ZINC000001722761    0.0500
49     H49     2.2206   -5.6685  -10.9386 H        1 ZINC000001722761    0.1000
50     H50     2.6665   -5.5643   -9.2186 H        1 ZINC000001722761    0.0500
51     H51     2.2623   -4.0862  -10.1243 H        1 ZINC000001722761    0.0500
52     H52     3.3071   -3.7817   -8.3317 H        1 ZINC000001722761    0.1300
53     H53     1.3142   -3.6839   -2.2728 H        1 ZINC000001722761    0.1300
54     H54    -0.2872   -4.6545    0.5609 H        1 ZINC000001722761    0.1000
55     H55    -0.3105   -4.4732   -1.2096 H        1 ZINC000001722761    0.0500
56     H56     1.2397   -4.4706   -0.3350 H        1 ZINC000001722761    0.0500
@<TRIPOS>BOND
1     1     2     1
2     1     29    1
3     1     30    1
4     1     31    1
5     2     3     1
6     3     26    ar
7     3     4     ar
8     4     5     ar
9     4     32    1
10    5     6     ar
11    5     33    1
12    6     7     1
13    6     25    ar
14    7     8     1
15    7     34    1
16    7     35    1
17    8     9     1
18    8     10    1
19    8     11    1
20    10    36    1
21    10    37    1
22    10    38    1
23    11    12    1
24    11    13    1
25    11    14    1
26    13    39    1
27    13    40    1
28    13    41    1
29    14    15    1
30    14    42    1
31    14    43    1
32    15    24    ar
33    15    16    ar
34    16    17    ar
35    16    44    1
36    17    18    ar
37    17    45    1
38    18    19    1
39    18    21    ar
40    19    20    1
41    20    46    1
42    20    47    1
43    20    48    1
44    21    22    1
45    21    24    ar
46    22    23    1
47    23    49    1
48    23    50    1
49    23    51    1
50    24    52    1
51    25    26    ar
52    25    53    1
53    26    27    1
54    27    28    1
55    28    54    1
56    28    55    1
57    28    56    1
@<TRIPOS>SUBSTRUCTURE
1   ZINC000001722761 1     RESIDUE    1   A     ZIN   1
