@<TRIPOS>MOLECULE
ZINC000058540931
79    82    1     0     0
SMALL
USER_CHARGES
@<TRIPOS>ATOM
1      C1      0.0404    2.2440   -0.7798 C.3      1 ZINC000058540931    0.0300
2      O2      0.1215    0.8735   -0.3833 O.3      1 ZINC000058540931   -0.3300
3      C3      0.4007   -0.0357   -1.3565 C.ar     1 ZINC000058540931    0.0500
4      C4     -0.6327   -0.6294   -2.0741 C.ar     1 ZINC000058540931    0.1400
5      N5     -1.9621   -0.2929   -1.7968 N.am     1 ZINC000058540931   -0.6300
6      C6     -2.8704   -0.2590   -2.7919 C.2      1 ZINC000058540931    0.4900
7      O7     -2.5546   -0.5994   -3.9140 O.2      1 ZINC000058540931   -0.4900
8      C8     -4.2620    0.1960   -2.5154 C.2      1 ZINC000058540931    0.4000
9      O9     -4.5537    0.6262   -1.4165 O.2      1 ZINC000058540931   -0.4100
10     C10    -5.2780    0.1250   -3.5670 C.ar     1 ZINC000058540931   -0.1900
11     C11    -6.6765    0.4493   -3.2755 C.ar     1 ZINC000058540931    0.0300
12     C12    -7.0833    0.8346   -1.9946 C.ar     1 ZINC000058540931   -0.1300
13     C13    -8.3959    1.1291   -1.7633 C.ar     1 ZINC000058540931   -0.0800
14     C14    -9.3358    1.0506   -2.7859 C.ar     1 ZINC000058540931   -0.1200
15     C15    -8.9713    0.6777   -4.0456 C.ar     1 ZINC000058540931   -0.0900
16     C16    -7.6297    0.3692   -4.3172 C.ar     1 ZINC000058540931   -0.0800
17     C17    -7.2144   -0.0202   -5.6097 C.ar     1 ZINC000058540931    0.1800
18     O18    -8.1216   -0.0998   -6.6117 O.3      1 ZINC000058540931   -0.3200
19     C19    -7.6371   -0.4996   -7.8953 C.3      1 ZINC000058540931    0.0200
20     C20    -8.7981   -0.5319   -8.8913 C.3      1 ZINC000058540931    0.0000
21     N21    -9.3200    0.8284   -9.0792 N.4      1 ZINC000058540931   -0.3900
22     H22    -9.5693    1.2199   -8.1833 H        1 ZINC000058540931    0.4300
23     C23   -10.5088    0.7823   -9.9417 C.3      1 ZINC000058540931   -0.0400
24     C24   -11.0507    2.2006  -10.1358 C.3      1 ZINC000058540931    0.0400
25     O25   -10.0254    3.0243  -10.6980 O.3      1 ZINC000058540931   -0.3600
26     C26    -8.8365    3.0820   -9.9050 C.3      1 ZINC000058540931    0.0400
27     C27    -8.2903    1.6654   -9.7102 C.3      1 ZINC000058540931   -0.0500
28     C28    -5.8880   -0.3202   -5.8594 C.ar     1 ZINC000058540931   -0.2400
29     C29    -4.9298   -0.2477   -4.8680 C.ar     1 ZINC000058540931    0.0000
30     C30    -0.3422   -1.5569   -3.0672 C.ar     1 ZINC000058540931   -0.1200
31     C31     0.9701   -1.8898   -3.3417 C.ar     1 ZINC000058540931   -0.0200
32     C32     1.2797   -2.8966   -4.4195 C.3      1 ZINC000058540931   -0.0300
33     C33    -0.0258   -3.3903   -5.0464 C.3      1 ZINC000058540931   -0.1400
34     C34     2.1465   -2.2409   -5.4962 C.3      1 ZINC000058540931   -0.1400
35     C35     2.0325   -4.0809   -3.8099 C.3      1 ZINC000058540931   -0.1400
36     C36     2.0006   -1.3019   -2.6314 C.ar     1 ZINC000058540931   -0.1700
37     C37     1.7210   -0.3704   -1.6410 C.ar     1 ZINC000058540931    0.1600
38     N38     2.7652    0.2238   -0.9227 N.am     1 ZINC000058540931   -1.0500
39     S39     4.1993    0.5660   -1.6768 S.o2     1 ZINC000058540931    2.6000
40     C40     3.7474    1.7082   -3.0117 C.3      1 ZINC000058540931   -0.6700
41     O41     4.9655    1.2359   -0.6852 O.2      1 ZINC000058540931   -0.9400
42     O42     4.6214   -0.6818   -2.2098 O.2      1 ZINC000058540931   -0.9400
43     H43     0.9936    2.5556   -1.2070 H        1 ZINC000058540931    0.0500
44     H44    -0.7470    2.3608   -1.5244 H        1 ZINC000058540931    0.0400
45     H45    -0.1872    2.8609    0.0895 H        1 ZINC000058540931    0.1000
46     H46    -2.2301   -0.0839   -0.8882 H        1 ZINC000058540931    0.4300
47     H47    -6.3630    0.8984   -1.1924 H        1 ZINC000058540931    0.1600
48     H48    -8.7089    1.4265   -0.7734 H        1 ZINC000058540931    0.1300
49     H49   -10.3688    1.2880   -2.5790 H        1 ZINC000058540931    0.1300
50     H50    -9.7112    0.6202   -4.8302 H        1 ZINC000058540931    0.1300
51     H51    -6.8848    0.2112   -8.2372 H        1 ZINC000058540931    0.0900
52     H52    -7.1928   -1.4923   -7.8229 H        1 ZINC000058540931    0.1200
53     H53    -8.4465   -0.9214   -9.8466 H        1 ZINC000058540931    0.1500
54     H54    -9.5896   -1.1747   -8.5059 H        1 ZINC000058540931    0.1500
55     H55   -10.2393    0.3603  -10.9099 H        1 ZINC000058540931    0.1400
56     H56   -11.2733    0.1617   -9.4743 H        1 ZINC000058540931    0.1400
57     H57   -11.9068    2.1740  -10.8100 H        1 ZINC000058540931    0.1400
58     H58   -11.3576    2.6080   -9.1725 H        1 ZINC000058540931    0.0800
59     H59    -8.0900    3.6934  -10.4120 H        1 ZINC000058540931    0.1400
60     H60    -9.0676    3.5196   -8.9338 H        1 ZINC000058540931    0.0800
61     H61    -7.4080    1.7005   -9.0711 H        1 ZINC000058540931    0.1400
62     H62    -8.0217    1.2430  -10.6785 H        1 ZINC000058540931    0.1400
63     H63    -5.5935   -0.6158   -6.8555 H        1 ZINC000058540931    0.1400
64     H64    -3.9026   -0.4889   -5.0984 H        1 ZINC000058540931    0.1800
65     H65    -1.1435   -2.0184   -3.6250 H        1 ZINC000058540931    0.1600
66     H66    -0.5621   -2.5466   -5.4806 H        1 ZINC000058540931    0.0600
67     H67     0.1982   -4.1186   -5.8259 H        1 ZINC000058540931    0.0600
68     H68    -0.6433   -3.8575   -4.2793 H        1 ZINC000058540931    0.0600
69     H69     3.0765   -1.8891   -5.0496 H        1 ZINC000058540931    0.0600
70     H70     2.3704   -2.9691   -6.2757 H        1 ZINC000058540931    0.0600
71     H71     1.6101   -1.3972   -5.9305 H        1 ZINC000058540931    0.0600
72     H72     1.4150   -4.5481   -3.0428 H        1 ZINC000058540931    0.0600
73     H73     2.2565   -4.8091   -4.5894 H        1 ZINC000058540931    0.0600
74     H74     2.9626   -3.7292   -3.3633 H        1 ZINC000058540931    0.0700
75     H75     3.0249   -1.5656   -2.8498 H        1 ZINC000058540931    0.1700
76     H76     2.6488    0.4351    0.0168 H        1 ZINC000058540931    0.4300
77     H77     3.2883    2.6006   -2.5864 H        1 ZINC000058540931    0.1300
78     H78     4.6419    1.9895   -3.5674 H        1 ZINC000058540931    0.1400
79     H79     3.0407    1.2208   -3.6832 H        1 ZINC000058540931    0.1300
@<TRIPOS>BOND
1     1     2     1
2     1     43    1
3     1     44    1
4     1     45    1
5     2     3     1
6     3     37    ar
7     3     4     ar
8     4     5     1
9     4     30    ar
10    5     6     am
11    5     46    1
12    6     7     2
13    6     8     1
14    8     9     2
15    8     10    1
16    10    29    ar
17    10    11    ar
18    11    16    ar
19    11    12    ar
20    12    13    ar
21    12    47    1
22    13    14    ar
23    13    48    1
24    14    15    ar
25    14    49    1
26    15    16    ar
27    15    50    1
28    16    17    ar
29    17    18    1
30    17    28    ar
31    18    19    1
32    19    20    1
33    19    51    1
34    19    52    1
35    20    21    1
36    20    53    1
37    20    54    1
38    21    22    1
39    21    27    1
40    21    23    1
41    23    24    1
42    23    55    1
43    23    56    1
44    24    25    1
45    24    57    1
46    24    58    1
47    25    26    1
48    26    27    1
49    26    59    1
50    26    60    1
51    27    61    1
52    27    62    1
53    28    29    ar
54    28    63    1
55    29    64    1
56    30    31    ar
57    30    65    1
58    31    32    1
59    31    36    ar
60    32    33    1
61    32    34    1
62    32    35    1
63    33    66    1
64    33    67    1
65    33    68    1
66    34    69    1
67    34    70    1
68    34    71    1
69    35    72    1
70    35    73    1
71    35    74    1
72    36    37    ar
73    36    75    1
74    37    38    1
75    38    39    am
76    38    76    1
77    39    40    1
78    39    41    2
79    39    42    2
80    40    77    1
81    40    78    1
82    40    79    1
@<TRIPOS>SUBSTRUCTURE
1   ZINC000058540931 1     RESIDUE    1   A     ZIN   1
