@<TRIPOS>MOLECULE
ZINC000038381027
64    67    1     0     0
SMALL
USER_CHARGES
@<TRIPOS>ATOM
1      C1     -1.2477   -1.7881   -8.7440 C.3      1 ZINC000038381027   -0.1600
2      C2     -0.2734   -1.3942   -7.6320 C.3      1 ZINC000038381027   -0.1200
3      C3     -1.0377   -0.6869   -6.5112 C.3      1 ZINC000038381027   -0.0900
4      C4     -2.0163   -1.6683   -5.8630 C.3      1 ZINC000038381027   -0.1300
5      C5     -2.8665   -0.9310   -4.8265 C.3      1 ZINC000038381027   -0.1500
6      C6     -0.0484   -0.1830   -5.4584 C.3      1 ZINC000038381027    0.0700
7      O7     -0.7518    0.6322   -4.4843 O.3      1 ZINC000038381027   -0.3200
8      C8     -0.0219    1.1547   -3.4862 C.2      1 ZINC000038381027    0.4600
9      O9      1.1654    0.9381   -3.4286 O.2      1 ZINC000038381027   -0.5000
10     C10    -0.6833    2.0116   -2.4377 C.3      1 ZINC000038381027    0.0300
11     H11    -1.6514    1.5836   -2.1776 H        1 ZINC000038381027    0.1800
12     C12    -0.8832    3.4251   -2.9889 C.3      1 ZINC000038381027   -0.1300
13     C13    -1.5596    4.2895   -1.9185 C.3      1 ZINC000038381027   -0.0900
14     H14    -1.6635    5.3111   -2.2839 H        1 ZINC000038381027    0.1100
15     C15    -2.9350    3.7000   -1.5974 C.3      1 ZINC000038381027   -0.1200
16     C16    -3.6076    4.5138   -0.5012 C.3      1 ZINC000038381027    0.0800
17     H17    -3.7263    5.5434   -0.8387 H        1 ZINC000038381027    0.0800
18     O18    -4.8909    3.9569   -0.2097 O.3      1 ZINC000038381027   -0.2600
19     C19    -5.8056    4.7819    0.3616 C.ar     1 ZINC000038381027    0.1400
20     C20    -5.4806    6.1023    0.6280 C.ar     1 ZINC000038381027   -0.2200
21     C21    -6.4121    6.9418    1.2090 C.ar     1 ZINC000038381027   -0.0900
22     C22    -7.6735    6.4720    1.5292 C.ar     1 ZINC000038381027   -0.1500
23     C23    -8.0133    5.1587    1.2698 C.ar     1 ZINC000038381027    0.0100
24     Cl24   -9.5976    4.5746    1.6730 Cl       1 ZINC000038381027   -0.0300
25     C25    -7.0825    4.3032    0.6784 C.ar     1 ZINC000038381027    0.0200
26     C26    -7.4412    2.8975    0.3931 C.2      1 ZINC000038381027    0.0700
27     N27    -6.6596    1.9714   -0.1661 N.2      1 ZINC000038381027   -0.3500
28     N28    -7.3420    0.8799   -0.2364 N.2      1 ZINC000038381027   -0.2000
29     N29    -8.5183    1.0824    0.2449 N.2      1 ZINC000038381027   -0.1900
30     N30    -8.6123    2.3063    0.6389 N.pl3    1 ZINC000038381027   -0.3400
31     C31    -2.7411    4.4867    0.7599 C.3      1 ZINC000038381027   -0.1600
32     C32    -1.3709    5.0903    0.4459 C.3      1 ZINC000038381027   -0.1100
33     C33    -0.6923    4.2794   -0.6570 C.3      1 ZINC000038381027   -0.1100
34     H34     0.2794    4.7184   -0.8829 H        1 ZINC000038381027    0.1000
35     C35    -0.5023    2.8360   -0.1882 C.3      1 ZINC000038381027   -0.0100
36     N36     0.1655    2.0616   -1.2416 N.4      1 ZINC000038381027   -0.4900
37     H37     0.3348    1.1233   -0.9114 H        1 ZINC000038381027    0.4300
38     H38     1.0448    2.4992   -1.4728 H        1 ZINC000038381027    0.4300
39     H39    -2.0061   -2.4595   -8.3416 H        1 ZINC000038381027    0.0600
40     H40    -1.7278   -0.8933   -9.1402 H        1 ZINC000038381027    0.0600
41     H41    -0.7031   -2.2920   -9.5426 H        1 ZINC000038381027    0.0600
42     H42     0.4851   -0.7228   -8.0345 H        1 ZINC000038381027    0.0700
43     H43     0.2068   -2.2890   -7.2359 H        1 ZINC000038381027    0.0700
44     H44    -1.5898    0.1572   -6.9244 H        1 ZINC000038381027    0.0900
45     H45    -2.6650   -2.0936   -6.6288 H        1 ZINC000038381027    0.0700
46     H46    -1.4591   -2.4673   -5.3740 H        1 ZINC000038381027    0.0600
47     H47    -2.2426   -0.6508   -3.9777 H        1 ZINC000038381027    0.0500
48     H48    -3.2915   -0.0339   -5.2768 H        1 ZINC000038381027    0.0600
49     H49    -3.6711   -1.5829   -4.4864 H        1 ZINC000038381027    0.0600
50     H50     0.7241    0.4146   -5.9423 H        1 ZINC000038381027    0.0800
51     H51     0.4119   -1.0336   -4.9558 H        1 ZINC000038381027    0.0800
52     H52     0.0842    3.8557   -3.2474 H        1 ZINC000038381027    0.1000
53     H53    -1.5143    3.3843   -3.8767 H        1 ZINC000038381027    0.1300
54     H54    -3.5543    3.7142   -2.4943 H        1 ZINC000038381027    0.0900
55     H55    -2.8181    2.6722   -1.2538 H        1 ZINC000038381027    0.0700
56     H56    -4.4980    6.4761    0.3808 H        1 ZINC000038381027    0.1300
57     H57    -6.1539    7.9701    1.4146 H        1 ZINC000038381027    0.1300
58     H58    -8.3952    7.1347    1.9834 H        1 ZINC000038381027    0.1300
59     H59    -2.6169    3.4566    1.0938 H        1 ZINC000038381027    0.0800
60     H60    -3.2236    5.0685    1.5453 H        1 ZINC000038381027    0.0900
61     H61    -0.7520    5.0716    1.3430 H        1 ZINC000038381027    0.0800
62     H62    -1.4966    6.1208    0.1135 H        1 ZINC000038381027    0.0900
63     H63    -1.4740    2.3921    0.0282 H        1 ZINC000038381027    0.1400
64     H64     0.1101    2.8261    0.7135 H        1 ZINC000038381027    0.1400
@<TRIPOS>BOND
1     1     2     1
2     1     39    1
3     1     40    1
4     1     41    1
5     2     3     1
6     2     42    1
7     2     43    1
8     3     4     1
9     3     6     1
10    3     44    1
11    4     5     1
12    4     45    1
13    4     46    1
14    5     47    1
15    5     48    1
16    5     49    1
17    6     7     1
18    6     50    1
19    6     51    1
20    7     8     1
21    8     9     2
22    8     10    1
23    10    11    1
24    10    36    1
25    10    12    1
26    12    13    1
27    12    52    1
28    12    53    1
29    13    14    1
30    13    33    1
31    13    15    1
32    15    16    1
33    15    54    1
34    15    55    1
35    16    17    1
36    16    18    1
37    16    31    1
38    18    19    1
39    19    25    ar
40    19    20    ar
41    20    21    ar
42    20    56    1
43    21    22    ar
44    21    57    1
45    22    23    ar
46    22    58    1
47    23    24    1
48    23    25    ar
49    25    26    1
50    26    30    1
51    26    27    2
52    27    28    1
53    28    29    2
54    29    30    1
55    31    32    1
56    31    59    1
57    31    60    1
58    32    33    1
59    32    61    1
60    32    62    1
61    33    34    1
62    33    35    1
63    35    36    1
64    35    63    1
65    35    64    1
66    36    37    1
67    36    38    1
@<TRIPOS>SUBSTRUCTURE
1   ZINC000038381027 1     RESIDUE    1   A     ZIN   1
