@<TRIPOS>MOLECULE
ZINC000072266313
  46   49    0    0    0
SMALL
USER_CHARGES
NO_NAME
@<TRIPOS>ATOM
    1 C1       -0.0187     1.5258     0.0104 C.3    1 <0>      -0.1700
    2 C2        0.0021    -0.0041     0.0020 C.3    1 <0>       0.1700
    3 C3        0.7421    -0.5109     1.2415 C.3    1 <0>      -0.1700
    4 C4       -1.4333    -0.5336     0.0129 C.3    1 <0>      -0.1600
    5 N5        0.6878    -0.4765    -1.2033 N.am   1 <0>      -0.7100
    6 C6        1.9715    -0.1323    -1.4270 C.2    1 <0>       0.6100
    7 O7        2.5604     0.5704    -0.6285 O.2    1 <0>      -0.5200
    8 C8        2.6626    -0.6084    -2.6418 C.2    1 <0>       0.0200
    9 N9        2.1471    -1.3686    -3.5926 N.2    1 <0>      -0.2600
   10 N10       3.0280    -1.5931    -4.5046 N.pl3  1 <0>      -0.2100
   11 C11       2.8134    -2.3629    -5.6567 C.ar   1 <0>       0.0900
   12 C12       3.8398    -2.5433    -6.5732 C.ar   1 <0>      -0.0700
   13 C13       3.6268    -3.3024    -7.7075 C.ar   1 <0>      -0.1400
   14 C14       2.3903    -3.8839    -7.9317 C.ar   1 <0>       0.1400
   15 F15       2.1854    -4.6261    -9.0418 F      1 <0>      -0.1200
   16 C16       1.3634    -3.7063    -7.0195 C.ar   1 <0>      -0.1700
   17 C17       1.5732    -2.9517    -5.8800 C.ar   1 <0>       0.1400
   18 F18       0.5719    -2.7781    -4.9898 F      1 <0>      -0.1000
   19 C19       4.1884    -0.9784    -4.1899 C.2    1 <0>      -0.0200
   20 C20       3.9900    -0.3345    -3.0089 C.2    1 <0>      -0.1500
   21 C21       5.2893     0.3692    -2.6300 C.3    1 <0>      -0.0200
   22 H22       5.2041     1.1867    -1.9141 H      1 <0>       0.1100
   23 C23       6.2587    -0.7925    -2.2403 C.3    1 <0>      -0.1200
   24 C24       6.4931    -1.5430    -3.5737 C.3    1 <0>      -0.1200
   25 C25       5.6282    -0.7132    -4.6282 C.3    1 <0>      -0.0200
   26 H26       5.8658    -0.8744    -5.6796 H      1 <0>       0.1100
   27 C27       5.8247     0.7395    -4.0629 C.3    1 <0>      -0.1100
   28 H28       1.0039     1.9031     0.0027 H      1 <0>       0.0800
   29 H29      -0.5459     1.8868    -0.8726 H      1 <0>       0.0500
   30 H30      -0.5289     1.8773     0.9072 H      1 <0>       0.0700
   31 H31       0.2319    -0.1594     2.1383 H      1 <0>       0.0700
   32 H32       0.7568    -1.6008     1.2356 H      1 <0>       0.0500
   33 H33       1.7647    -0.1336     1.2338 H      1 <0>       0.0800
   34 H34      -1.9605    -0.1726    -0.8702 H      1 <0>       0.0600
   35 H35      -1.4185    -1.6235     0.0069 H      1 <0>       0.0600
   36 H36      -1.9435    -0.1821     0.9097 H      1 <0>       0.0800
   37 H37       0.2179    -1.0371    -1.8404 H      1 <0>       0.4100
   38 H38       4.8046    -2.0900    -6.3998 H      1 <0>       0.1600
   39 H39       4.4258    -3.4422    -8.4206 H      1 <0>       0.1600
   40 H40       0.3996    -4.1604    -7.1964 H      1 <0>       0.1600
   41 H41       7.1975    -0.3944    -1.8552 H      1 <0>       0.0800
   42 H42       5.7920    -1.4508    -1.5076 H      1 <0>       0.0700
   43 H43       7.5480    -1.5174    -3.8467 H      1 <0>       0.0800
   44 H44       6.1409    -2.5720    -3.5004 H      1 <0>       0.0700
   45 H45       5.2029     1.4733    -4.5758 H      1 <0>       0.0800
   46 H46       6.8729     1.0375    -4.0364 H      1 <0>       0.0900
@<TRIPOS>BOND
   1    1    2 1
   2    1   28 1
   3    1   29 1
   4    1   30 1
   5    2    3 1
   6    2    4 1
   7    2    5 1
   8    3   31 1
   9    3   32 1
  10    3   33 1
  11    4   34 1
  12    4   35 1
  13    4   36 1
  14    5    6 am
  15    5   37 1
  16    6    7 2
  17    6    8 1
  18    8   20 1
  19    8    9 2
  20    9   10 1
  21   10   11 1
  22   10   19 1
  23   11   17 ar
  24   11   12 ar
  25   12   13 ar
  26   12   38 1
  27   13   14 ar
  28   13   39 1
  29   14   15 1
  30   14   16 ar
  31   16   17 ar
  32   16   40 1
  33   17   18 1
  34   19   25 1
  35   19   20 2
  36   20   21 1
  37   21   22 1
  38   21   27 1
  39   21   23 1
  40   23   24 1
  41   23   41 1
  42   23   42 1
  43   24   25 1
  44   24   43 1
  45   24   44 1
  46   25   26 1
  47   25   27 1
  48   27   45 1
  49   27   46 1
