@<TRIPOS>MOLECULE
ZINC000000001457
27    28    1     0     0
SMALL
USER_CHARGES
@<TRIPOS>ATOM
1      O1      0.0021   -0.0041    0.0020 O.2      1 ZINC000000001457   -0.5800
2      C2     -0.0144    1.2137    0.0087 C.2      1 ZINC000000001457    0.5100
3      N3     -1.1875    1.8781    0.0291 N.pl3    1 ZINC000000001457   -0.6800
4      C4     -1.2057    3.2238    0.0370 C.2      1 ZINC000000001457    0.6500
5      O5     -2.2717    3.8085    0.0559 O.2      1 ZINC000000001457   -0.6000
6      N6     -0.0616    3.9315    0.0247 N.am     1 ZINC000000001457   -0.5500
7      C7     -0.1136    5.3955    0.0343 C.3      1 ZINC000000001457    0.3100
8      H8     -0.6135    5.7548    0.9338 H        1 ZINC000000001457    0.1000
9      C9     -0.8281    5.9245   -1.2354 C.3      1 ZINC000000001457   -0.1800
10     C10    -0.2409    7.3509   -1.3675 C.3      1 ZINC000000001457    0.0800
11     H11    -0.0342    7.5831   -2.4122 H        1 ZINC000000001457    0.0800
12     O12    -1.1372    8.3143   -0.8101 O.3      1 ZINC000000001457   -0.5600
13     C13     1.0689    7.2966   -0.5575 C.3      1 ZINC000000001457    0.0900
14     H14     1.0154    7.9911    0.2808 H        1 ZINC000000001457    0.0900
15     C15     2.2524    7.6579   -1.4574 C.3      1 ZINC000000001457    0.0800
16     O16     3.4457    7.7187   -0.6736 O.3      1 ZINC000000001457   -0.5600
17     O17     1.2148    5.9522   -0.0659 O.3      1 ZINC000000001457   -0.3700
18     C18     1.1525    3.2953    0.0039 C.2      1 ZINC000000001457    0.1100
19     C19     1.1994    1.9455    0.0011 C.2      1 ZINC000000001457   -0.1100
20     F20     2.3870    1.3016   -0.0189 F        1 ZINC000000001457   -0.1400
21     H21    -0.5756    5.3179   -2.1051 H        1 ZINC000000001457    0.0900
22     H22    -1.9075    5.9603   -1.0880 H        1 ZINC000000001457    0.1100
23     H23    -1.9990    8.3488   -1.2472 H        1 ZINC000000001457    0.3900
24     H24     2.3647    6.8993   -2.2320 H        1 ZINC000000001457    0.0600
25     H25     2.0729    8.6276   -1.9218 H        1 ZINC000000001457    0.0600
26     H26     4.2380    7.9435   -1.1802 H        1 ZINC000000001457    0.3800
27     H27     2.0666    3.8703   -0.0062 H        1 ZINC000000001457    0.1600
@<TRIPOS>BOND
1     1     2     2
2     2     19    1
3     2     3     1
4     3     4     1
5     4     5     2
6     4     6     am
7     6     7     1
8     6     18    1
9     7     8     1
10    7     17    1
11    7     9     1
12    9     10    1
13    9     21    1
14    9     22    1
15    10    11    1
16    10    12    1
17    10    13    1
18    12    23    1
19    13    14    1
20    13    15    1
21    13    17    1
22    15    16    1
23    15    24    1
24    15    25    1
25    16    26    1
26    18    19    2
27    18    27    1
28    19    20    1
@<TRIPOS>SUBSTRUCTURE
1   ZINC000000001457 1     RESIDUE    1   A     ZIN   1
