@<TRIPOS>MOLECULE
ZINC000001235035
55    58    1     0     0
SMALL
USER_CHARGES
@<TRIPOS>ATOM
1      C1     -0.8883    1.5461   -0.7821 C.3      1 ZINC000001235035   -0.1300
2      C2     -0.7386    0.0338   -0.6053 C.3      1 ZINC000001235035   -0.0300
3      C3     -2.0815   -0.6277   -0.8055 C.3      1 ZINC000001235035   -0.1200
4      C4     -2.0054   -2.1248   -0.5129 C.3      1 ZINC000001235035   -0.1800
5      C5     -1.5596   -2.3156    0.9433 C.3      1 ZINC000001235035   -0.0600
6      H6     -2.2582   -1.8107    1.6105 H        1 ZINC000001235035    0.0700
7      C7     -0.1658   -1.7216    1.1138 C.3      1 ZINC000001235035   -0.1500
8      H8      0.5283   -2.2333    0.4472 H        1 ZINC000001235035    0.1500
9      C9      0.2974   -1.9023    2.5641 C.3      1 ZINC000001235035   -0.1100
10     C10     0.4381   -3.3947    2.8685 C.3      1 ZINC000001235035   -0.1000
11     C11    -0.8844   -4.0752    2.5651 C.2      1 ZINC000001235035   -0.0100
12     C12    -1.3997   -4.8761    3.4973 C.2      1 ZINC000001235035   -0.2500
13     C13    -2.6678   -5.5701    3.2477 C.2      1 ZINC000001235035    0.3900
14     O14    -3.3595   -5.9835    4.1549 O.2      1 ZINC000001235035   -0.4600
15     C15    -3.0682   -5.7427    1.7955 C.3      1 ZINC000001235035   -0.1700
16     C16    -2.9398   -4.3777    1.1206 C.3      1 ZINC000001235035   -0.1000
17     C17    -1.5515   -3.8205    1.2456 C.3      1 ZINC000001235035   -0.0300
18     C18    -0.6811   -4.4759    0.1714 C.3      1 ZINC000001235035   -0.1700
19     C19    -0.1183   -0.2571    0.7713 C.3      1 ZINC000001235035   -0.0700
20     H20    -0.5872    0.3506    1.5452 H        1 ZINC000001235035    0.0800
21     C21     1.3811    0.1017    0.5872 C.3      1 ZINC000001235035   -0.1200
22     C22     1.6937   -0.1050   -0.9068 C.3      1 ZINC000001235035   -0.1400
23     C23     0.3192   -0.4909   -1.5941 C.3      1 ZINC000001235035    0.1000
24     O24     0.2110    0.1197   -2.8815 O.3      1 ZINC000001235035   -0.5300
25     C25     0.1811   -1.9878   -1.7015 C.2      1 ZINC000001235035    0.3300
26     O26     0.7892   -2.7061   -0.9449 O.2      1 ZINC000001235035   -0.3900
27     C27    -0.7160   -2.5881   -2.7531 C.3      1 ZINC000001235035    0.0200
28     O28    -0.6791   -4.0132   -2.6536 O.3      1 ZINC000001235035   -0.5500
29     H29     0.0919    2.0184   -0.7159 H        1 ZINC000001235035    0.0600
30     H30    -1.3278    1.7562   -1.7571 H        1 ZINC000001235035    0.0700
31     H31    -1.5355    1.9412    0.0010 H        1 ZINC000001235035    0.0600
32     H32    -2.8094   -0.1690   -0.1363 H        1 ZINC000001235035    0.0700
33     H33    -2.4025   -0.4806   -1.8367 H        1 ZINC000001235035    0.0700
34     H34    -2.9869   -2.5764   -0.6574 H        1 ZINC000001235035    0.0700
35     H35    -1.2823   -2.5922   -1.1813 H        1 ZINC000001235035    0.1200
36     H36     1.2603   -1.4105    2.7024 H        1 ZINC000001235035    0.0700
37     H37    -0.4369   -1.4612    3.2382 H        1 ZINC000001235035    0.0600
38     H38     1.2222   -3.8235    2.2443 H        1 ZINC000001235035    0.0900
39     H39     0.6876   -3.5320    3.9206 H        1 ZINC000001235035    0.0800
40     H40    -0.8840   -5.0139    4.4361 H        1 ZINC000001235035    0.1300
41     H41    -2.4050   -6.4594    1.3110 H        1 ZINC000001235035    0.1000
42     H42    -4.0993   -6.0907    1.7343 H        1 ZINC000001235035    0.0900
43     H43    -3.1945   -4.4777    0.0654 H        1 ZINC000001235035    0.0800
44     H44    -3.6370   -3.6829    1.5887 H        1 ZINC000001235035    0.0600
45     H45    -1.0478   -4.1935   -0.8155 H        1 ZINC000001235035    0.1000
46     H46     0.3500   -4.1415    0.2853 H        1 ZINC000001235035    0.0800
47     H47    -0.7256   -5.5597    0.2791 H        1 ZINC000001235035    0.0400
48     H48     1.5544    1.1412    0.8657 H        1 ZINC000001235035    0.0700
49     H49     2.0013   -0.5577    1.1943 H        1 ZINC000001235035    0.0800
50     H50     2.0520    0.8261   -1.3458 H        1 ZINC000001235035    0.0800
51     H51     2.4430   -0.8875   -1.0268 H        1 ZINC000001235035    0.0800
52     H52     0.8961   -0.1553   -3.5060 H        1 ZINC000001235035    0.3800
53     H53    -1.7376   -2.2397   -2.6013 H        1 ZINC000001235035    0.0900
54     H54    -0.3714   -2.2839   -3.7414 H        1 ZINC000001235035    0.0800
55     H55    -1.2347   -4.4673   -3.3018 H        1 ZINC000001235035    0.3900
@<TRIPOS>BOND
1     1     2     1
2     1     29    1
3     1     30    1
4     1     31    1
5     2     19    1
6     2     23    1
7     2     3     1
8     3     4     1
9     3     32    1
10    3     33    1
11    4     5     1
12    4     34    1
13    4     35    1
14    5     6     1
15    5     17    1
16    5     7     1
17    7     8     1
18    7     9     1
19    7     19    1
20    9     10    1
21    9     36    1
22    9     37    1
23    10    11    1
24    10    38    1
25    10    39    1
26    11    17    1
27    11    12    2
28    12    13    1
29    12    40    1
30    13    14    2
31    13    15    1
32    15    16    1
33    15    41    1
34    15    42    1
35    16    17    1
36    16    43    1
37    16    44    1
38    17    18    1
39    18    45    1
40    18    46    1
41    18    47    1
42    19    20    1
43    19    21    1
44    21    22    1
45    21    48    1
46    21    49    1
47    22    23    1
48    22    50    1
49    22    51    1
50    23    24    1
51    23    25    1
52    24    52    1
53    25    26    2
54    25    27    1
55    27    28    1
56    27    53    1
57    27    54    1
58    28    55    1
@<TRIPOS>SUBSTRUCTURE
1   ZINC000001235035 1     RESIDUE    1   A     ZIN   1
