@<TRIPOS>MOLECULE
ZINC000095616584
  44   47    0    0    0
SMALL
USER_CHARGES
NO_NAME
@<TRIPOS>ATOM
    1 O1       -0.0977     1.3499    -0.0518 O.3    1 <0>      -0.5500
    2 C2       -0.0454    -0.0770     0.0036 C.3    1 <0>       0.1100
    3 H3       -1.0583    -0.4758     0.0591 H      1 <0>       0.1100
    4 C4        0.7421    -0.5109     1.2415 C.3    1 <0>      -0.1600
    5 C5        0.0259    -0.0175     2.5003 C.3    1 <0>       0.1800
    6 H6       -0.1740     1.0511     2.4216 H      1 <0>       0.1500
    7 C7       -1.2658    -0.7726     2.6900 C.ar   1 <0>      -0.0900
    8 C8       -2.3999    -0.8954     1.9195 C.ar   1 <0>      -0.0800
    9 C9       -3.4548    -1.6767     2.3600 C.ar   1 <0>      -0.0800
   10 C10      -3.3730    -2.3355     3.5737 C.ar   1 <0>      -0.1000
   11 C11      -2.2410    -2.2189     4.3539 C.ar   1 <0>      -0.0600
   12 C12      -1.1732    -1.4334     3.9162 C.ar   1 <0>      -0.0700
   13 C13       0.1395    -1.1237     4.5178 C.2    1 <0>       0.0800
   14 C14       0.9337    -1.3499     5.6002 C.2    1 <0>       0.0300
   15 N15       2.0752    -0.6754     5.4196 N.pl3  1 <0>      -0.4700
   16 H16       2.8206    -0.6605     6.0401 H      1 <0>       0.4700
   17 C17       2.0315    -0.0405     4.2788 C.cat  1 <0>       0.3200
   18 N18       0.8461    -0.2894     3.6844 N.pl3  1 <0>      -0.4300
   19 C19       0.6448    -0.6112    -1.2530 C.3    1 <0>      -0.1200
   20 C20       0.7008    -2.1391    -1.1938 C.3    1 <0>      -0.1200
   21 C21       1.3910    -2.6733    -2.4504 C.3    1 <0>      -0.1200
   22 C22       0.6035    -2.2394    -3.6883 C.3    1 <0>      -0.1200
   23 C23       0.5476    -0.7116    -3.7476 C.3    1 <0>      -0.1200
   24 C24      -0.1427    -0.1774    -2.4910 C.3    1 <0>      -0.1100
   25 H25       0.7701     1.7736    -0.1026 H      1 <0>       0.3800
   26 H26       0.8111    -1.5984     1.2655 H      1 <0>       0.1000
   27 H27       1.7442    -0.0840     1.2027 H      1 <0>       0.0900
   28 H28      -2.4670    -0.3820     0.9717 H      1 <0>       0.1500
   29 H29      -4.3441    -1.7718     1.7546 H      1 <0>       0.1500
   30 H30      -4.1989    -2.9435     3.9121 H      1 <0>       0.1500
   31 H31      -2.1809    -2.7347     5.3008 H      1 <0>       0.1400
   32 H32       0.6861    -1.9642     6.4533 H      1 <0>       0.2300
   33 H33       2.8161     0.5833     3.8768 H      1 <0>       0.2600
   34 H34       1.6577    -0.2124    -1.3086 H      1 <0>       0.0800
   35 H35       1.2618    -2.4482    -0.3118 H      1 <0>       0.0600
   36 H36      -0.3121    -2.5379    -1.1382 H      1 <0>       0.0700
   37 H37       2.4039    -2.2745    -2.5059 H      1 <0>       0.0600
   38 H38       1.4309    -3.7617    -2.4082 H      1 <0>       0.0700
   39 H39       1.0953    -2.6200    -4.5836 H      1 <0>       0.0700
   40 H40      -0.4094    -2.6382    -3.6328 H      1 <0>       0.0600
   41 H41       1.5605    -0.3128    -3.8031 H      1 <0>       0.0600
   42 H42      -0.0135    -0.4025    -4.6295 H      1 <0>       0.0700
   43 H43      -1.1556    -0.5762    -2.4354 H      1 <0>       0.0600
   44 H44      -0.1825     0.9111    -2.5332 H      1 <0>       0.0700
@<TRIPOS>BOND
   1    1    2 1
   2    1   25 1
   3    2    3 1
   4    2    4 1
   5    2   19 1
   6    4    5 1
   7    4   26 1
   8    4   27 1
   9    5    6 1
  10    5   18 1
  11    5    7 1
  12    7   12 ar
  13    7    8 ar
  14    8    9 ar
  15    8   28 1
  16    9   10 ar
  17    9   29 1
  18   10   11 ar
  19   10   30 1
  20   11   12 ar
  21   11   31 1
  22   12   13 1
  23   13   18 1
  24   13   14 2
  25   14   15 1
  26   14   32 1
  27   15   16 1
  28   15   17 ar
  29   17   18 ar
  30   17   33 1
  31   19   24 1
  32   19   20 1
  33   19   34 1
  34   20   21 1
  35   20   35 1
  36   20   36 1
  37   21   22 1
  38   21   37 1
  39   21   38 1
  40   22   23 1
  41   22   39 1
  42   22   40 1
  43   23   24 1
  44   23   41 1
  45   23   42 1
  46   24   43 1
  47   24   44 1
