@<TRIPOS>MOLECULE
ZINC000005844413
  47   48    0    0    0
SMALL
USER_CHARGES
NO_NAME
@<TRIPOS>ATOM
    1 C1       -0.0157     1.3058     0.0092 C.2    1 <0>      -0.2000
    2 C2        0.0021    -0.0041     0.0020 C.2    1 <0>      -0.1200
    3 C3        1.3172    -0.7397    -0.0145 C.3    1 <0>      -0.1300
    4 C4       -1.2926    -0.7753     0.0102 C.3    1 <0>      -0.0500
    5 H5       -2.1327    -0.0808     0.0220 H      1 <0>       0.0800
    6 C6       -1.3494    -1.6742     1.2518 C.3    1 <0>      -0.1100
    7 C7       -2.7409    -2.3065     1.3283 C.3    1 <0>      -0.0800
    8 C8       -3.1086    -2.9085     0.0038 C.2    1 <0>      -0.1200
    9 C9       -4.2391    -3.9044    -0.0303 C.3    1 <0>      -0.1200
   10 C10      -2.5155    -2.6252    -1.1113 C.2    1 <0>      -0.1300
   11 C11      -1.3730    -1.6587    -1.2366 C.3    1 <0>       0.0000
   12 H12      -0.4404    -2.2133    -1.3403 H      1 <0>       0.0900
   13 C13      -1.5796    -0.7964    -2.4551 C.ar   1 <0>      -0.1200
   14 C14      -2.7052     0.0068    -2.5546 C.ar   1 <0>       0.1300
   15 O15      -3.6238     0.0173    -1.5532 O.3    1 <0>      -0.4800
   16 C16      -2.8928     0.8003    -3.6775 C.ar   1 <0>      -0.1500
   17 C17      -1.9592     0.7901    -4.6960 C.ar   1 <0>      -0.0500
   18 C18      -2.1655     1.6529    -5.9143 C.3    1 <0>      -0.0800
   19 C19      -1.5228     3.0221    -5.6843 C.3    1 <0>      -0.1200
   20 C20      -1.7322     3.8981    -6.9211 C.3    1 <0>      -0.1500
   21 C21      -0.8365    -0.0095    -4.5992 C.ar   1 <0>      -0.1500
   22 C22      -0.6414    -0.8006    -3.4758 C.ar   1 <0>       0.1300
   23 O23       0.4632    -1.5865    -3.3809 O.3    1 <0>      -0.4900
   24 H24       0.9122     1.8585     0.0033 H      1 <0>       0.1000
   25 H25      -0.9582     1.8330     0.0166 H      1 <0>       0.0900
   26 H26       1.6441    -0.9226     1.0091 H      1 <0>       0.0700
   27 H27       1.1949    -1.6910    -0.5323 H      1 <0>       0.0700
   28 H28       2.0639    -0.1376    -0.5322 H      1 <0>       0.0600
   29 H29      -0.5952    -2.4571     1.1722 H      1 <0>       0.0700
   30 H30      -1.1688    -1.0767     2.1454 H      1 <0>       0.0700
   31 H31      -2.7427    -3.0844     2.0918 H      1 <0>       0.0700
   32 H32      -3.4711    -1.5417     1.5929 H      1 <0>       0.0700
   33 H33      -5.1798    -3.3806    -0.2002 H      1 <0>       0.0700
   34 H34      -4.0701    -4.6184    -0.8363 H      1 <0>       0.0600
   35 H35      -4.2851    -4.4345     0.9210 H      1 <0>       0.0600
   36 H36      -2.8664    -3.1117    -2.0094 H      1 <0>       0.1000
   37 H37      -3.4535     0.6803    -0.8702 H      1 <0>       0.3800
   38 H38      -3.7696     1.4262    -3.7555 H      1 <0>       0.1300
   39 H39      -1.7048     1.1760    -6.7794 H      1 <0>       0.0700
   40 H40      -3.2332     1.7782    -6.0941 H      1 <0>       0.0700
   41 H41      -1.9834     3.4990    -4.8191 H      1 <0>       0.0600
   42 H42      -0.4550     2.8968    -5.5044 H      1 <0>       0.0600
   43 H43      -2.7999     4.0234    -7.1010 H      1 <0>       0.0600
   44 H44      -1.2743     4.8736    -6.7573 H      1 <0>       0.0600
   45 H45      -1.2715     3.4212    -7.7863 H      1 <0>       0.0600
   46 H46      -0.1083    -0.0161    -5.3968 H      1 <0>       0.1300
   47 H47       1.2200    -1.1526    -2.9637 H      1 <0>       0.3900
@<TRIPOS>BOND
   1    1    2 2
   2    1   24 1
   3    1   25 1
   4    2    3 1
   5    2    4 1
   6    3   26 1
   7    3   27 1
   8    3   28 1
   9    4    5 1
  10    4   11 1
  11    4    6 1
  12    6    7 1
  13    6   29 1
  14    6   30 1
  15    7    8 1
  16    7   31 1
  17    7   32 1
  18    8    9 1
  19    8   10 2
  20    9   33 1
  21    9   34 1
  22    9   35 1
  23   10   11 1
  24   10   36 1
  25   11   12 1
  26   11   13 1
  27   13   22 ar
  28   13   14 ar
  29   14   15 1
  30   14   16 ar
  31   15   37 1
  32   16   17 ar
  33   16   38 1
  34   17   18 1
  35   17   21 ar
  36   18   19 1
  37   18   39 1
  38   18   40 1
  39   19   20 1
  40   19   41 1
  41   19   42 1
  42   20   43 1
  43   20   44 1
  44   20   45 1
  45   21   22 ar
  46   21   46 1
  47   22   23 1
  48   23   47 1
