@<TRIPOS>MOLECULE
ZINC000001680419
  10    9    0    0    0
SMALL
USER_CHARGES
NO_NAME
@<TRIPOS>ATOM
    1 N1        0.0175    -1.1399    -0.0042 N.1    1 <0>      -0.4200
    2 C2        0.0021    -0.0041     0.0020 C.1    1 <0>       0.2000
    3 C3       -0.0179     1.4678     0.0101 C.3    1 <0>      -0.0200
    4 C4        1.4175     1.9974    -0.0007 C.3    1 <0>      -0.0200
    5 C5        1.3975     3.4692     0.0073 C.1    1 <0>       0.2000
    6 N6        1.3821     4.6051     0.0136 N.1    1 <0>      -0.4200
    7 H7       -0.5451     1.8289    -0.8729 H      1 <0>       0.1200
    8 H8       -0.5281     1.8193     0.9069 H      1 <0>       0.1200
    9 H9        1.9447     1.6363     0.8823 H      1 <0>       0.1200
   10 H10       1.9277     1.6458    -0.8975 H      1 <0>       0.1200
@<TRIPOS>BOND
   1    1    2 3
   2    2    3 1
   3    3    4 1
   4    3    7 1
   5    3    8 1
   6    4    5 1
   7    4    9 1
   8    4   10 1
   9    5    6 3
