@<TRIPOS>MOLECULE
ZINC000143812640
43    44    1     0     0
SMALL
USER_CHARGES
@<TRIPOS>ATOM
1      C1     -0.0187    1.5258    0.0104 C.3      1 ZINC000143812640   -0.1600
2      C2      0.0021   -0.0041    0.0020 C.3      1 ZINC000143812640   -0.1300
3      H3     -1.0205   -0.3814    0.0098 H        1 ZINC000143812640    0.1300
4      C4      0.7074   -0.4901   -1.2379 C.2      1 ZINC000143812640    0.5200
5      N5      0.2309   -0.1642   -2.4557 N.am     1 ZINC000143812640   -0.8200
6      O6      1.7039   -1.1744   -1.1398 O.2      1 ZINC000143812640   -0.5600
7      C7      0.7421   -0.5109    1.2415 C.3      1 ZINC000143812640    0.1500
8      H8      1.7647   -0.1336    1.2338 H        1 ZINC000143812640    0.1800
9      N9      0.7620   -1.9797    1.2335 N.4      1 ZINC000143812640   -0.6400
10     H10    -0.1846   -2.3290    1.2406 H        1 ZINC000143812640    0.4300
11     H11     1.2343   -2.3051    0.4033 H        1 ZINC000143812640    0.4500
12     H12     1.2500   -2.3140    2.0509 H        1 ZINC000143812640    0.4400
13     C13     0.0367   -0.0249    2.4814 C.2      1 ZINC000143812640    0.2100
14     N14    -0.2375    1.2197    2.7434 N.2      1 ZINC000143812640   -0.4200
15     C15    -0.8761    1.3046    3.9388 C.ar     1 ZINC000143812640    0.0300
16     C16    -1.3857    2.3698    4.6853 C.ar     1 ZINC000143812640   -0.0500
17     C17    -1.9918    2.1308    5.8864 C.ar     1 ZINC000143812640   -0.1200
18     C18    -2.1078    0.8379    6.3758 C.ar     1 ZINC000143812640   -0.0200
19     C19    -2.7801    0.5975    7.7029 C.3      1 ZINC000143812640   -0.0300
20     C20    -3.2369    1.9333    8.2926 C.3      1 ZINC000143812640   -0.1500
21     C21    -3.9933   -0.3130    7.5025 C.3      1 ZINC000143812640   -0.1400
22     C22    -1.7928   -0.0720    8.6609 C.3      1 ZINC000143812640   -0.1400
23     C23    -1.6125   -0.2289    5.6559 C.ar     1 ZINC000143812640   -0.1200
24     C24    -0.9933   -0.0054    4.4340 C.ar     1 ZINC000143812640    0.0800
25     N25    -0.4113   -0.8242    3.4870 N.pl3    1 ZINC000143812640   -0.6100
26     H26     1.0039    1.9031    0.0027 H        1 ZINC000143812640    0.0800
27     H27    -0.5459    1.8868   -0.8726 H        1 ZINC000143812640    0.0800
28     H28    -0.5289    1.8773    0.9072 H        1 ZINC000143812640    0.1200
29     H29    -0.5660    0.3831   -2.5342 H        1 ZINC000143812640    0.4100
30     H30     0.6850   -0.4770   -3.2538 H        1 ZINC000143812640    0.4200
31     H31    -1.3005    3.3803    4.3140 H        1 ZINC000143812640    0.1400
32     H32    -2.3843    2.9570    6.4608 H        1 ZINC000143812640    0.1500
33     H33    -3.9403    2.4103    7.6101 H        1 ZINC000143812640    0.0600
34     H34    -3.7231    1.7595    9.2525 H        1 ZINC000143812640    0.0700
35     H35    -2.3726    2.5820    8.4354 H        1 ZINC000143812640    0.0600
36     H36    -3.6679   -1.2647    7.0824 H        1 ZINC000143812640    0.0600
37     H37    -4.4796   -0.4868    8.4624 H        1 ZINC000143812640    0.0700
38     H38    -4.6967    0.1640    6.8200 H        1 ZINC000143812640    0.0600
39     H39    -0.9285    0.5767    8.8037 H        1 ZINC000143812640    0.0600
40     H40    -2.2790   -0.2458    9.6208 H        1 ZINC000143812640    0.0700
41     H41    -1.4674   -1.0237    8.2408 H        1 ZINC000143812640    0.0600
42     H42    -1.7054   -1.2335    6.0413 H        1 ZINC000143812640    0.1300
43     H43    -0.3357   -1.7902    3.5306 H        1 ZINC000143812640    0.4200
@<TRIPOS>BOND
1     1     2     1
2     1     26    1
3     1     27    1
4     1     28    1
5     2     3     1
6     2     4     1
7     2     7     1
8     4     5     am
9     4     6     2
10    5     29    1
11    5     30    1
12    7     8     1
13    7     9     1
14    7     13    1
15    9     10    1
16    9     11    1
17    9     12    1
18    13    25    1
19    13    14    2
20    14    15    1
21    15    24    ar
22    15    16    ar
23    16    17    ar
24    16    31    1
25    17    18    ar
26    17    32    1
27    18    19    1
28    18    23    ar
29    19    20    1
30    19    21    1
31    19    22    1
32    20    33    1
33    20    34    1
34    20    35    1
35    21    36    1
36    21    37    1
37    21    38    1
38    22    39    1
39    22    40    1
40    22    41    1
41    23    24    ar
42    23    42    1
43    24    25    1
44    25    43    1
@<TRIPOS>SUBSTRUCTURE
1   ZINC000143812640 1     RESIDUE    1   A     ZIN   1
