@<TRIPOS>MOLECULE
ZINC000000590170
58    60    1     0     0
SMALL
USER_CHARGES
@<TRIPOS>ATOM
1      C1      1.6140    2.1308   -2.5261 C.3      1 ZINC000000590170   -0.1400
2      C2      1.4295    0.6161   -2.4144 C.3      1 ZINC000000590170   -0.1000
3      C3      2.3763   -0.0863   -3.3896 C.3      1 ZINC000000590170   -0.1600
4      H4      3.3989    0.2418   -3.2033 H        1 ZINC000000590170    0.0600
5      C5      2.2823   -1.6004   -3.1905 C.3      1 ZINC000000590170   -0.0600
6      C6      3.3018   -2.2861   -4.0630 C.ar     1 ZINC000000590170   -0.1100
7      C7      2.9645   -2.6616   -5.3528 C.ar     1 ZINC000000590170   -0.0200
8      C8      3.8899   -3.2910   -6.1618 C.ar     1 ZINC000000590170   -0.2200
9      C9      5.1661   -3.5514   -5.6860 C.ar     1 ZINC000000590170    0.1700
10     O10     6.0761   -4.1696   -6.4796 O.3      1 ZINC000000590170   -0.2900
11     C11     5.6524   -4.5257   -7.7971 C.3      1 ZINC000000590170    0.0200
12     C12     5.5116   -3.1726   -4.3814 C.ar     1 ZINC000000590170   -0.1800
13     C13     6.8663   -3.4443   -3.8641 C.2      1 ZINC000000590170    0.5700
14     O14     7.6868   -3.9984   -4.5699 O.2      1 ZINC000000590170   -0.5300
15     N15     7.1944   -3.0784   -2.6091 N.am     1 ZINC000000590170   -0.7300
16     C16     8.5395   -3.3482   -2.0954 C.3      1 ZINC000000590170    0.1700
17     C17     8.6469   -2.8443   -0.6793 C.ar     1 ZINC000000590170   -0.1400
18     C18     9.0596   -1.5468   -0.4379 C.ar     1 ZINC000000590170   -0.0600
19     C19     9.1585   -1.0822    0.8592 C.ar     1 ZINC000000590170   -0.1900
20     C20     8.8432   -1.9188    1.9204 C.ar     1 ZINC000000590170    0.1300
21     O21     8.9392   -1.4641    3.1973 O.3      1 ZINC000000590170   -0.2600
22     C22     9.3408   -0.1797    3.3888 C.ar     1 ZINC000000590170    0.0700
23     C23     8.4021    0.8405    3.4436 C.ar     1 ZINC000000590170   -0.0900
24     C24     8.8118    2.1453    3.6382 C.ar     1 ZINC000000590170   -0.1400
25     C25    10.1584    2.4353    3.7786 C.ar     1 ZINC000000590170    0.1000
26     F26    10.5575    3.7119    3.9690 F        1 ZINC000000590170   -0.1300
27     C27    11.0963    1.4182    3.7247 C.ar     1 ZINC000000590170   -0.1400
28     C28    10.6892    0.1117    3.5354 C.ar     1 ZINC000000590170   -0.1000
29     C29     8.4293   -3.2203    1.6754 C.ar     1 ZINC000000590170   -0.1500
30     C30     8.3271   -3.6783    0.3762 C.ar     1 ZINC000000590170   -0.0600
31     C31     4.5676   -2.5317   -3.5759 C.ar     1 ZINC000000590170   -0.0500
32     C32     1.9876    0.2594   -4.8040 C.2      1 ZINC000000590170    0.5100
33     O33     2.7848    0.8220   -5.5351 O.co2    1 ZINC000000590170   -0.7000
34     O34     0.8760   -0.0236   -5.2172 O.co2    1 ZINC000000590170   -0.7000
35     H35     2.6443    2.3902   -2.2827 H        1 ZINC000000590170    0.0500
36     H36     1.3897    2.4501   -3.5439 H        1 ZINC000000590170    0.0600
37     H37     0.9395    2.6312   -1.8313 H        1 ZINC000000590170    0.0400
38     H38     1.6539    0.2968   -1.3966 H        1 ZINC000000590170    0.0400
39     H39     0.3992    0.3566   -2.6577 H        1 ZINC000000590170    0.0600
40     H40     2.4768   -1.8422   -2.1456 H        1 ZINC000000590170    0.0600
41     H41     1.2833   -1.9413   -3.4624 H        1 ZINC000000590170    0.0800
42     H42     1.9717   -2.4613   -5.7279 H        1 ZINC000000590170    0.1400
43     H43     3.6192   -3.5811   -7.1663 H        1 ZINC000000590170    0.1300
44     H44     4.8062   -5.2098   -7.7341 H        1 ZINC000000590170    0.0500
45     H45     5.3542   -3.6277   -8.3380 H        1 ZINC000000590170    0.0600
46     H46     6.4737   -5.0114   -8.3240 H        1 ZINC000000590170    0.1000
47     H47     6.5398   -2.6364   -2.0460 H        1 ZINC000000590170    0.4000
48     H48     8.7271   -4.4218   -2.1142 H        1 ZINC000000590170    0.0800
49     H49     9.2752   -2.8399   -2.7188 H        1 ZINC000000590170    0.0700
50     H50     9.3052   -0.8962   -1.2642 H        1 ZINC000000590170    0.1300
51     H51     9.4812   -0.0689    1.0472 H        1 ZINC000000590170    0.1300
52     H52     7.3517    0.6146    3.3337 H        1 ZINC000000590170    0.1400
53     H53     8.0813    2.9397    3.6805 H        1 ZINC000000590170    0.1500
54     H54    12.1463    1.6458    3.8344 H        1 ZINC000000590170    0.1400
55     H55    11.4210   -0.6815    3.4937 H        1 ZINC000000590170    0.1400
56     H56     8.1834   -3.8735    2.4996 H        1 ZINC000000590170    0.1300
57     H57     8.0047   -4.6911    0.1849 H        1 ZINC000000590170    0.1300
58     H58     4.8263   -2.2368   -2.5696 H        1 ZINC000000590170    0.1200
@<TRIPOS>BOND
1     1     2     1
2     1     35    1
3     1     36    1
4     1     37    1
5     2     3     1
6     2     38    1
7     2     39    1
8     3     4     1
9     3     5     1
10    3     32    1
11    5     6     1
12    5     40    1
13    5     41    1
14    6     31    ar
15    6     7     ar
16    7     8     ar
17    7     42    1
18    8     9     ar
19    8     43    1
20    9     10    1
21    9     12    ar
22    10    11    1
23    11    44    1
24    11    45    1
25    11    46    1
26    12    13    1
27    12    31    ar
28    13    14    2
29    13    15    am
30    15    16    1
31    15    47    1
32    16    17    1
33    16    48    1
34    16    49    1
35    17    30    ar
36    17    18    ar
37    18    19    ar
38    18    50    1
39    19    20    ar
40    19    51    1
41    20    21    1
42    20    29    ar
43    21    22    1
44    22    28    ar
45    22    23    ar
46    23    24    ar
47    23    52    1
48    24    25    ar
49    24    53    1
50    25    26    1
51    25    27    ar
52    27    28    ar
53    27    54    1
54    28    55    1
55    29    30    ar
56    29    56    1
57    30    57    1
58    31    58    1
59    32    33    ar
60    32    34    ar
@<TRIPOS>SUBSTRUCTURE
1   ZINC000000590170 1     RESIDUE    1   A     ZIN   1
