@<TRIPOS>MOLECULE
ZINC000043204146
75    80    1     0     0
SMALL
USER_CHARGES
@<TRIPOS>ATOM
1      C1      0.2430    1.4772    0.3221 C.3      1 ZINC000043204146    0.0200
2      N2      0.2092    0.0104    0.2485 N.3      1 ZINC000043204146   -0.5500
3      C3     -1.1713   -0.4793    0.1300 C.3      1 ZINC000043204146    0.0500
4      C4     -1.1582   -2.0020   -0.0237 C.3      1 ZINC000043204146    0.0500
5      N5     -0.4869   -2.6032    1.1372 N.3      1 ZINC000043204146   -0.4900
6      C6     -0.5189   -3.9919    1.0674 C.ar     1 ZINC000043204146    0.2000
7      C7     -1.1319   -4.6186   -0.0164 C.ar     1 ZINC000043204146   -0.2400
8      C8     -1.1696   -5.9806   -0.0959 C.ar     1 ZINC000043204146   -0.0100
9      C9     -0.5917   -6.7590    0.9126 C.ar     1 ZINC000043204146   -0.2600
10     C10    -0.6322   -8.2270    0.8271 C.2      1 ZINC000043204146    0.5700
11     O11    -0.0384   -8.9007    1.6478 O.2      1 ZINC000043204146   -0.5100
12     N12    -1.3272   -8.8256   -0.1604 N.am     1 ZINC000043204146   -0.6300
13     C13    -1.3657  -10.2214   -0.2416 C.2      1 ZINC000043204146    0.3200
14     N14    -0.7804  -11.0578    0.5738 N.2      1 ZINC000043204146   -0.2300
15     N15    -1.0409  -12.3739    0.1788 N.pl3    1 ZINC000043204146   -0.5000
16     C16    -1.8301  -12.3604   -0.9418 C.ar     1 ZINC000043204146    0.1500
17     C17    -2.3816  -13.3563   -1.7441 C.ar     1 ZINC000043204146   -0.1400
18     C18    -3.1461  -13.0142   -2.8236 C.ar     1 ZINC000043204146   -0.0500
19     C19    -3.3825  -11.6810   -3.1340 C.ar     1 ZINC000043204146   -0.1200
20     C20    -4.2299  -11.3319   -4.3303 C.3      1 ZINC000043204146   -0.0400
21     C21    -5.6738  -11.2310   -3.9107 C.ar     1 ZINC000043204146   -0.0200
22     C22    -6.4834  -12.3506   -3.9470 C.ar     1 ZINC000043204146   -0.1600
23     C23    -7.8103  -12.2590   -3.5618 C.ar     1 ZINC000043204146    0.1400
24     F24    -8.6013  -13.3536   -3.5974 F        1 ZINC000043204146   -0.1300
25     C25    -8.3257  -11.0457   -3.1397 C.ar     1 ZINC000043204146   -0.2000
26     C26    -7.5139   -9.9251   -3.1034 C.ar     1 ZINC000043204146    0.1400
27     F27    -8.0157   -8.7403   -2.6917 F        1 ZINC000043204146   -0.1300
28     C28    -6.1860  -10.0201   -3.4845 C.ar     1 ZINC000043204146   -0.1600
29     C29    -2.8545  -10.6839   -2.3650 C.ar     1 ZINC000043204146   -0.0300
30     C30    -2.0742  -11.0088   -1.2518 C.ar     1 ZINC000043204146   -0.1800
31     C31     0.0285   -6.1325    2.0081 C.ar     1 ZINC000043204146    0.3100
32     N32     0.6054   -6.8960    3.0150 N.pl3    1 ZINC000043204146   -0.7200
33     C33     1.1473   -6.2439    4.2097 C.3      1 ZINC000043204146    0.1400
34     C34     0.0254   -6.0308    5.2306 C.3      1 ZINC000043204146   -0.1700
35     C35     0.6149   -5.4213    6.5053 C.3      1 ZINC000043204146    0.0600
36     O36     1.6344   -6.2826    7.0161 O.3      1 ZINC000043204146   -0.3800
37     C37     2.7323   -6.4806    6.1232 C.3      1 ZINC000043204146    0.0700
38     C38     2.2279   -7.1326    4.8331 C.3      1 ZINC000043204146   -0.1600
39     C39     0.0650   -4.7486    2.0749 C.ar     1 ZINC000043204146   -0.2400
40     C40     0.8936   -2.1135    1.2556 C.3      1 ZINC000043204146    0.0600
41     C41     0.8805   -0.5908    1.4094 C.3      1 ZINC000043204146    0.0500
42     H42     1.2788    1.8162    0.3413 H        1 ZINC000043204146    0.0700
43     H43    -0.2605    1.8964   -0.5490 H        1 ZINC000043204146    0.0700
44     H44    -0.2642    1.8072    1.2287 H        1 ZINC000043204146    0.0300
45     H45    -1.7311   -0.2090    1.0254 H        1 ZINC000043204146    0.0500
46     H46    -1.6429   -0.0296   -0.7437 H        1 ZINC000043204146    0.0900
47     H47    -2.1823   -2.3704   -0.0827 H        1 ZINC000043204146    0.0900
48     H48    -0.6216   -2.2710   -0.9336 H        1 ZINC000043204146    0.0600
49     H49    -1.5801   -4.0228   -0.7978 H        1 ZINC000043204146    0.1300
50     H50    -1.6468   -6.4583   -0.9388 H        1 ZINC000043204146    0.1200
51     H51    -1.8007   -8.2884   -0.8147 H        1 ZINC000043204146    0.4200
52     H52    -0.7147  -13.1701    0.6268 H        1 ZINC000043204146    0.4400
53     H53    -2.2050  -14.3965   -1.5138 H        1 ZINC000043204146    0.1300
54     H54    -3.5715  -13.7897   -3.4433 H        1 ZINC000043204146    0.1300
55     H55    -3.9032  -10.3765   -4.7407 H        1 ZINC000043204146    0.0900
56     H56    -4.1253  -12.1079   -5.0885 H        1 ZINC000043204146    0.0900
57     H57    -6.0810  -13.2972   -4.2764 H        1 ZINC000043204146    0.1400
58     H58    -9.3606  -10.9733   -2.8394 H        1 ZINC000043204146    0.1500
59     H59    -5.5524   -9.1461   -3.4559 H        1 ZINC000043204146    0.1400
60     H60    -3.0425   -9.6497   -2.6130 H        1 ZINC000043204146    0.1300
61     H61     0.6495   -7.8610    2.9271 H        1 ZINC000043204146    0.4200
62     H62     1.5800   -5.2818    3.9354 H        1 ZINC000043204146    0.0800
63     H63    -0.7216   -5.3543    4.8151 H        1 ZINC000043204146    0.0800
64     H64    -0.4396   -6.9881    5.4659 H        1 ZINC000043204146    0.0800
65     H65     1.0439   -4.4457    6.2769 H        1 ZINC000043204146    0.0500
66     H66    -0.1718   -5.3071    7.2510 H        1 ZINC000043204146    0.1000
67     H67     3.1891   -5.5189    5.8898 H        1 ZINC000043204146    0.0500
68     H68     3.4710   -7.1295    6.5937 H        1 ZINC000043204146    0.1000
69     H69     1.8074   -8.1122    5.0604 H        1 ZINC000043204146    0.0800
70     H70     3.0562   -7.2442    4.1334 H        1 ZINC000043204146    0.0800
71     H71     0.5394   -4.2597    2.9130 H        1 ZINC000043204146    0.1300
72     H72     1.3652   -2.5632    2.1294 H        1 ZINC000043204146    0.0900
73     H73     1.4534   -2.3838    0.3603 H        1 ZINC000043204146    0.0600
74     H74     1.9046   -0.2224    1.4683 H        1 ZINC000043204146    0.0900
75     H75     0.3439   -0.3218    2.3192 H        1 ZINC000043204146    0.0500
@<TRIPOS>BOND
1     1     2     1
2     1     42    1
3     1     43    1
4     1     44    1
5     2     41    1
6     2     3     1
7     3     4     1
8     3     45    1
9     3     46    1
10    4     5     1
11    4     47    1
12    4     48    1
13    5     6     1
14    5     40    1
15    6     39    ar
16    6     7     ar
17    7     8     ar
18    7     49    1
19    8     9     ar
20    8     50    1
21    9     10    1
22    9     31    ar
23    10    11    2
24    10    12    am
25    12    13    1
26    12    51    1
27    13    30    1
28    13    14    2
29    14    15    1
30    15    16    1
31    15    52    1
32    16    30    ar
33    16    17    ar
34    17    18    ar
35    17    53    1
36    18    19    ar
37    18    54    1
38    19    20    1
39    19    29    ar
40    20    21    1
41    20    55    1
42    20    56    1
43    21    28    ar
44    21    22    ar
45    22    23    ar
46    22    57    1
47    23    24    1
48    23    25    ar
49    25    26    ar
50    25    58    1
51    26    27    1
52    26    28    ar
53    28    59    1
54    29    30    ar
55    29    60    1
56    31    32    1
57    31    39    ar
58    32    33    1
59    32    61    1
60    33    38    1
61    33    34    1
62    33    62    1
63    34    35    1
64    34    63    1
65    34    64    1
66    35    36    1
67    35    65    1
68    35    66    1
69    36    37    1
70    37    38    1
71    37    67    1
72    37    68    1
73    38    69    1
74    38    70    1
75    39    71    1
76    40    41    1
77    40    72    1
78    40    73    1
79    41    74    1
80    41    75    1
@<TRIPOS>SUBSTRUCTURE
1   ZINC000043204146 1     RESIDUE    1   A     ZIN   1
