@<TRIPOS>MOLECULE
ZINC000030691363
  24   24    0    0    0
SMALL
USER_CHARGES
NO_NAME
@<TRIPOS>ATOM
    1 N1       -0.0162     1.3436     0.0094 N.am   1 <0>      -0.8200
    2 C2        0.0021    -0.0041     0.0020 C.2    1 <0>       0.6500
    3 O3        1.0625    -0.5972    -0.0113 O.2    1 <0>      -0.5700
    4 O4       -1.1546    -0.6930     0.0094 O.3    1 <0>      -0.3600
    5 C5       -1.0590    -2.1419     0.0007 C.3    1 <0>       0.0600
    6 C6       -2.4647    -2.7458     0.0108 C.3    1 <0>       0.1500
    7 H7       -3.0231    -2.3522     0.8602 H      1 <0>       0.1300
    8 O8       -3.1387    -2.4042    -1.2020 O.3    1 <0>      -0.5400
    9 C9       -2.3664    -4.2452     0.1257 C.ar   1 <0>      -0.1200
   10 C10      -2.3900    -5.0286    -1.0125 C.ar   1 <0>      -0.1000
   11 C11      -2.2998    -6.4043    -0.9073 C.ar   1 <0>      -0.1100
   12 C12      -2.1865    -6.9969     0.3362 C.ar   1 <0>      -0.1000
   13 C13      -2.1628    -6.2143     1.4755 C.ar   1 <0>      -0.1100
   14 C14      -2.2467    -4.8376     1.3705 C.ar   1 <0>      -0.0300
   15 Cl15     -2.2170    -3.8542     2.8008 Cl     1 <0>      -0.0600
   16 H16       0.8172     1.8399     0.0041 H      1 <0>       0.4300
   17 H17      -0.8627     1.8171     0.0160 H      1 <0>       0.4100
   18 H18      -0.5308    -2.4658    -0.8961 H      1 <0>       0.0800
   19 H19      -0.5139    -2.4753     0.8837 H      1 <0>       0.0900
   20 H20      -2.6969    -2.7232    -2.0008 H      1 <0>       0.3800
   21 H21      -2.4792    -4.5661    -1.9844 H      1 <0>       0.1300
   22 H22      -2.3183    -7.0160    -1.7971 H      1 <0>       0.1300
   23 H23      -2.1168    -8.0715     0.4178 H      1 <0>       0.1400
   24 H24      -2.0742    -6.6775     2.4471 H      1 <0>       0.1400
@<TRIPOS>BOND
   1    1    2 am
   2    1   16 1
   3    1   17 1
   4    2    3 2
   5    2    4 1
   6    4    5 1
   7    5    6 1
   8    5   18 1
   9    5   19 1
  10    6    7 1
  11    6    8 1
  12    6    9 1
  13    8   20 1
  14    9   14 ar
  15    9   10 ar
  16   10   11 ar
  17   10   21 1
  18   11   12 ar
  19   11   22 1
  20   12   13 ar
  21   12   23 1
  22   13   14 ar
  23   13   24 1
  24   14   15 1
