@<TRIPOS>MOLECULE
ZINC000003776571
38    38    1     0     0
SMALL
USER_CHARGES
@<TRIPOS>ATOM
1      N1     -0.0178    1.4648    0.0101 N.3      1 ZINC000003776571   -0.8300
2      C2      0.0021   -0.0041    0.0020 C.3      1 ZINC000003776571    0.0600
3      C3     -1.4117   -0.5257    0.0127 C.2      1 ZINC000003776571    0.5300
4      O4     -2.3441    0.2498    0.0258 O.2      1 ZINC000003776571   -0.5000
5      N5     -1.6400   -1.8540    0.0078 N.am     1 ZINC000003776571   -0.6000
6      C6     -0.6049   -2.9036   -0.0013 C.3      1 ZINC000003776571    0.1000
7      C7     -1.2966   -4.1480    0.6091 C.3      1 ZINC000003776571   -0.1300
8      C8     -2.7311   -4.0218    0.0314 C.3      1 ZINC000003776571   -0.1200
9      C9     -2.9625   -2.4961    0.0169 C.3      1 ZINC000003776571    0.1200
10     H10    -3.5127   -2.2132   -0.8805 H        1 ZINC000003776571    0.0900
11     C11    -3.7353   -2.0833    1.2431 C.2      1 ZINC000003776571    0.5100
12     O12    -3.2415   -1.3148    2.0409 O.2      1 ZINC000003776571   -0.5400
13     N13    -4.9752   -2.5681    1.4531 N.am     1 ZINC000003776571   -0.6900
14     C14    -5.7264   -2.1668    2.6451 C.3      1 ZINC000003776571    0.0800
15     H15    -5.4960   -1.1294    2.8876 H        1 ZINC000003776571    0.0700
16     C16    -7.2257   -2.3063    2.3740 C.3      1 ZINC000003776571   -0.0800
17     C17    -7.6406   -1.3179    1.2822 C.3      1 ZINC000003776571   -0.1800
18     C18    -9.1174   -1.4553    1.0152 C.2      1 ZINC000003776571    0.4900
19     O19    -9.7769   -2.2683    1.6401 O.co2    1 ZINC000003776571   -0.7000
20     O20    -9.6527   -0.7534    0.1742 O.co2    1 ZINC000003776571   -0.7200
21     C21    -5.3410   -3.0509    3.8031 C.2      1 ZINC000003776571    0.5000
22     O22    -4.5153   -3.9343    3.6471 O.co2    1 ZINC000003776571   -0.7000
23     O23    -5.8548   -2.8827    4.8959 O.co2    1 ZINC000003776571   -0.7000
24     H24     0.9191    1.8392    0.0032 H        1 ZINC000003776571    0.3400
25     H25    -0.5563    1.8234   -0.7642 H        1 ZINC000003776571    0.3500
26     H26     0.5123   -0.3556   -0.8948 H        1 ZINC000003776571    0.0500
27     H27     0.5293   -0.3651    0.8851 H        1 ZINC000003776571    0.1000
28     H28    -0.2835   -3.1107   -1.0221 H        1 ZINC000003776571    0.0700
29     H29     0.2452   -2.6034    0.6113 H        1 ZINC000003776571    0.0700
30     H30    -0.8182   -5.0668    0.2697 H        1 ZINC000003776571    0.0800
31     H31    -1.3077   -4.0943    1.6977 H        1 ZINC000003776571    0.0900
32     H32    -2.7782   -4.4323   -0.9772 H        1 ZINC000003776571    0.0800
33     H33    -3.4538   -4.5130    0.6830 H        1 ZINC000003776571    0.1000
34     H34    -5.3701   -3.1828    0.8151 H        1 ZINC000003776571    0.3900
35     H35    -7.4425   -3.3227    2.0454 H        1 ZINC000003776571    0.0500
36     H36    -7.7814   -2.0933    3.2872 H        1 ZINC000003776571    0.0800
37     H37    -7.4238   -0.3015    1.6108 H        1 ZINC000003776571    0.0500
38     H38    -7.0849   -1.5309    0.3690 H        1 ZINC000003776571    0.0500
@<TRIPOS>BOND
1     1     2     1
2     1     24    1
3     1     25    1
4     2     3     1
5     2     26    1
6     2     27    1
7     3     4     2
8     3     5     am
9     5     9     1
10    5     6     1
11    6     7     1
12    6     28    1
13    6     29    1
14    7     8     1
15    7     30    1
16    7     31    1
17    8     9     1
18    8     32    1
19    8     33    1
20    9     10    1
21    9     11    1
22    11    12    2
23    11    13    am
24    13    14    1
25    13    34    1
26    14    15    1
27    14    16    1
28    14    21    1
29    16    17    1
30    16    35    1
31    16    36    1
32    17    18    1
33    17    37    1
34    17    38    1
35    18    19    ar
36    18    20    ar
37    21    22    ar
38    21    23    ar
@<TRIPOS>SUBSTRUCTURE
1   ZINC000003776571 1     RESIDUE    1   A     ZIN   1
