@<TRIPOS>MOLECULE
ZINC000003833954
  57   60    0    0    0
SMALL
USER_CHARGES
NO_NAME
@<TRIPOS>ATOM
    1 C1        0.5144     0.5103     1.8422 C.3    1 <0>      -0.2100
    2 C2        0.1425    -0.0045     0.4755 C.2    1 <0>       0.3600
    3 O3        0.9081     0.1290    -0.4488 O.2    1 <0>      -0.4500
    4 C4       -1.1846    -0.6859     0.2624 C.3    1 <0>      -0.1300
    5 H5       -1.9496    -0.2257     0.8878 H      1 <0>       0.1000
    6 C6       -1.5937    -0.6096    -1.2297 C.3    1 <0>      -0.1200
    7 C7       -1.7877    -2.0751    -1.7063 C.3    1 <0>      -0.1200
    8 C8       -2.0895    -2.8221    -0.4027 C.3    1 <0>      -0.0800
    9 H9       -3.1100    -2.6202    -0.0772 H      1 <0>       0.0700
   10 C10      -1.8272    -4.3164    -0.4192 C.3    1 <0>      -0.0800
   11 H11      -0.7838    -4.5044    -0.6720 H      1 <0>       0.0800
   12 C12      -2.7376    -5.0047    -1.4372 C.3    1 <0>      -0.1100
   13 C13      -2.4945    -6.5149    -1.3994 C.3    1 <0>      -0.1200
   14 C14      -2.8038    -7.0479     0.0008 C.3    1 <0>      -0.0700
   15 H15      -3.8464    -6.8437     0.2448 H      1 <0>       0.0700
   16 C16      -2.5581    -8.5574     0.0387 C.3    1 <0>      -0.1100
   17 C17      -2.8697    -9.0898     1.4389 C.3    1 <0>       0.1000
   18 H18      -3.9121    -8.8841     1.6822 H      1 <0>       0.0500
   19 O19      -2.6414   -10.5000     1.4742 O.3    1 <0>      -0.5700
   20 C20      -1.9619    -8.4001     2.4594 C.3    1 <0>      -0.1500
   21 C21      -2.2078    -6.8906     2.4223 C.3    1 <0>      -0.1100
   22 C22      -1.8969    -6.3578     1.0221 C.3    1 <0>      -0.0500
   23 C23      -0.4324    -6.6410     0.6816 C.3    1 <0>      -0.1500
   24 C24      -2.1230    -4.8455     0.9928 C.3    1 <0>      -0.0700
   25 H25      -3.1705    -4.6419     1.2154 H      1 <0>       0.0600
   26 C26      -1.2544    -4.1666     2.0462 C.3    1 <0>      -0.1200
   27 C27      -1.3911    -2.6360     1.9830 C.3    1 <0>      -0.1000
   28 C28      -1.0709    -2.1742     0.5757 C.3    1 <0>      -0.0500
   29 C29       0.3111    -2.6868     0.1652 C.3    1 <0>      -0.1600
   30 H30       1.5027     0.9682     1.8014 H      1 <0>       0.0800
   31 H31      -0.2170     1.2523     2.1623 H      1 <0>       0.0900
   32 H32       0.5265    -0.3174     2.5513 H      1 <0>       0.0900
   33 H33      -2.5267    -0.0557    -1.3340 H      1 <0>       0.0700
   34 H34      -0.8058    -0.1288    -1.8096 H      1 <0>       0.0800
   35 H35      -2.6283    -2.1482    -2.3963 H      1 <0>       0.0700
   36 H36      -0.8755    -2.4551    -2.1663 H      1 <0>       0.0700
   37 H37      -3.7792    -4.7981    -1.1913 H      1 <0>       0.0600
   38 H38      -2.5180    -4.6262    -2.4355 H      1 <0>       0.0600
   39 H39      -3.1423    -7.0054    -2.1260 H      1 <0>       0.0600
   40 H40      -1.4526    -6.7212    -1.6445 H      1 <0>       0.0700
   41 H41      -3.2038    -9.0490    -0.6890 H      1 <0>       0.0700
   42 H42      -1.5153    -8.7619    -0.2041 H      1 <0>       0.0700
   43 H43      -2.8193   -10.9058     2.3337 H      1 <0>       0.3800
   44 H44      -2.1825    -8.7798     3.4570 H      1 <0>       0.0600
   45 H45      -0.9195    -8.6045     2.2151 H      1 <0>       0.0700
   46 H46      -3.2502    -6.6863     2.6667 H      1 <0>       0.0600
   47 H47      -1.5614    -6.3994     3.1497 H      1 <0>       0.0700
   48 H48      -0.2543    -7.7160     0.7088 H      1 <0>       0.0600
   49 H49      -0.2113    -6.2613    -0.3160 H      1 <0>       0.0600
   50 H50       0.2118    -6.1474     1.4092 H      1 <0>       0.0600
   51 H51      -1.5577    -4.5114     3.0347 H      1 <0>       0.0700
   52 H52      -0.2124    -4.4390     1.8788 H      1 <0>       0.0700
   53 H53      -2.4208    -2.3467     2.1929 H      1 <0>       0.0600
   54 H54      -0.7202    -2.1736     2.7071 H      1 <0>       0.0700
   55 H55       0.3557    -3.7663     0.3090 H      1 <0>       0.0700
   56 H56       0.4885    -2.4524    -0.8844 H      1 <0>       0.0600
   57 H57       1.0736    -2.2067     0.7786 H      1 <0>       0.0500
@<TRIPOS>BOND
   1    1    2 1
   2    1   30 1
   3    1   31 1
   4    1   32 1
   5    2    3 2
   6    2    4 1
   7    4    5 1
   8    4   28 1
   9    4    6 1
  10    6    7 1
  11    6   33 1
  12    6   34 1
  13    7    8 1
  14    7   35 1
  15    7   36 1
  16    8    9 1
  17    8   28 1
  18    8   10 1
  19   10   11 1
  20   10   24 1
  21   10   12 1
  22   12   13 1
  23   12   37 1
  24   12   38 1
  25   13   14 1
  26   13   39 1
  27   13   40 1
  28   14   15 1
  29   14   22 1
  30   14   16 1
  31   16   17 1
  32   16   41 1
  33   16   42 1
  34   17   18 1
  35   17   19 1
  36   17   20 1
  37   19   43 1
  38   20   21 1
  39   20   44 1
  40   20   45 1
  41   21   22 1
  42   21   46 1
  43   21   47 1
  44   22   23 1
  45   22   24 1
  46   23   48 1
  47   23   49 1
  48   23   50 1
  49   24   25 1
  50   24   26 1
  51   26   27 1
  52   26   51 1
  53   26   52 1
  54   27   28 1
  55   27   53 1
  56   27   54 1
  57   28   29 1
  58   29   55 1
  59   29   56 1
  60   29   57 1
