@<TRIPOS>MOLECULE
ZINC000013914293
58    59    1     0     0
SMALL
USER_CHARGES
@<TRIPOS>ATOM
1      C1      0.9581   -2.2245   -0.0196 C.3      1 ZINC000013914293   -0.1700
2      C2      0.3053   -1.3427   -1.0859 C.3      1 ZINC000013914293   -0.1100
3      C3     -1.2166   -1.4647   -0.9869 C.3      1 ZINC000013914293   -0.1500
4      C4      0.7156    0.1145   -0.8639 C.3      1 ZINC000013914293   -0.1200
5      C5      2.2124    0.2705   -1.1397 C.3      1 ZINC000013914293   -0.1300
6      H6      2.4804    1.3264   -1.1032 H        1 ZINC000013914293    0.1100
7      C7      2.9967   -0.4832   -0.0968 C.2      1 ZINC000013914293    0.5400
8      O8      3.7733   -1.3522   -0.4325 O.2      1 ZINC000013914293   -0.5100
9      N9      2.8351   -0.1916    1.2091 N.am     1 ZINC000013914293   -0.7200
10     C10     3.6755   -0.8458    2.2151 C.3      1 ZINC000013914293    0.2000
11     H11     3.8837   -1.8696    1.9046 H        1 ZINC000013914293    0.1300
12     C12     2.9560   -0.8589    3.5392 C.2      1 ZINC000013914293    0.4700
13     O13     1.8542   -0.3719    3.6329 O.2      1 ZINC000013914293   -0.5000
14     O14     3.5391   -1.4117    4.6144 O.3      1 ZINC000013914293   -0.3400
15     C15     2.7877   -1.3886    5.8567 C.3      1 ZINC000013914293    0.0800
16     C16     2.0144   -2.7171    6.0473 C.3      1 ZINC000013914293   -0.1400
17     C17     1.8073   -2.7749    7.5812 C.3      1 ZINC000013914293   -0.1200
18     C18     3.1211   -2.2125    8.1619 C.3      1 ZINC000013914293   -0.1200
19     C19     3.7445   -1.3311    7.0654 C.3      1 ZINC000013914293   -0.1200
20     C20     4.9717   -0.0899    2.3553 C.ar     1 ZINC000013914293   -0.1000
21     C21     4.9714    1.2923    2.3357 C.ar     1 ZINC000013914293   -0.1000
22     C22     6.1604    1.9856    2.4643 C.ar     1 ZINC000013914293   -0.1200
23     C23     7.3496    1.2968    2.6129 C.ar     1 ZINC000013914293   -0.1100
24     C24     7.3498   -0.0854    2.6333 C.ar     1 ZINC000013914293   -0.1200
25     C25     6.1603   -0.7787    2.5091 C.ar     1 ZINC000013914293   -0.0900
26     C26     2.5367   -0.2903   -2.5258 C.3      1 ZINC000013914293    0.1100
27     H27     2.2006   -1.3254   -2.5867 H        1 ZINC000013914293    0.1100
28     O28     3.9478   -0.2340   -2.7442 O.3      1 ZINC000013914293   -0.5300
29     C29     1.8327    0.5291   -3.5766 C.2      1 ZINC000013914293    0.4300
30     O30     2.4684    1.2771   -4.2888 O.2      1 ZINC000013914293   -0.5900
31     N31     0.4967    0.4307   -3.7247 N.am     1 ZINC000013914293   -0.5300
32     O32    -0.1512    1.1182   -4.7795 O.3      1 ZINC000013914293   -0.6900
33     H33     2.0142   -2.3571   -0.2545 H        1 ZINC000013914293    0.0700
34     H34     0.8599   -1.7481    0.9558 H        1 ZINC000013914293    0.0600
35     H35     0.4654   -3.1966   -0.0005 H        1 ZINC000013914293    0.0500
36     H36     0.6321   -1.6655   -2.0744 H        1 ZINC000013914293    0.0800
37     H37    -1.5435   -1.1418    0.0016 H        1 ZINC000013914293    0.0500
38     H38    -1.6817   -0.8365   -1.7465 H        1 ZINC000013914293    0.0600
39     H39    -1.5089   -2.5028   -1.1451 H        1 ZINC000013914293    0.0600
40     H40     0.1525    0.7576   -1.5402 H        1 ZINC000013914293    0.0900
41     H41     0.5046    0.3982    0.1672 H        1 ZINC000013914293    0.0700
42     H42     2.1624    0.4513    1.4829 H        1 ZINC000013914293    0.4100
43     H43     2.1029   -0.5407    5.8715 H        1 ZINC000013914293    0.0900
44     H44     1.0561   -2.6839    5.5290 H        1 ZINC000013914293    0.0700
45     H45     2.6105   -3.5634    5.7058 H        1 ZINC000013914293    0.0800
46     H46     0.9626   -2.1522    7.8758 H        1 ZINC000013914293    0.0700
47     H47     1.6558   -3.8040    7.9071 H        1 ZINC000013914293    0.0700
48     H48     2.9115   -1.6136    9.0481 H        1 ZINC000013914293    0.0700
49     H49     3.7976   -3.0291    8.4140 H        1 ZINC000013914293    0.0700
50     H50     4.7236   -1.7199    6.7855 H        1 ZINC000013914293    0.0800
51     H51     3.8374   -0.3044    7.4196 H        1 ZINC000013914293    0.0700
52     H52     4.0423    1.8305    2.2196 H        1 ZINC000013914293    0.1200
53     H53     6.1602    3.0655    2.4483 H        1 ZINC000013914293    0.1200
54     H54     8.2786    1.8384    2.7126 H        1 ZINC000013914293    0.1200
55     H55     8.2790   -0.6236    2.7491 H        1 ZINC000013914293    0.1200
56     H56     6.1605   -1.8586    2.5251 H        1 ZINC000013914293    0.1300
57     H57     4.3167    0.6589   -2.7042 H        1 ZINC000013914293    0.3700
58     H58    -0.0209   -0.1111   -3.1088 H        1 ZINC000013914293    0.3600
@<TRIPOS>BOND
1     1     2     1
2     1     33    1
3     1     34    1
4     1     35    1
5     2     3     1
6     2     4     1
7     2     36    1
8     3     37    1
9     3     38    1
10    3     39    1
11    4     5     1
12    4     40    1
13    4     41    1
14    5     6     1
15    5     7     1
16    5     26    1
17    7     8     2
18    7     9     am
19    9     10    1
20    9     42    1
21    10    11    1
22    10    12    1
23    10    20    1
24    12    13    2
25    12    14    1
26    14    15    1
27    15    19    1
28    15    16    1
29    15    43    1
30    16    17    1
31    16    44    1
32    16    45    1
33    17    18    1
34    17    46    1
35    17    47    1
36    18    19    1
37    18    48    1
38    18    49    1
39    19    50    1
40    19    51    1
41    20    25    ar
42    20    21    ar
43    21    22    ar
44    21    52    1
45    22    23    ar
46    22    53    1
47    23    24    ar
48    23    54    1
49    24    25    ar
50    24    55    1
51    25    56    1
52    26    27    1
53    26    28    1
54    26    29    1
55    28    57    1
56    29    30    2
57    29    31    am
58    31    32    1
59    31    58    1
@<TRIPOS>SUBSTRUCTURE
1   ZINC000013914293 1     RESIDUE    1   A     ZIN   1
