@<TRIPOS>MOLECULE
ZINC000001535916
54    56    1     0     0
SMALL
USER_CHARGES
@<TRIPOS>ATOM
1      C1     -2.5929   -7.0212   -6.4307 C.3      1 ZINC000001535916   -0.1500
2      C2     -2.2133   -6.4297   -5.0717 C.3      1 ZINC000001535916   -0.1200
3      C3     -0.8892   -5.6732   -5.1967 C.3      1 ZINC000001535916   -0.1200
4      C4     -0.5096   -5.0817   -3.8377 C.3      1 ZINC000001535916    0.0400
5      N5      0.7616   -4.3553   -3.9576 N.3      1 ZINC000001535916   -0.5200
6      C6      1.8200   -5.2273   -4.5102 C.3      1 ZINC000001535916    0.0400
7      C7      3.1234   -4.7534   -3.8202 C.3      1 ZINC000001535916   -0.1300
8      C8      2.6183   -4.4200   -2.3917 C.3      1 ZINC000001535916   -0.1400
9      C9      1.2071   -3.8497   -2.6462 C.3      1 ZINC000001535916    0.0600
10     H10     1.2446   -2.7605   -2.6620 H        1 ZINC000001535916    0.0900
11     C11     0.2496   -4.3215   -1.5501 C.3      1 ZINC000001535916    0.1100
12     N12     0.6638   -3.7565   -0.2634 N.am     1 ZINC000001535916   -0.7300
13     C13     0.0254   -4.1167    0.8676 C.2      1 ZINC000001535916    0.5600
14     O14    -0.8945   -4.9107    0.8200 O.2      1 ZINC000001535916   -0.5100
15     C15     0.4421   -3.5482    2.1621 C.ar     1 ZINC000001535916   -0.1800
16     C16     1.4992   -2.6307    2.2015 C.ar     1 ZINC000001535916   -0.0100
17     C17     1.9106   -2.0815    3.4050 C.ar     1 ZINC000001535916   -0.0400
18     C18     2.9916   -1.1430    3.4419 C.1      1 ZINC000001535916    0.2500
19     N19     3.8492   -0.3986    3.4713 N.1      1 ZINC000001535916   -0.4000
20     C20     1.2256   -2.4724    4.6386 C.ar     1 ZINC000001535916    0.0200
21     C21     1.6054   -1.9441    5.8773 C.ar     1 ZINC000001535916   -0.1200
22     C22     0.9455   -2.3297    7.0072 C.ar     1 ZINC000001535916   -0.0800
23     C23    -0.1024   -3.2437    6.9458 C.ar     1 ZINC000001535916   -0.1200
24     C24    -0.4971   -3.7775    5.7558 C.ar     1 ZINC000001535916   -0.0800
25     C25     0.1602   -3.4014    4.5733 C.ar     1 ZINC000001535916   -0.0900
26     C26    -0.2271   -3.9295    3.3243 C.ar     1 ZINC000001535916    0.2300
27     O27    -1.2481   -4.8142    3.2542 O.3      1 ZINC000001535916   -0.3200
28     C28    -2.5597   -4.2778    3.0693 C.3      1 ZINC000001535916    0.0500
29     H29    -2.7009   -6.2177   -7.1593 H        1 ZINC000001535916    0.0500
30     H30    -1.8121   -7.7071   -6.7593 H        1 ZINC000001535916    0.0500
31     H31    -3.5361   -7.5601   -6.3417 H        1 ZINC000001535916    0.0500
32     H32    -2.9940   -5.7437   -4.7431 H        1 ZINC000001535916    0.0600
33     H33    -2.1053   -7.2331   -4.3431 H        1 ZINC000001535916    0.0600
34     H34    -0.1085   -6.3591   -5.5253 H        1 ZINC000001535916    0.0600
35     H35    -0.9972   -4.8697   -5.9253 H        1 ZINC000001535916    0.0700
36     H36    -1.2904   -4.3957   -3.5091 H        1 ZINC000001535916    0.0800
37     H37    -0.4016   -5.8852   -3.1091 H        1 ZINC000001535916    0.0400
38     H38     1.6186   -6.2702   -4.2655 H        1 ZINC000001535916    0.0500
39     H39     1.8934   -5.0974   -5.5900 H        1 ZINC000001535916    0.0800
40     H40     3.8648   -5.5520   -3.7957 H        1 ZINC000001535916    0.0800
41     H41     3.5239   -3.8658   -4.3098 H        1 ZINC000001535916    0.0800
42     H42     2.5653   -5.3216   -1.7814 H        1 ZINC000001535916    0.0700
43     H43     3.2571   -3.6722   -1.9218 H        1 ZINC000001535916    0.0800
44     H44    -0.7620   -3.9897   -1.7838 H        1 ZINC000001535916    0.0800
45     H45     0.2709   -5.4098   -1.4927 H        1 ZINC000001535916    0.0700
46     H46     1.3975   -3.1232   -0.2255 H        1 ZINC000001535916    0.4000
47     H47     1.9982   -2.3491    1.2861 H        1 ZINC000001535916    0.1400
48     H48     2.4173   -1.2346    5.9386 H        1 ZINC000001535916    0.1300
49     H49     1.2403   -1.9206    7.9622 H        1 ZINC000001535916    0.1300
50     H50    -0.6096   -3.5341    7.8540 H        1 ZINC000001535916    0.1300
51     H51    -1.3117   -4.4858    5.7222 H        1 ZINC000001535916    0.1400
52     H52    -2.5942   -3.7161    2.1358 H        1 ZINC000001535916    0.0500
53     H53    -3.2831   -5.0922    3.0304 H        1 ZINC000001535916    0.1000
54     H54    -2.8021   -3.6159    3.9008 H        1 ZINC000001535916    0.0500
@<TRIPOS>BOND
1     1     2     1
2     1     29    1
3     1     30    1
4     1     31    1
5     2     3     1
6     2     32    1
7     2     33    1
8     3     4     1
9     3     34    1
10    3     35    1
11    4     5     1
12    4     36    1
13    4     37    1
14    5     9     1
15    5     6     1
16    6     7     1
17    6     38    1
18    6     39    1
19    7     8     1
20    7     40    1
21    7     41    1
22    8     9     1
23    8     42    1
24    8     43    1
25    9     10    1
26    9     11    1
27    11    12    1
28    11    44    1
29    11    45    1
30    12    13    am
31    12    46    1
32    13    14    2
33    13    15    1
34    15    26    ar
35    15    16    ar
36    16    17    ar
37    16    47    1
38    17    18    1
39    17    20    ar
40    18    19    3
41    20    25    ar
42    20    21    ar
43    21    22    ar
44    21    48    1
45    22    23    ar
46    22    49    1
47    23    24    ar
48    23    50    1
49    24    25    ar
50    24    51    1
51    25    26    ar
52    26    27    1
53    27    28    1
54    28    52    1
55    28    53    1
56    28    54    1
@<TRIPOS>SUBSTRUCTURE
1   ZINC000001535916 1     RESIDUE    1   A     ZIN   1
