@<TRIPOS>MOLECULE
ZINC000253616884
55    58    1     0     0
SMALL
USER_CHARGES
@<TRIPOS>ATOM
1      C1      0.0387    1.3853   -0.3915 C.3      1 ZINC000253616884   -0.1600
2      C2     -0.0163   -0.1327   -0.2087 C.3      1 ZINC000253616884   -0.0400
3      C3      0.4778   -0.8242   -1.4670 C.3      1 ZINC000253616884   -0.0900
4      C4      1.8563   -0.2306   -1.7857 C.3      1 ZINC000253616884   -0.1300
5      C5      2.8430   -0.3914   -0.6308 C.3      1 ZINC000253616884   -0.0600
6      H6      3.0944   -1.4465   -0.5228 H        1 ZINC000253616884    0.0800
7      C7      2.2838    0.1262    0.6949 C.3      1 ZINC000253616884   -0.0800
8      H8      2.1462    1.2056    0.6323 H        1 ZINC000253616884    0.0800
9      C9      3.2011   -0.1995    1.8691 C.3      1 ZINC000253616884   -0.1100
10     C10     4.6731   -0.1652    1.4775 C.3      1 ZINC000253616884   -0.0900
11     C11     4.8454    0.7386    0.2811 C.2      1 ZINC000253616884   -0.0100
12     C12     5.6105    1.8221    0.3556 C.2      1 ZINC000253616884   -0.2400
13     C13     5.7736    2.7099   -0.7939 C.2      1 ZINC000253616884    0.3900
14     O14     6.4945    3.6824   -0.7127 O.2      1 ZINC000253616884   -0.4600
15     C15     5.0451    2.4155   -2.0814 C.3      1 ZINC000253616884   -0.1700
16     C16     3.7607    1.6439   -1.7599 C.3      1 ZINC000253616884   -0.1100
17     C17     4.1143    0.3910   -0.9888 C.3      1 ZINC000253616884   -0.0400
18     C18     5.0207   -0.4974   -1.8432 C.3      1 ZINC000253616884   -0.1400
19     C19     0.9388   -0.5639    0.9349 C.3      1 ZINC000253616884   -0.0800
20     H20     1.0668   -1.6463    0.9468 H        1 ZINC000253616884    0.0900
21     C21     0.1736   -0.1054    2.1817 C.3      1 ZINC000253616884   -0.1100
22     C22    -1.2921   -0.4999    1.8535 C.3      1 ZINC000253616884   -0.1500
23     C23    -1.3911   -0.5455    0.3089 C.3      1 ZINC000253616884    0.1100
24     O24    -1.6677   -1.8769   -0.1304 O.3      1 ZINC000253616884   -0.5400
25     C25    -2.4626    0.3979   -0.1737 C.2      1 ZINC000253616884    0.3400
26     O26    -2.7775    1.3494    0.4999 O.2      1 ZINC000253616884   -0.4200
27     C27    -3.1413    0.1538   -1.4969 C.3      1 ZINC000253616884    0.0300
28     O28    -4.1117    1.1765   -1.7304 O.3      1 ZINC000253616884   -0.5600
29     H29     1.0596    1.6862   -0.6267 H        1 ZINC000253616884    0.0800
30     H30    -0.6232    1.6773   -1.2068 H        1 ZINC000253616884    0.0500
31     H31    -0.2812    1.8739    0.5289 H        1 ZINC000253616884    0.0700
32     H32     0.5650   -1.8967   -1.2931 H        1 ZINC000253616884    0.0800
33     H33    -0.2096   -0.6339   -2.2912 H        1 ZINC000253616884    0.0600
34     H34     2.2601   -0.7297   -2.6666 H        1 ZINC000253616884    0.0700
35     H35     1.7410    0.8307   -2.0058 H        1 ZINC000253616884    0.0800
36     H36     3.0296    0.5265    2.6638 H        1 ZINC000253616884    0.0700
37     H37     2.9577   -1.1942    2.2427 H        1 ZINC000253616884    0.0700
38     H38     5.2631    0.2168    2.3106 H        1 ZINC000253616884    0.0800
39     H39     5.0066   -1.1717    1.2248 H        1 ZINC000253616884    0.0800
40     H40     6.1202    2.0503    1.2800 H        1 ZINC000253616884    0.1300
41     H41     4.7936    3.3512   -2.5807 H        1 ZINC000253616884    0.1000
42     H42     5.6802    1.8127   -2.7306 H        1 ZINC000253616884    0.1000
43     H43     3.1049    2.2651   -1.1499 H        1 ZINC000253616884    0.0700
44     H44     3.2539    1.3764   -2.6871 H        1 ZINC000253616884    0.0900
45     H45     5.9328    0.0455   -2.0908 H        1 ZINC000253616884    0.0600
46     H46     5.2745   -1.3995   -1.2866 H        1 ZINC000253616884    0.0600
47     H47     4.5004   -0.7712   -2.7611 H        1 ZINC000253616884    0.0700
48     H48     0.5264   -0.6342    3.0671 H        1 ZINC000253616884    0.0700
49     H49     0.2625    0.9729    2.3141 H        1 ZINC000253616884    0.0700
50     H50    -1.5237   -1.4727    2.2872 H        1 ZINC000253616884    0.0800
51     H51    -1.9778    0.2547    2.2389 H        1 ZINC000253616884    0.0800
52     H52    -2.5066   -2.2318    0.1943 H        1 ZINC000253616884    0.3800
53     H53    -2.3985    0.1688   -2.2945 H        1 ZINC000253616884    0.0800
54     H54    -3.6348   -0.8179   -1.4783 H        1 ZINC000253616884    0.0800
55     H55    -4.5886    1.0827   -2.5663 H        1 ZINC000253616884    0.3900
@<TRIPOS>BOND
1     1     2     1
2     1     29    1
3     1     30    1
4     1     31    1
5     2     19    1
6     2     23    1
7     2     3     1
8     3     4     1
9     3     32    1
10    3     33    1
11    4     5     1
12    4     34    1
13    4     35    1
14    5     6     1
15    5     17    1
16    5     7     1
17    7     8     1
18    7     9     1
19    7     19    1
20    9     10    1
21    9     36    1
22    9     37    1
23    10    11    1
24    10    38    1
25    10    39    1
26    11    17    1
27    11    12    2
28    12    13    1
29    12    40    1
30    13    14    2
31    13    15    1
32    15    16    1
33    15    41    1
34    15    42    1
35    16    17    1
36    16    43    1
37    16    44    1
38    17    18    1
39    18    45    1
40    18    46    1
41    18    47    1
42    19    20    1
43    19    21    1
44    21    22    1
45    21    48    1
46    21    49    1
47    22    23    1
48    22    50    1
49    22    51    1
50    23    24    1
51    23    25    1
52    24    52    1
53    25    26    2
54    25    27    1
55    27    28    1
56    27    53    1
57    27    54    1
58    28    55    1
@<TRIPOS>SUBSTRUCTURE
1   ZINC000253616884 1     RESIDUE    1   A     ZIN   1
