@<TRIPOS>MOLECULE
ZINC000012341150
52    55    1     0     0
SMALL
USER_CHARGES
@<TRIPOS>ATOM
1      O1     -0.3198    0.4989   -1.9734 O.co2    1 ZINC000012341150   -0.6800
2      C2     -0.2466    1.5820   -1.4093 C.2      1 ZINC000012341150    0.5300
3      O3      0.7951    2.2225   -1.4475 O.co2    1 ZINC000012341150   -0.6900
4      C4     -1.4132    2.1171   -0.6899 C.ar     1 ZINC000012341150   -0.1700
5      C5     -2.6407    1.4496   -0.7446 C.ar     1 ZINC000012341150   -0.0700
6      C6     -3.7289    1.9563   -0.0687 C.ar     1 ZINC000012341150   -0.1600
7      C7     -3.6144    3.1255    0.6666 C.ar     1 ZINC000012341150   -0.1100
8      C8     -2.4098    3.7963    0.7308 C.ar     1 ZINC000012341150   -0.1500
9      C9     -1.2997    3.2989    0.0613 C.ar     1 ZINC000012341150    0.1700
10     N10    -0.0849    3.9729    0.1249 N.am     1 ZINC000012341150   -0.6300
11     C11    -0.0631    5.3047    0.3305 C.2      1 ZINC000012341150    0.5500
12     O12    -1.1018    5.9077    0.5191 O.2      1 ZINC000012341150   -0.5300
13     C13     1.2225    6.0315    0.3268 C.ar     1 ZINC000012341150   -0.0800
14     C14     2.4157    5.3393    0.1044 C.ar     1 ZINC000012341150   -0.1100
15     C15     3.6155    6.0148    0.1005 C.ar     1 ZINC000012341150   -0.0700
16     C16     3.6432    7.3917    0.3184 C.ar     1 ZINC000012341150   -0.0700
17     C17     4.9357    8.1170    0.3133 C.ar     1 ZINC000012341150    0.0000
18     C18     5.0865    9.2731   -0.4515 C.ar     1 ZINC000012341150   -0.0900
19     C19     6.2921    9.9444   -0.4519 C.ar     1 ZINC000012341150   -0.0700
20     C20     7.3499    9.4725    0.3044 C.ar     1 ZINC000012341150   -0.1900
21     C21     8.6638   10.2105    0.3000 C.3      1 ZINC000012341150    0.5100
22     F22     8.6647   11.1674    1.3207 F        1 ZINC000012341150   -0.1800
23     F23     9.7086    9.3041    0.5097 F        1 ZINC000012341150   -0.1800
24     F24     8.8380   10.8453   -0.9345 F        1 ZINC000012341150   -0.1800
25     C25     7.2063    8.3260    1.0652 C.ar     1 ZINC000012341150   -0.0700
26     C26     6.0038    7.6491    1.0777 C.ar     1 ZINC000012341150   -0.1100
27     C27     2.4500    8.0890    0.5416 C.ar     1 ZINC000012341150    0.1300
28     O28     2.4757    9.4306    0.7536 O.3      1 ZINC000012341150   -0.2500
29     C29     1.2882   10.0823    0.8612 C.ar     1 ZINC000012341150    0.0800
30     C30     0.5429    9.9809    2.0272 C.ar     1 ZINC000012341150   -0.1300
31     C31    -0.6640   10.6444    2.1340 C.ar     1 ZINC000012341150   -0.1000
32     C32    -1.1296   11.4090    1.0801 C.ar     1 ZINC000012341150   -0.1200
33     C33    -0.3888   11.5117   -0.0829 C.ar     1 ZINC000012341150   -0.1100
34     C34     0.8214   10.8549   -0.1927 C.ar     1 ZINC000012341150   -0.1200
35     C35     1.2451    7.4115    0.5398 C.ar     1 ZINC000012341150   -0.1400
36     H36    -2.7356    0.5383   -1.3164 H        1 ZINC000012341150    0.1300
37     H37    -4.6763    1.4398   -0.1122 H        1 ZINC000012341150    0.1100
38     H38    -4.4737    3.5145    1.1926 H        1 ZINC000012341150    0.1200
39     H39    -2.3295    4.7068    1.3061 H        1 ZINC000012341150    0.1400
40     H40     0.7467    3.4844    0.0213 H        1 ZINC000012341150    0.4300
41     H41     2.3969    4.2727   -0.0643 H        1 ZINC000012341150    0.1500
42     H42     4.5364    5.4774   -0.0713 H        1 ZINC000012341150    0.1400
43     H43     4.2614    9.6422   -1.0426 H        1 ZINC000012341150    0.1400
44     H44     6.4102   10.8398   -1.0441 H        1 ZINC000012341150    0.1400
45     H45     8.0357    7.9623    1.6536 H        1 ZINC000012341150    0.1400
46     H46     5.8927    6.7544    1.6722 H        1 ZINC000012341150    0.1400
47     H47     0.9059    9.3835    2.8505 H        1 ZINC000012341150    0.1300
48     H48    -1.2446   10.5656    3.0412 H        1 ZINC000012341150    0.1300
49     H49    -2.0736   11.9267    1.1655 H        1 ZINC000012341150    0.1300
50     H50    -0.7547   12.1095   -0.9046 H        1 ZINC000012341150    0.1300
51     H51     1.3996   10.9354   -1.1013 H        1 ZINC000012341150    0.1300
52     H52     0.3232    7.9473    0.7114 H        1 ZINC000012341150    0.1500
@<TRIPOS>BOND
1     1     2     ar
2     2     3     ar
3     2     4     1
4     4     9     ar
5     4     5     ar
6     5     6     ar
7     5     36    1
8     6     7     ar
9     6     37    1
10    7     8     ar
11    7     38    1
12    8     9     ar
13    8     39    1
14    9     10    1
15    10    11    am
16    10    40    1
17    11    12    2
18    11    13    1
19    13    35    ar
20    13    14    ar
21    14    15    ar
22    14    41    1
23    15    16    ar
24    15    42    1
25    16    17    1
26    16    27    ar
27    17    26    ar
28    17    18    ar
29    18    19    ar
30    18    43    1
31    19    20    ar
32    19    44    1
33    20    21    1
34    20    25    ar
35    21    22    1
36    21    23    1
37    21    24    1
38    25    26    ar
39    25    45    1
40    26    46    1
41    27    28    1
42    27    35    ar
43    28    29    1
44    29    34    ar
45    29    30    ar
46    30    31    ar
47    30    47    1
48    31    32    ar
49    31    48    1
50    32    33    ar
51    32    49    1
52    33    34    ar
53    33    50    1
54    34    51    1
55    35    52    1
@<TRIPOS>SUBSTRUCTURE
1   ZINC000012341150 1     RESIDUE    1   A     ZIN   1
