@<TRIPOS>MOLECULE
ZINC000005162878
  36   38    0    0    0
SMALL
USER_CHARGES
NO_NAME
@<TRIPOS>ATOM
    1 O1        0.0021    -0.0041     0.0020 O.co2  1 <0>      -0.6900
    2 C2       -0.0145     1.2150     0.0087 C.2    1 <0>       0.5000
    3 O3        1.0330     1.8389     0.0021 O.co2  1 <0>      -0.7000
    4 C4       -1.3296     1.9507     0.0190 C.3    1 <0>      -0.1600
    5 C5       -2.4617     0.9559     0.0189 C.ar   1 <0>       0.0200
    6 C6       -2.9824     0.5023    -1.1787 C.ar   1 <0>      -0.1500
    7 C7       -4.0212    -0.4105    -1.1821 C.ar   1 <0>      -0.0800
    8 C8       -4.5411    -0.8713     0.0117 C.ar   1 <0>      -0.2300
    9 C9       -4.0203    -0.4175     1.2151 C.ar   1 <0>       0.1300
   10 O10      -4.5298    -0.8697     2.3910 O.3    1 <0>      -0.3200
   11 C11      -5.6015    -1.8118     2.3140 C.3    1 <0>       0.1100
   12 C12      -6.0332    -2.1963     3.7057 C.ar   1 <0>       0.1700
   13 C13      -5.3866    -1.6238     4.7986 C.ar   1 <0>      -0.1500
   14 C14      -5.7649    -1.9601     6.0675 C.ar   1 <0>      -0.0600
   15 C15      -6.8113    -2.8880     6.2244 C.ar   1 <0>      -0.1100
   16 C16      -7.2549    -3.2815     7.4974 C.ar   1 <0>      -0.0900
   17 C17      -8.2704    -4.1814     7.6075 C.ar   1 <0>      -0.1200
   18 C18      -8.8765    -4.7179     6.4730 C.ar   1 <0>      -0.1000
   19 C19      -8.4720    -4.3590     5.2244 C.ar   1 <0>      -0.0900
   20 C20      -7.4261    -3.4322     5.0694 C.ar   1 <0>       0.1300
   21 N21      -7.0111    -3.0567     3.8557 N.ar   1 <0>      -0.4700
   22 C22      -2.9745     0.4938     1.2158 C.ar   1 <0>      -0.1400
   23 H23      -1.3917     2.5717     0.9126 H      1 <0>       0.0700
   24 H24      -1.4001     2.5813    -0.8673 H      1 <0>       0.0700
   25 H25      -2.5774     0.8617    -2.1132 H      1 <0>       0.1200
   26 H26      -4.4265    -0.7632    -2.1190 H      1 <0>       0.1200
   27 H27      -5.3526    -1.5839     0.0085 H      1 <0>       0.1200
   28 H28      -6.4418    -1.3637     1.7837 H      1 <0>       0.0900
   29 H29      -5.2665    -2.7004     1.7790 H      1 <0>       0.0900
   30 H30      -4.5867    -0.9151     4.6429 H      1 <0>       0.1500
   31 H31      -5.2742    -1.5263     6.9262 H      1 <0>       0.1400
   32 H32      -6.7928    -2.8729     8.3840 H      1 <0>       0.1300
   33 H33      -8.6107    -4.4837     8.5869 H      1 <0>       0.1300
   34 H34      -9.6801    -5.4305     6.5868 H      1 <0>       0.1300
   35 H35      -8.9523    -4.7846     4.3557 H      1 <0>       0.1400
   36 H36      -2.5674     0.8485     2.1511 H      1 <0>       0.1200
@<TRIPOS>BOND
   1    1    2 ar
   2    2    3 ar
   3    2    4 1
   4    4    5 1
   5    4   23 1
   6    4   24 1
   7    5   22 ar
   8    5    6 ar
   9    6    7 ar
  10    6   25 1
  11    7    8 ar
  12    7   26 1
  13    8    9 ar
  14    8   27 1
  15    9   10 1
  16    9   22 ar
  17   10   11 1
  18   11   12 1
  19   11   28 1
  20   11   29 1
  21   12   21 ar
  22   12   13 ar
  23   13   14 ar
  24   13   30 1
  25   14   15 ar
  26   14   31 1
  27   15   20 ar
  28   15   16 ar
  29   16   17 ar
  30   16   32 1
  31   17   18 ar
  32   17   33 1
  33   18   19 ar
  34   18   34 1
  35   19   20 ar
  36   19   35 1
  37   20   21 ar
  38   22   36 1
