@<TRIPOS>MOLECULE
ZINC000043200381
55    56    1     0     0
SMALL
USER_CHARGES
@<TRIPOS>ATOM
1      C1     -3.2858    2.2526    1.0798 C.3      1 ZINC000043200381   -0.1900
2      C2     -2.9589    0.7913    1.3940 C.3      1 ZINC000043200381   -0.0200
3      N3     -2.1202    0.2360    0.3234 N.4      1 ZINC000043200381   -0.3800
4      H4     -2.5811    0.3631   -0.5651 H        1 ZINC000043200381    0.4300
5      C5     -0.8250    0.9291    0.3067 C.3      1 ZINC000043200381   -0.0100
6      C6     -0.0022    0.4434   -0.8883 C.3      1 ZINC000043200381   -0.1900
7      C7     -1.9055   -1.1973    0.5631 C.3      1 ZINC000043200381   -0.0300
8      C8     -3.2427   -1.9353    0.4735 C.3      1 ZINC000043200381    0.1000
9      N9     -3.0129   -3.3778    0.5860 N.am     1 ZINC000043200381   -0.7400
10     C10    -4.0539   -4.2322    0.5336 C.2      1 ZINC000043200381    0.5800
11     O11    -5.1841   -3.8056    0.3927 O.2      1 ZINC000043200381   -0.5000
12     C12    -3.8229   -5.6824    0.6467 C.ar     1 ZINC000043200381   -0.2000
13     C13    -2.5249   -6.1751    0.8145 C.ar     1 ZINC000043200381    0.0100
14     C14    -2.3125   -7.5304    0.9204 C.ar     1 ZINC000043200381   -0.1900
15     I15    -0.3670   -8.2658    1.1724 I        1 ZINC000043200381   -0.0200
16     C16    -3.3871   -8.4153    0.8610 C.ar     1 ZINC000043200381    0.2600
17     N17    -3.1640   -9.7869    0.9690 N.am     1 ZINC000043200381   -0.6700
18     C18    -4.1322  -10.5913    1.4506 C.2      1 ZINC000043200381    0.5700
19     O19    -5.2289  -10.1349    1.7093 O.2      1 ZINC000043200381   -0.5000
20     C20    -3.8610  -12.0273    1.6641 C.ar     1 ZINC000043200381   -0.1600
21     C21    -2.6002  -12.5532    1.3732 C.ar     1 ZINC000043200381   -0.0500
22     C22    -2.3525  -13.8941    1.5743 C.ar     1 ZINC000043200381   -0.1600
23     C23    -3.3524  -14.7206    2.0641 C.ar     1 ZINC000043200381    0.1400
24     F24    -3.1042  -16.0341    2.2593 F        1 ZINC000043200381   -0.1300
25     C25    -4.6058  -14.2037    2.3546 C.ar     1 ZINC000043200381   -0.1600
26     C26    -4.8625  -12.8631    2.1631 C.ar     1 ZINC000043200381   -0.0200
27     C27    -4.6798   -7.9356    0.6951 C.ar     1 ZINC000043200381   -0.2300
28     C28    -4.9051   -6.5742    0.5924 C.ar     1 ZINC000043200381    0.2300
29     O29    -6.1672   -6.1037    0.4307 O.3      1 ZINC000043200381   -0.2700
30     C30    -7.2179   -7.0706    0.3746 C.3      1 ZINC000043200381    0.0200
31     H31    -3.9081    2.6646    1.8742 H        1 ZINC000043200381    0.1100
32     H32    -2.3608    2.8248    1.0091 H        1 ZINC000043200381    0.0800
33     H33    -3.8214    2.3094    0.1322 H        1 ZINC000043200381    0.0800
34     H34    -2.4232    0.7345    2.3416 H        1 ZINC000043200381    0.1300
35     H35    -3.8839    0.2191    1.4647 H        1 ZINC000043200381    0.1300
36     H36    -0.9889    2.0034    0.2224 H        1 ZINC000043200381    0.1400
37     H37    -0.2864    0.7150    1.2298 H        1 ZINC000043200381    0.1300
38     H38     0.9848    0.9054   -0.8616 H        1 ZINC000043200381    0.1100
39     H39     0.1026   -0.6405   -0.8409 H        1 ZINC000043200381    0.0800
40     H40    -0.5076    0.7195   -1.8137 H        1 ZINC000043200381    0.0800
41     H41    -1.2212   -1.5927   -0.1875 H        1 ZINC000043200381    0.1400
42     H42    -1.4778   -1.3396    1.5556 H        1 ZINC000043200381    0.1400
43     H43    -3.8940   -1.6069    1.2834 H        1 ZINC000043200381    0.0900
44     H44    -3.7151   -1.7163   -0.4841 H        1 ZINC000043200381    0.0900
45     H45    -2.1115   -3.7180    0.6984 H        1 ZINC000043200381    0.4000
46     H46    -1.6895   -5.4922    0.8606 H        1 ZINC000043200381    0.1400
47     H47    -2.3118  -10.1626    0.6976 H        1 ZINC000043200381    0.4200
48     H48    -1.8210  -11.9105    0.9910 H        1 ZINC000043200381    0.1300
49     H49    -1.3780  -14.3018    1.3497 H        1 ZINC000043200381    0.1500
50     H50    -5.3810  -14.8519    2.7358 H        1 ZINC000043200381    0.1500
51     H51    -5.8391  -12.4615    2.3900 H        1 ZINC000043200381    0.1500
52     H52    -5.5098   -8.6251    0.6496 H        1 ZINC000043200381    0.1800
53     H53    -7.0469   -7.7447   -0.4647 H        1 ZINC000043200381    0.0600
54     H54    -7.2352   -7.6426    1.3023 H        1 ZINC000043200381    0.0700
55     H55    -8.1731   -6.5621    0.2434 H        1 ZINC000043200381    0.1100
@<TRIPOS>BOND
1     1     2     1
2     1     31    1
3     1     32    1
4     1     33    1
5     2     3     1
6     2     34    1
7     2     35    1
8     3     4     1
9     3     5     1
10    3     7     1
11    5     6     1
12    5     36    1
13    5     37    1
14    6     38    1
15    6     39    1
16    6     40    1
17    7     8     1
18    7     41    1
19    7     42    1
20    8     9     1
21    8     43    1
22    8     44    1
23    9     10    am
24    9     45    1
25    10    11    2
26    10    12    1
27    12    28    ar
28    12    13    ar
29    13    14    ar
30    13    46    1
31    14    15    1
32    14    16    ar
33    16    17    1
34    16    27    ar
35    17    18    am
36    17    47    1
37    18    19    2
38    18    20    1
39    20    26    ar
40    20    21    ar
41    21    22    ar
42    21    48    1
43    22    23    ar
44    22    49    1
45    23    24    1
46    23    25    ar
47    25    26    ar
48    25    50    1
49    26    51    1
50    27    28    ar
51    27    52    1
52    28    29    1
53    29    30    1
54    30    53    1
55    30    54    1
56    30    55    1
@<TRIPOS>SUBSTRUCTURE
1   ZINC000043200381 1     RESIDUE    1   A     ZIN   1
