@<TRIPOS>MOLECULE
ZINC000001481968
   9    9    0    0    0
SMALL
USER_CHARGES
NO_NAME
@<TRIPOS>ATOM
    1 N1        0.0175    -1.1399    -0.0042 N.1    1 <0>      -0.5400
    2 C2        0.0021    -0.0041     0.0020 C.1    1 <0>       0.4100
    3 N3       -0.0163     1.3508     0.0095 N.2    1 <0>      -0.5700
    4 C4        1.1264     2.0314     0.0022 C.2    1 <0>       0.3600
    5 N5        2.3894     1.5347    -0.0185 N.pl3  1 <0>      -0.4800
    6 N6        3.4105     2.4581    -0.0217 N.2    1 <0>      -0.2700
    7 C7        3.1128     3.7130    -0.0053 C.2    1 <0>      -0.0300
    8 S8        1.3418     3.7924     0.0096 S.3    1 <0>      -0.1000
    9 H9        3.8013     4.5450    -0.0054 H      1 <0>       0.2000
@<TRIPOS>BOND
   1    1    2 3
   2    2    3 1
   3    3    4 2
   4    4    8 1
   5    4    5 1
   6    5    6 1
   7    6    7 2
   8    7    8 1
   9    7    9 1
