@<TRIPOS>MOLECULE
ZINC000004474665
  62   63    0    0    0
SMALL
USER_CHARGES
NO_NAME
@<TRIPOS>ATOM
    1 C1        0.9526     1.8786     0.2913 C.3    1 <0>      -0.6400
    2 S2        0.9709     0.0647     0.3013 S.o2   1 <0>       2.5600
    3 O3        1.9904    -0.4189     1.1649 O.2    1 <0>      -1.0200
    4 O4       -0.3529    -0.4469     0.3722 O.2    1 <0>      -1.0200
    5 N5        1.4890    -0.3517    -1.2154 N.pl3  1 <0>      -1.1300
    6 C6        1.6179    -1.6508    -1.5505 C.2    1 <0>       0.5200
    7 O7        1.3544    -2.5148    -0.7412 O.2    1 <0>      -0.6300
    8 C8        2.0894    -2.0297    -2.9308 C.3    1 <0>      -0.1100
    9 C9        2.1477    -3.5540    -3.0492 C.3    1 <0>      -0.1000
   10 C10       2.6264    -3.9387    -4.4506 C.3    1 <0>      -0.1000
   11 C11       2.6838    -5.4401    -4.5672 C.2    1 <0>      -0.1300
   12 C12       2.0781    -6.0436    -5.5597 C.2    1 <0>      -0.1900
   13 C13       1.4694    -5.2337    -6.6753 C.3    1 <0>      -0.0800
   14 C14       2.0115    -5.7271    -8.0182 C.3    1 <0>      -0.1300
   15 H15       3.1013    -5.7118    -8.0080 H      1 <0>       0.1100
   16 C16       1.5161    -7.1319    -8.2918 C.2    1 <0>       0.3800
   17 O17       1.7323    -8.1107    -7.6184 O.2    1 <0>      -0.4300
   18 C18       0.6969    -7.0815    -9.5692 C.3    1 <0>      -0.2200
   19 C19       1.2263    -5.8335   -10.3185 C.3    1 <0>       0.1100
   20 H20       2.1531    -6.0617   -10.8449 H      1 <0>       0.0700
   21 O21       0.2421    -5.3280   -11.2227 O.3    1 <0>      -0.5500
   22 C22       1.4823    -4.8350    -9.1603 C.3    1 <0>      -0.0500
   23 H23       0.5544    -4.3454    -8.8647 H      1 <0>       0.1000
   24 C24       2.5144    -3.8126    -9.5611 C.2    1 <0>      -0.1300
   25 C25       2.2143    -2.5375    -9.5440 C.2    1 <0>      -0.1900
   26 C26       3.2463    -1.5151    -9.9448 C.3    1 <0>       0.1400
   27 H27       3.4964    -0.8947    -9.0842 H      1 <0>       0.1200
   28 O28       4.4219    -2.1817   -10.4092 O.3    1 <0>      -0.5500
   29 C29       2.6843    -0.6343   -11.0624 C.3    1 <0>       0.0300
   30 O30       3.6159     0.4071   -11.3622 O.3    1 <0>      -0.3000
   31 C31       3.2673     1.2841   -12.3400 C.ar   1 <0>       0.1300
   32 C32       2.0511     1.1488   -12.9935 C.ar   1 <0>      -0.2100
   33 C33       1.6988     2.0419   -13.9868 C.ar   1 <0>      -0.0800
   34 C34       2.5575     3.0698   -14.3302 C.ar   1 <0>      -0.1600
   35 C35       3.7704     3.2066   -13.6807 C.ar   1 <0>      -0.0800
   36 C36       4.1246     2.3197   -12.6824 C.ar   1 <0>      -0.1500
   37 H37       1.9566     2.2510     0.0877 H      1 <0>       0.1100
   38 H38       0.2706     2.2308    -0.4827 H      1 <0>       0.1100
   39 H39       0.6195     2.2440     1.2627 H      1 <0>       0.1000
   40 H40       1.3961    -1.6339    -3.6730 H      1 <0>       0.0700
   41 H41       3.0821    -1.6137    -3.1026 H      1 <0>       0.0800
   42 H42       2.8409    -3.9498    -2.3071 H      1 <0>       0.0600
   43 H43       1.1549    -3.9700    -2.8774 H      1 <0>       0.0600
   44 H44       1.9331    -3.5429    -5.1927 H      1 <0>       0.0700
   45 H45       3.6191    -3.5227    -4.6224 H      1 <0>       0.0700
   46 H46       3.2243    -6.0185    -3.8326 H      1 <0>       0.1100
   47 H47       2.0149    -7.1216    -5.5784 H      1 <0>       0.1200
   48 H48       0.3854    -5.3473    -6.6571 H      1 <0>       0.0700
   49 H49       1.7268    -4.1827    -6.5435 H      1 <0>       0.0900
   50 H50       0.8619    -7.9805   -10.1630 H      1 <0>       0.0900
   51 H51      -0.3621    -6.9659    -9.3381 H      1 <0>       0.1100
   52 H52      -0.0127    -5.9522   -11.9160 H      1 <0>       0.3800
   53 H53       3.5014    -4.1311    -9.8624 H      1 <0>       0.1200
   54 H54       1.2272    -2.2191    -9.2427 H      1 <0>       0.1200
   55 H55       4.2735    -2.7528   -11.1753 H      1 <0>       0.3700
   56 H56       2.5174    -1.2399   -11.9532 H      1 <0>       0.0700
   57 H57       1.7404    -0.1954   -10.7393 H      1 <0>       0.0700
   58 H58       1.3803     0.3456   -12.7262 H      1 <0>       0.1300
   59 H59       0.7521     1.9369   -14.4958 H      1 <0>       0.1200
   60 H60       2.2804     3.7668   -15.1072 H      1 <0>       0.1200
   61 H61       4.4395     4.0101   -13.9509 H      1 <0>       0.1300
   62 H62       5.0721     2.4270   -12.1754 H      1 <0>       0.1300
@<TRIPOS>BOND
   1    1    2 1
   2    1   37 1
   3    1   38 1
   4    1   39 1
   5    2    3 2
   6    2    4 2
   7    2    5 1
   8    5    6 1
   9    6    7 2
  10    6    8 1
  11    8    9 1
  12    8   40 1
  13    8   41 1
  14    9   10 1
  15    9   42 1
  16    9   43 1
  17   10   11 1
  18   10   44 1
  19   10   45 1
  20   11   12 2
  21   11   46 1
  22   12   13 1
  23   12   47 1
  24   13   14 1
  25   13   48 1
  26   13   49 1
  27   14   15 1
  28   14   22 1
  29   14   16 1
  30   16   17 2
  31   16   18 1
  32   18   19 1
  33   18   50 1
  34   18   51 1
  35   19   20 1
  36   19   21 1
  37   19   22 1
  38   21   52 1
  39   22   23 1
  40   22   24 1
  41   24   25 2
  42   24   53 1
  43   25   26 1
  44   25   54 1
  45   26   27 1
  46   26   28 1
  47   26   29 1
  48   28   55 1
  49   29   30 1
  50   29   56 1
  51   29   57 1
  52   30   31 1
  53   31   36 ar
  54   31   32 ar
  55   32   33 ar
  56   32   58 1
  57   33   34 ar
  58   33   59 1
  59   34   35 ar
  60   34   60 1
  61   35   36 ar
  62   35   61 1
  63   36   62 1
