@<TRIPOS>MOLECULE
ZINC000003842924
79    84    1     0     0
SMALL
USER_CHARGES
@<TRIPOS>ATOM
1      C1      0.6067    1.1947    1.3477 C.3      1 ZINC000003842924    0.0000
2      O2      0.5090   -0.2308    1.3333 O.3      1 ZINC000003842924   -0.1300
3      N3     -0.7304   -0.7184    0.8525 N.am     1 ZINC000003842924   -0.6100
4      C4     -0.9527   -2.0460    0.7872 C.2      1 ZINC000003842924    0.7200
5      O5     -0.0890   -2.8252    1.1411 O.2      1 ZINC000003842924   -0.5500
6      N6     -2.1325   -2.5101    0.3297 N.am     1 ZINC000003842924   -0.6800
7      C7     -2.3296   -3.8865    0.1729 C.ar     1 ZINC000003842924    0.1700
8      C8     -1.7615   -4.7757    1.0775 C.ar     1 ZINC000003842924   -0.1200
9      C9     -1.9541   -6.1321    0.9264 C.ar     1 ZINC000003842924   -0.0800
10     C10    -2.7208   -6.6125   -0.1369 C.ar     1 ZINC000003842924   -0.0400
11     C11    -2.9298   -8.0665   -0.3019 C.2      1 ZINC000003842924   -0.1600
12     C12    -4.1209   -8.6484   -0.4629 C.2      1 ZINC000003842924    0.0000
13     C13    -5.4181   -7.8823   -0.4971 C.3      1 ZINC000003842924    0.1100
14     N14    -5.6537   -7.3788   -1.8569 N.3      1 ZINC000003842924   -0.5200
15     C15    -5.8766   -8.4855   -2.7968 C.3      1 ZINC000003842924    0.0200
16     C16    -6.7778   -6.4334   -1.8808 C.3      1 ZINC000003842924    0.0900
17     C17    -6.8356   -5.7556   -3.2255 C.ar     1 ZINC000003842924   -0.0800
18     C18    -6.1377   -4.5815   -3.4383 C.ar     1 ZINC000003842924   -0.1000
19     C19    -6.1907   -3.9597   -4.6718 C.ar     1 ZINC000003842924   -0.1200
20     C20    -6.9413   -4.5123   -5.6927 C.ar     1 ZINC000003842924   -0.1200
21     C21    -7.6385   -5.6869   -5.4802 C.ar     1 ZINC000003842924   -0.1200
22     C22    -7.5820   -6.3109   -4.2480 C.ar     1 ZINC000003842924   -0.1100
23     C23    -4.0437  -10.0887   -0.6020 C.2      1 ZINC000003842924   -0.2200
24     C24    -2.7414  -10.5540   -0.5373 C.2      1 ZINC000003842924    0.0400
25     S25    -1.6477   -9.2612   -0.3204 S.3      1 ZINC000003842924    0.2900
26     N26    -2.5091  -11.9170   -0.6553 N.am     1 ZINC000003842924   -0.5000
27     C27    -1.1346  -12.4196   -0.5882 C.3      1 ZINC000003842924    0.1500
28     C28    -0.7841  -12.7344    0.8432 C.ar     1 ZINC000003842924   -0.2000
29     C29    -0.2262  -11.7582    1.6505 C.ar     1 ZINC000003842924    0.1500
30     F30     0.0041  -10.5224    1.1555 F        1 ZINC000003842924   -0.1200
31     C31     0.0955  -12.0486    2.9656 C.ar     1 ZINC000003842924   -0.1700
32     C32    -0.1403  -13.3126    3.4723 C.ar     1 ZINC000003842924   -0.0500
33     C33    -0.6974  -14.2882    2.6673 C.ar     1 ZINC000003842924   -0.1700
34     C34    -1.0252  -13.9984    1.3534 C.ar     1 ZINC000003842924    0.1600
35     F35    -1.5701  -14.9520    0.5668 F        1 ZINC000003842924   -0.1100
36     C36    -3.5177  -12.7829   -0.8289 C.2      1 ZINC000003842924    0.7000
37     O37    -3.2655  -13.9684   -0.9264 O.2      1 ZINC000003842924   -0.5100
38     N38    -4.7978  -12.3829   -0.8982 N.am     1 ZINC000003842924   -0.5100
39     C39    -5.8107  -13.3340   -1.0808 C.ar     1 ZINC000003842924    0.1300
40     C40    -6.5226  -13.3720   -2.2721 C.ar     1 ZINC000003842924   -0.0900
41     C41    -7.5200  -14.3109   -2.4493 C.ar     1 ZINC000003842924   -0.1100
42     C42    -7.8101  -15.2121   -1.4415 C.ar     1 ZINC000003842924   -0.1100
43     C43    -7.1028  -15.1768   -0.2538 C.ar     1 ZINC000003842924   -0.1100
44     C44    -6.1004  -14.2439   -0.0729 C.ar     1 ZINC000003842924   -0.0900
45     C45    -5.1206  -11.0801   -0.7946 C.2      1 ZINC000003842924    0.5800
46     O46    -6.2833  -10.7248   -0.8583 O.2      1 ZINC000003842924   -0.4800
47     C47    -3.2900   -5.7165   -1.0437 C.ar     1 ZINC000003842924   -0.0600
48     C48    -3.0978   -4.3610   -0.8836 C.ar     1 ZINC000003842924   -0.1500
49     H49     1.5850    1.4880    1.7287 H        1 ZINC000003842924    0.1200
50     H50     0.4814    1.5778    0.3350 H        1 ZINC000003842924    0.0600
51     H51    -0.1717    1.6058    1.9905 H        1 ZINC000003842924    0.0600
52     H52    -1.4195   -0.0968    0.5702 H        1 ZINC000003842924    0.4000
53     H53    -2.8449   -1.8899    0.1090 H        1 ZINC000003842924    0.4100
54     H54    -1.1683   -4.4034    1.8996 H        1 ZINC000003842924    0.1400
55     H55    -1.5120   -6.8226    1.6294 H        1 ZINC000003842924    0.1300
56     H56    -6.2368   -8.5407   -0.2066 H        1 ZINC000003842924    0.0700
57     H57    -5.3630   -7.0432    0.1965 H        1 ZINC000003842924    0.0900
58     H58    -6.7472   -9.0604   -2.4813 H        1 ZINC000003842924    0.0400
59     H59    -6.0484   -8.0848   -3.7958 H        1 ZINC000003842924    0.0700
60     H60    -4.9995   -9.1325   -2.8108 H        1 ZINC000003842924    0.0600
61     H61    -7.7091   -6.9717   -1.7049 H        1 ZINC000003842924    0.0500
62     H62    -6.6388   -5.6838   -1.1018 H        1 ZINC000003842924    0.0900
63     H63    -5.5512   -4.1497   -2.6408 H        1 ZINC000003842924    0.1200
64     H64    -5.6460   -3.0421   -4.8379 H        1 ZINC000003842924    0.1200
65     H65    -6.9833   -4.0262   -6.6562 H        1 ZINC000003842924    0.1200
66     H66    -8.2252   -6.1184   -6.2776 H        1 ZINC000003842924    0.1200
67     H67    -8.1268   -7.2286   -4.0819 H        1 ZINC000003842924    0.1200
68     H68    -1.0487  -13.3239   -1.1907 H        1 ZINC000003842924    0.1300
69     H69    -0.4515  -11.6616   -0.9713 H        1 ZINC000003842924    0.1100
70     H70     0.5312  -11.2872    3.5955 H        1 ZINC000003842924    0.1500
71     H71     0.1112  -13.5383    4.4981 H        1 ZINC000003842924    0.1500
72     H72    -0.8809  -15.2757    3.0642 H        1 ZINC000003842924    0.1500
73     H73    -6.2970  -12.6680   -3.0594 H        1 ZINC000003842924    0.1200
74     H74    -8.0742  -14.3410   -3.3758 H        1 ZINC000003842924    0.1300
75     H75    -8.5909  -15.9449   -1.5820 H        1 ZINC000003842924    0.1300
76     H76    -7.3316  -15.8819    0.5315 H        1 ZINC000003842924    0.1300
77     H77    -5.5480  -14.2170    0.8548 H        1 ZINC000003842924    0.1200
78     H78    -3.8836   -6.0848   -1.8674 H        1 ZINC000003842924    0.1600
79     H79    -3.5381   -3.6673   -1.5845 H        1 ZINC000003842924    0.1300
@<TRIPOS>BOND
1     1     2     1
2     1     49    1
3     1     50    1
4     1     51    1
5     2     3     1
6     3     4     am
7     3     52    1
8     4     5     2
9     4     6     am
10    6     7     1
11    6     53    1
12    7     48    ar
13    7     8     ar
14    8     9     ar
15    8     54    1
16    9     10    ar
17    9     55    1
18    10    11    1
19    10    47    ar
20    11    25    1
21    11    12    2
22    12    13    1
23    12    23    1
24    13    14    1
25    13    56    1
26    13    57    1
27    14    15    1
28    14    16    1
29    15    58    1
30    15    59    1
31    15    60    1
32    16    17    1
33    16    61    1
34    16    62    1
35    17    22    ar
36    17    18    ar
37    18    19    ar
38    18    63    1
39    19    20    ar
40    19    64    1
41    20    21    ar
42    20    65    1
43    21    22    ar
44    21    66    1
45    22    67    1
46    23    45    1
47    23    24    2
48    24    25    1
49    24    26    1
50    26    27    1
51    26    36    am
52    27    28    1
53    27    68    1
54    27    69    1
55    28    34    ar
56    28    29    ar
57    29    30    1
58    29    31    ar
59    31    32    ar
60    31    70    1
61    32    33    ar
62    32    71    1
63    33    34    ar
64    33    72    1
65    34    35    1
66    36    37    2
67    36    38    am
68    38    39    1
69    38    45    am
70    39    44    ar
71    39    40    ar
72    40    41    ar
73    40    73    1
74    41    42    ar
75    41    74    1
76    42    43    ar
77    42    75    1
78    43    44    ar
79    43    76    1
80    44    77    1
81    45    46    2
82    47    48    ar
83    47    78    1
84    48    79    1
@<TRIPOS>SUBSTRUCTURE
1   ZINC000003842924 1     RESIDUE    1   A     ZIN   1
