@<TRIPOS>MOLECULE
ZINC000066097792
  44   46    0    0    0
SMALL
USER_CHARGES
NO_NAME
@<TRIPOS>ATOM
    1 C1       -0.0184     1.5028     0.0103 C.3    1 <0>      -0.1200
    2 C2        0.0021    -0.0041     0.0020 C.ar   1 <0>      -0.1400
    3 C3        0.0057    -0.6923    -1.2068 C.ar   1 <0>       0.2400
    4 N4       -0.0090     0.0126    -2.4069 N.pl3  1 <0>      -0.7300
    5 C5       -0.0052    -0.7103    -3.6811 C.3    1 <0>       0.2200
    6 H6       -0.5821    -1.6295    -3.5790 H      1 <0>       0.1200
    7 C7       -0.6220     0.1537    -4.7507 C.2    1 <0>       0.1600
    8 N8       -0.3724     1.4171    -4.9591 N.2    1 <0>      -0.2600
    9 N9       -1.0745     1.8357    -5.9528 N.2    1 <0>      -0.2600
   10 C10      -1.8019     0.8458    -6.4159 C.2    1 <0>       0.2200
   11 C11      -2.7448     0.9079    -7.5515 C.ar   1 <0>       0.0000
   12 C12      -3.4582    -0.2322    -7.9301 C.ar   1 <0>      -0.0800
   13 C13      -4.3362    -0.1749    -8.9880 C.ar   1 <0>      -0.0700
   14 C14      -4.5147     1.0244    -9.6837 C.ar   1 <0>       0.0100
   15 C15      -5.4287     1.0846   -10.7844 C.1    1 <0>       0.2400
   16 N16      -6.1538     1.1323   -11.6576 N.1    1 <0>      -0.3900
   17 C17      -3.8011     2.1649    -9.3044 C.ar   1 <0>      -0.0700
   18 C18      -2.9272     2.1082    -8.2430 C.ar   1 <0>      -0.0600
   19 O19      -1.5241    -0.2394    -5.6656 O.3    1 <0>      -0.2100
   20 C20       1.4347    -1.0523    -4.0691 C.3    1 <0>       0.1000
   21 H21       2.0116    -0.1331    -4.1712 H      1 <0>       0.0800
   22 C22       1.4387    -1.8072    -5.3999 C.3    1 <0>      -0.1500
   23 O23       2.0196    -1.8716    -3.0549 O.3    1 <0>      -0.5500
   24 C24       0.0246    -2.0844    -1.2194 C.ar   1 <0>      -0.1900
   25 C25       0.0392    -2.7853    -0.0353 C.ar   1 <0>      -0.0100
   26 C26       0.0356    -2.0980     1.1826 C.ar   1 <0>      -0.0700
   27 C27       0.0513    -2.8242     2.4167 C.1    1 <0>       0.2500
   28 N28       0.0637    -3.4003     3.3957 N.1    1 <0>      -0.4100
   29 C29       0.0228    -0.6989     1.1922 C.ar   1 <0>       0.0500
   30 Cl30      0.0189     0.1602     2.7007 Cl     1 <0>      -0.0400
   31 H31       1.0042     1.8801     0.0026 H      1 <0>       0.0800
   32 H32      -0.5455     1.8639    -0.8728 H      1 <0>       0.0700
   33 H33      -0.5286     1.8543     0.9071 H      1 <0>       0.0800
   34 H34      -0.0219     0.9825    -2.3995 H      1 <0>       0.4200
   35 H35      -3.3202    -1.1587    -7.3925 H      1 <0>       0.1500
   36 H36      -4.8871    -1.0564    -9.2810 H      1 <0>       0.1500
   37 H37      -3.9385     3.0916    -9.8419 H      1 <0>       0.1500
   38 H38      -2.3761     2.9895    -7.9496 H      1 <0>       0.1500
   39 H39       0.9926    -1.1823    -6.1735 H      1 <0>       0.0600
   40 H40       2.4645    -2.0509    -5.6763 H      1 <0>       0.0800
   41 H41       0.8618    -2.7264    -5.2978 H      1 <0>       0.0700
   42 H42       2.0503    -1.4556    -2.1824 H      1 <0>       0.3800
   43 H43       0.0274    -2.6150    -2.1600 H      1 <0>       0.1500
   44 H44       0.0531    -3.8652    -0.0465 H      1 <0>       0.1500
@<TRIPOS>BOND
   1    1    2 1
   2    1   31 1
   3    1   32 1
   4    1   33 1
   5    2   29 ar
   6    2    3 ar
   7    3    4 1
   8    3   24 ar
   9    4    5 1
  10    4   34 1
  11    5    6 1
  12    5    7 1
  13    5   20 1
  14    7   19 1
  15    7    8 2
  16    8    9 1
  17    9   10 2
  18   10   11 1
  19   10   19 1
  20   11   18 ar
  21   11   12 ar
  22   12   13 ar
  23   12   35 1
  24   13   14 ar
  25   13   36 1
  26   14   15 1
  27   14   17 ar
  28   15   16 3
  29   17   18 ar
  30   17   37 1
  31   18   38 1
  32   20   21 1
  33   20   22 1
  34   20   23 1
  35   22   39 1
  36   22   40 1
  37   22   41 1
  38   23   42 1
  39   24   25 ar
  40   24   43 1
  41   25   26 ar
  42   25   44 1
  43   26   27 1
  44   26   29 ar
  45   27   28 3
  46   29   30 1
