@<TRIPOS>MOLECULE
ZINC000095543889
102   102   1     0     0
SMALL
USER_CHARGES
@<TRIPOS>ATOM
1      C1      1.6337    5.7421   -4.5324 C.3      1 ZINC000095543889   -0.1400
2      C2      1.0924    4.4941   -3.8322 C.3      1 ZINC000095543889   -0.0600
3      C3      1.4121    4.5686   -2.3378 C.3      1 ZINC000095543889   -0.1500
4      C4     -0.4233    4.4174   -4.0263 C.3      1 ZINC000095543889   -0.1500
5      C5      1.7373    3.2670   -4.4233 C.2      1 ZINC000095543889    0.4700
6      O6      2.5468    3.3791   -5.3132 O.2      1 ZINC000095543889   -0.4900
7      O7      1.4124    2.0494   -3.9610 O.3      1 ZINC000095543889   -0.3300
8      C8      2.0729    0.9125   -4.5771 C.3      1 ZINC000095543889    0.2800
9      O9      3.4211    0.8343   -4.1099 O.3      1 ZINC000095543889   -0.7600
10     P10     4.4495   -0.3089   -4.5870 P.3      1 ZINC000095543889    2.4000
11     O11     3.8577   -1.6417   -4.3339 O.2      1 ZINC000095543889   -0.9600
12     O12     4.7441   -0.1428   -6.1611 O.3      1 ZINC000095543889   -0.7400
13     C13     3.7240   -0.2335   -7.1577 C.3      1 ZINC000095543889    0.2900
14     O14     4.2898    0.0749   -8.4589 O.3      1 ZINC000095543889   -0.3300
15     C15     5.1141   -0.8378   -8.9968 C.2      1 ZINC000095543889    0.4600
16     O16     5.2807   -1.9004   -8.4461 O.2      1 ZINC000095543889   -0.4500
17     C17     5.8318   -0.5373  -10.2874 C.3      1 ZINC000095543889   -0.0500
18     C18     6.6023   -1.7779  -10.7434 C.3      1 ZINC000095543889   -0.1300
19     C19     4.8119   -0.1477  -11.3593 C.3      1 ZINC000095543889   -0.1400
20     C20     6.8098    0.6191  -10.0698 C.3      1 ZINC000095543889   -0.1400
21     C21     6.0092   -0.1500   -3.6567 C.3      1 ZINC000095543889   -1.0400
22     C22     6.2659    1.3247   -3.3397 C.3      1 ZINC000095543889   -0.1400
23     O23     5.9143   -0.8897   -2.4378 O.3      1 ZINC000095543889   -0.2500
24     C24     5.5728   -2.2022   -2.5371 C.ar     1 ZINC000095543889   -0.0100
25     C25     5.4566   -2.7960   -3.7852 C.ar     1 ZINC000095543889    0.0100
26     C26     5.1097   -4.1292   -3.8861 C.ar     1 ZINC000095543889   -0.1200
27     C27     4.8780   -4.8742   -2.7394 C.ar     1 ZINC000095543889    0.1100
28     O28     4.5361   -6.1866   -2.8387 O.3      1 ZINC000095543889   -0.4900
29     C29     4.9956   -4.2808   -1.4913 C.ar     1 ZINC000095543889   -0.1500
30     C30     5.3462   -2.9485   -1.3902 C.ar     1 ZINC000095543889   -0.0900
31     P31     7.3840   -0.8043   -4.6591 P.3      1 ZINC000095543889    2.3600
32     O32     7.3694   -0.1649   -5.9938 O.2      1 ZINC000095543889   -0.9600
33     O33     8.7817   -0.4851   -3.9265 O.3      1 ZINC000095543889   -0.7500
34     C34    10.0522   -0.7579   -4.5211 C.3      1 ZINC000095543889    0.2800
35     O35    11.1062   -0.2252   -3.6764 O.3      1 ZINC000095543889   -0.3300
36     C36    11.3476   -0.8695   -2.5238 C.2      1 ZINC000095543889    0.4700
37     O37    10.6415   -1.7902   -2.1870 O.2      1 ZINC000095543889   -0.4900
38     C38    12.4994   -0.4444   -1.6498 C.3      1 ZINC000095543889   -0.0600
39     C39    12.6299   -1.4119   -0.4718 C.3      1 ZINC000095543889   -0.1400
40     C40    13.7925   -0.4590   -2.4675 C.3      1 ZINC000095543889   -0.1500
41     C41    12.2451    0.9694   -1.1230 C.3      1 ZINC000095543889   -0.1500
42     O42     7.2166   -2.3969   -4.8252 O.3      1 ZINC000095543889   -0.7100
43     C43     8.1525   -3.2078   -5.5383 C.3      1 ZINC000095543889    0.2500
44     O44     7.6225   -4.5527   -5.6745 O.3      1 ZINC000095543889   -0.3300
45     C45     6.7592   -4.7686   -6.6794 C.2      1 ZINC000095543889    0.4400
46     O46     6.3484   -3.8393   -7.3332 O.2      1 ZINC000095543889   -0.4400
47     C47     6.3022   -6.1702   -6.9921 C.3      1 ZINC000095543889   -0.0500
48     C48     5.2065   -6.1233   -8.0589 C.3      1 ZINC000095543889   -0.1300
49     C49     7.4857   -6.9884   -7.5123 C.3      1 ZINC000095543889   -0.1400
50     C50     5.7504   -6.8219   -5.7226 C.3      1 ZINC000095543889   -0.1500
51     H51     2.7135    5.7968   -4.3941 H        1 ZINC000095543889    0.0700
52     H52     1.4060    5.6890   -5.5970 H        1 ZINC000095543889    0.0700
53     H53     1.1673    6.6297   -4.1049 H        1 ZINC000095543889    0.0700
54     H54     0.9456    5.4562   -1.9103 H        1 ZINC000095543889    0.0800
55     H55     1.0264    3.6795   -1.8390 H        1 ZINC000095543889    0.0700
56     H56     2.4919    4.6233   -2.1996 H        1 ZINC000095543889    0.0600
57     H57    -0.6510    4.3643   -5.0910 H        1 ZINC000095543889    0.0600
58     H58    -0.8089    3.5282   -3.5275 H        1 ZINC000095543889    0.0700
59     H59    -0.8897    5.3049   -3.5988 H        1 ZINC000095543889    0.0800
60     H60     1.5431   -0.0026   -4.3128 H        1 ZINC000095543889    0.1400
61     H61     2.0702    1.0339   -5.6603 H        1 ZINC000095543889    0.0800
62     H62     3.3161   -1.2442   -7.1691 H        1 ZINC000095543889    0.1000
63     H63     2.9291    0.4766   -6.9296 H        1 ZINC000095543889    0.1000
64     H64     5.8986   -2.5765  -10.9788 H        1 ZINC000095543889    0.0600
65     H65     7.1877   -1.5364  -11.6305 H        1 ZINC000095543889    0.0700
66     H66     7.2693   -2.1049   -9.9458 H        1 ZINC000095543889    0.0700
67     H67     4.2629    0.7361  -11.0344 H        1 ZINC000095543889    0.0700
68     H68     5.3309    0.0697  -12.2928 H        1 ZINC000095543889    0.0700
69     H69     4.1151   -0.9715  -11.5143 H        1 ZINC000095543889    0.0600
70     H70     7.5865    0.3111   -9.3699 H        1 ZINC000095543889    0.0700
71     H71     7.2658    0.8931  -11.0211 H        1 ZINC000095543889    0.0700
72     H72     6.2737    1.4767   -9.6634 H        1 ZINC000095543889    0.0700
73     H73     5.4438    1.7159   -2.7404 H        1 ZINC000095543889    0.1000
74     H74     7.1984    1.4197   -2.7835 H        1 ZINC000095543889    0.1000
75     H75     6.3383    1.8889   -4.2695 H        1 ZINC000095543889    0.1000
76     H76     5.6370   -2.2158   -4.6781 H        1 ZINC000095543889    0.1000
77     H77     5.0185   -4.5914   -4.8579 H        1 ZINC000095543889    0.1300
78     H78     5.2912   -6.7907   -2.8408 H        1 ZINC000095543889    0.3800
79     H79     4.8155   -4.8610   -0.5983 H        1 ZINC000095543889    0.1300
80     H80     5.4377   -2.4864   -0.4184 H        1 ZINC000095543889    0.1300
81     H81    10.1804   -1.8352   -4.6262 H        1 ZINC000095543889    0.0700
82     H82    10.1018   -0.2885   -5.5036 H        1 ZINC000095543889    0.1300
83     H83    12.8110   -2.4190   -0.8471 H        1 ZINC000095543889    0.0700
84     H84    13.4629   -1.1044    0.1603 H        1 ZINC000095543889    0.0700
85     H85    11.7086   -1.4014    0.1107 H        1 ZINC000095543889    0.0700
86     H86    13.6995    0.2303   -3.3067 H        1 ZINC000095543889    0.0700
87     H87    14.6255   -0.1515   -1.8353 H        1 ZINC000095543889    0.0800
88     H88    13.9737   -1.4662   -2.8428 H        1 ZINC000095543889    0.0600
89     H89    11.3718    0.9624   -0.4707 H        1 ZINC000095543889    0.0600
90     H90    13.1152    1.3099   -0.5617 H        1 ZINC000095543889    0.0800
91     H91    12.0671    1.6430   -1.9612 H        1 ZINC000095543889    0.0700
92     H92     8.3223   -2.7823   -6.5274 H        1 ZINC000095543889    0.0900
93     H93     9.0945   -3.2422   -4.9910 H        1 ZINC000095543889    0.1100
94     H94     5.5996   -5.6590   -8.9633 H        1 ZINC000095543889    0.0700
95     H95     4.8759   -7.1370   -8.2851 H        1 ZINC000095543889    0.0700
96     H96     4.3633   -5.5404   -7.6883 H        1 ZINC000095543889    0.0700
97     H97     8.2663   -7.0219   -6.7523 H        1 ZINC000095543889    0.0700
98     H98     7.1552   -8.0022   -7.7385 H        1 ZINC000095543889    0.0700
99     H99     7.8789   -6.5242   -8.4167 H        1 ZINC000095543889    0.0600
100    H100    4.8215   -6.3290   -5.4354 H        1 ZINC000095543889    0.0700
101    H101    5.5581   -7.8782   -5.9105 H        1 ZINC000095543889    0.0700
102    H102    6.4783   -6.7227   -4.9173 H        1 ZINC000095543889    0.0700
@<TRIPOS>BOND
1     1     2     1
2     1     51    1
3     1     52    1
4     1     53    1
5     2     3     1
6     2     4     1
7     2     5     1
8     3     54    1
9     3     55    1
10    3     56    1
11    4     57    1
12    4     58    1
13    4     59    1
14    5     6     2
15    5     7     1
16    7     8     1
17    8     9     1
18    8     60    1
19    8     61    1
20    9     10    1
21    10    11    2
22    10    12    1
23    10    21    1
24    12    13    1
25    13    14    1
26    13    62    1
27    13    63    1
28    14    15    1
29    15    16    2
30    15    17    1
31    17    18    1
32    17    19    1
33    17    20    1
34    18    64    1
35    18    65    1
36    18    66    1
37    19    67    1
38    19    68    1
39    19    69    1
40    20    70    1
41    20    71    1
42    20    72    1
43    21    22    1
44    21    23    1
45    21    31    1
46    22    73    1
47    22    74    1
48    22    75    1
49    23    24    1
50    24    30    ar
51    24    25    ar
52    25    26    ar
53    25    76    1
54    26    27    ar
55    26    77    1
56    27    28    1
57    27    29    ar
58    28    78    1
59    29    30    ar
60    29    79    1
61    30    80    1
62    31    32    2
63    31    33    1
64    31    42    1
65    33    34    1
66    34    35    1
67    34    81    1
68    34    82    1
69    35    36    1
70    36    37    2
71    36    38    1
72    38    39    1
73    38    40    1
74    38    41    1
75    39    83    1
76    39    84    1
77    39    85    1
78    40    86    1
79    40    87    1
80    40    88    1
81    41    89    1
82    41    90    1
83    41    91    1
84    42    43    1
85    43    44    1
86    43    92    1
87    43    93    1
88    44    45    1
89    45    46    2
90    45    47    1
91    47    48    1
92    47    49    1
93    47    50    1
94    48    94    1
95    48    95    1
96    48    96    1
97    49    97    1
98    49    98    1
99    49    99    1
100   50    100   1
101   50    101   1
102   50    102   1
@<TRIPOS>SUBSTRUCTURE
1   ZINC000095543889 1     RESIDUE    1   A     ZIN   1
