@<TRIPOS>MOLECULE
ZINC000003803539
41    42    1     0     0
SMALL
USER_CHARGES
@<TRIPOS>ATOM
1      C1     -0.0187    1.5258    0.0104 C.3      1 ZINC000003803539   -0.1600
2      C2      0.0021   -0.0041    0.0020 C.3      1 ZINC000003803539   -0.1200
3      C3     -1.4333   -0.5336    0.0129 C.3      1 ZINC000003803539   -0.0900
4      C4     -1.4129   -2.0405    0.0046 C.ar     1 ZINC000003803539    0.4800
5      N5     -0.7516   -2.6853   -0.9403 N.ar     1 ZINC000003803539   -0.5500
6      C6     -0.7312   -4.0164   -0.9510 C.ar     1 ZINC000003803539    0.6400
7      N7     -0.0399   -4.6889   -1.9380 N.pl3    1 ZINC000003803539   -0.6100
8      C8      0.6722   -3.9380   -2.9749 C.3      1 ZINC000003803539    0.1100
9      C9      1.3497   -4.9152   -3.9377 C.3      1 ZINC000003803539    0.0600
10     O10     0.3530   -5.6673   -4.6327 O.3      1 ZINC000003803539   -0.5800
11     N11    -1.3769   -4.6963   -0.0100 N.ar     1 ZINC000003803539   -0.5800
12     C12    -2.0407   -4.0444    0.9385 C.ar     1 ZINC000003803539    0.6200
13     N13    -2.7126   -4.7462    1.9184 N.3      1 ZINC000003803539   -0.4600
14     C14    -2.2546   -4.3500    3.2580 C.3      1 ZINC000003803539    0.0100
15     C15    -3.0655   -5.1070    4.3132 C.3      1 ZINC000003803539    0.0600
16     O16    -2.9337   -6.5135    4.0899 O.3      1 ZINC000003803539   -0.3700
17     C17    -3.3712   -6.9343    2.7950 C.3      1 ZINC000003803539    0.0600
18     C18    -2.5635   -6.1958    1.7244 C.3      1 ZINC000003803539    0.0300
19     N19    -2.0520   -2.7135    0.9456 N.ar     1 ZINC000003803539   -0.5900
20     H20    -2.5364   -2.2368    1.6377 H        1 ZINC000003803539    0.4500
21     H21     1.0039    1.9031    0.0027 H        1 ZINC000003803539    0.0700
22     H22    -0.5459    1.8868   -0.8726 H        1 ZINC000003803539    0.0700
23     H23    -0.5289    1.8773    0.9072 H        1 ZINC000003803539    0.0600
24     H24     0.5123   -0.3556   -0.8948 H        1 ZINC000003803539    0.0900
25     H25     0.5293   -0.3651    0.8851 H        1 ZINC000003803539    0.0700
26     H26    -1.9435   -0.1821    0.9097 H        1 ZINC000003803539    0.1100
27     H27    -1.9605   -0.1726   -0.8702 H        1 ZINC000003803539    0.1400
28     H28    -0.0255   -5.6587   -1.9451 H        1 ZINC000003803539    0.4400
29     H29    -0.0354   -3.3177   -3.5250 H        1 ZINC000003803539    0.1000
30     H30     1.4270   -3.3035   -2.5104 H        1 ZINC000003803539    0.1100
31     H31     1.9518   -4.3588   -4.6562 H        1 ZINC000003803539    0.0800
32     H32     1.9906   -5.5940   -3.3751 H        1 ZINC000003803539    0.0600
33     H33     0.7115   -6.3084   -5.2617 H        1 ZINC000003803539    0.4000
34     H34    -1.1977   -4.5928    3.3679 H        1 ZINC000003803539    0.0900
35     H35    -2.3979   -3.2775    3.3893 H        1 ZINC000003803539    0.1000
36     H36    -2.6911   -4.8596    5.3065 H        1 ZINC000003803539    0.1200
37     H37    -4.1152   -4.8234    4.2382 H        1 ZINC000003803539    0.0800
38     H38    -3.2179   -8.0084    2.6902 H        1 ZINC000003803539    0.1200
39     H39    -4.4298   -6.7038    2.6757 H        1 ZINC000003803539    0.0700
40     H40    -2.9322   -6.4706    0.7361 H        1 ZINC000003803539    0.1200
41     H41    -1.5115   -6.4681    1.8098 H        1 ZINC000003803539    0.0900
@<TRIPOS>BOND
1     1     2     1
2     1     21    1
3     1     22    1
4     1     23    1
5     2     3     1
6     2     24    1
7     2     25    1
8     3     4     1
9     3     26    1
10    3     27    1
11    4     19    ar
12    4     5     ar
13    5     6     ar
14    6     7     1
15    6     11    ar
16    7     8     1
17    7     28    1
18    8     9     1
19    8     29    1
20    8     30    1
21    9     10    1
22    9     31    1
23    9     32    1
24    10    33    1
25    11    12    ar
26    12    13    1
27    12    19    ar
28    13    18    1
29    13    14    1
30    14    15    1
31    14    34    1
32    14    35    1
33    15    16    1
34    15    36    1
35    15    37    1
36    16    17    1
37    17    18    1
38    17    38    1
39    17    39    1
40    18    40    1
41    18    41    1
42    19    20    1
@<TRIPOS>SUBSTRUCTURE
1   ZINC000003803539 1     RESIDUE    1   A     ZIN   1
