@<TRIPOS>MOLECULE
ZINC000095575041
  38   40    0    0    0
SMALL
USER_CHARGES
NO_NAME
@<TRIPOS>ATOM
    1 C1       -0.1370     1.4247    -0.1076 C.3    1 <0>       0.1000
    2 N2       -0.0106    -0.0336    -0.0469 N.am   1 <0>      -0.5500
    3 C3       -0.0190    -0.8851    -1.0883 C.2    1 <0>       0.5300
    4 S4       -0.1855    -0.3922    -2.7194 S.2    1 <0>      -0.5200
    5 N5        0.1173    -2.1603    -0.7070 N.am   1 <0>      -0.4900
    6 C6        0.1416    -3.2484    -1.5908 C.ar   1 <0>       0.1300
    7 C7       -0.9020    -4.1637    -1.5952 C.ar   1 <0>      -0.0800
    8 C8       -0.8764    -5.2353    -2.4667 C.ar   1 <0>      -0.0900
    9 C9        0.1882    -5.3972    -3.3351 C.ar   1 <0>      -0.0100
   10 Cl10      0.2173    -6.7448    -4.4290 Cl     1 <0>      -0.0300
   11 C11       1.2308    -4.4852    -3.3333 C.ar   1 <0>      -0.0200
   12 Cl12      2.5651    -4.6907    -4.4247 Cl     1 <0>      -0.0300
   13 C13       1.2067    -3.4088    -2.4668 C.ar   1 <0>      -0.0600
   14 C14       0.2291    -2.2696     0.6316 C.2    1 <0>       0.5300
   15 O15       0.3646    -3.2886     1.2744 O.2    1 <0>      -0.4200
   16 C16       0.1568    -0.8528     1.1659 C.3    1 <0>       0.1600
   17 C17      -1.0514    -0.6870     2.0898 C.3    1 <0>      -0.1500
   18 C18       1.4304    -0.4922     1.8862 C.ar   1 <0>      -0.1200
   19 C19       1.6033    -0.8590     3.2081 C.ar   1 <0>      -0.0700
   20 C20       2.7698    -0.5295     3.8706 C.ar   1 <0>      -0.1400
   21 C21       3.7685     0.1696     3.2084 C.ar   1 <0>       0.1300
   22 O22       4.9173     0.4944     3.8579 O.3    1 <0>      -0.5000
   23 C23       3.5928     0.5360     1.8820 C.ar   1 <0>      -0.1400
   24 C24       2.4264     0.2000     1.2225 C.ar   1 <0>      -0.0800
   25 H25       0.8555     1.8749    -0.1258 H      1 <0>       0.0800
   26 H26      -0.6798     1.7051    -1.0103 H      1 <0>       0.1100
   27 H27      -0.6807     1.7790     0.7681 H      1 <0>       0.0900
   28 H28      -1.7334    -4.0383    -0.9174 H      1 <0>       0.1400
   29 H29      -1.6882    -5.9476    -2.4699 H      1 <0>       0.1600
   30 H30       2.0196    -2.6977    -2.4654 H      1 <0>       0.1500
   31 H31      -0.9515    -1.3586     2.9426 H      1 <0>       0.0900
   32 H32      -1.1004     0.3432     2.4425 H      1 <0>       0.0900
   33 H33      -1.9629    -0.9276     1.5427 H      1 <0>       0.0800
   34 H34       0.8255    -1.4032     3.7231 H      1 <0>       0.1400
   35 H35       2.9041    -0.8156     4.9034 H      1 <0>       0.1400
   36 H36       5.6119    -0.1745     3.7868 H      1 <0>       0.4000
   37 H37       4.3687     1.0805     1.3644 H      1 <0>       0.1400
   38 H38       2.2893     0.4847     0.1897 H      1 <0>       0.1300
@<TRIPOS>BOND
   1    1    2 1
   2    1   25 1
   3    1   26 1
   4    1   27 1
   5    2   16 1
   6    2    3 am
   7    3    4 2
   8    3    5 am
   9    5    6 1
  10    5   14 am
  11    6   13 ar
  12    6    7 ar
  13    7    8 ar
  14    7   28 1
  15    8    9 ar
  16    8   29 1
  17    9   10 1
  18    9   11 ar
  19   11   12 1
  20   11   13 ar
  21   13   30 1
  22   14   15 2
  23   14   16 1
  24   16   17 1
  25   16   18 1
  26   17   31 1
  27   17   32 1
  28   17   33 1
  29   18   24 ar
  30   18   19 ar
  31   19   20 ar
  32   19   34 1
  33   20   21 ar
  34   20   35 1
  35   21   22 1
  36   21   23 ar
  37   22   36 1
  38   23   24 ar
  39   23   37 1
  40   24   38 1
