@<TRIPOS>MOLECULE
ZINC000000538656
46    48    1     0     0
SMALL
USER_CHARGES
@<TRIPOS>ATOM
1      O1      0.0021   -0.0041    0.0020 O.co2    1 ZINC000000538656   -0.6700
2      C2     -0.0145    1.2150    0.0087 C.2      1 ZINC000000538656    0.5100
3      O3      1.0330    1.8389    0.0021 O.co2    1 ZINC000000538656   -0.7000
4      C4     -1.3296    1.9507    0.0190 C.3      1 ZINC000000538656   -0.1400
5      H5     -2.1484    1.2312    0.0189 H        1 ZINC000000538656    0.0800
6      C6     -1.4167    2.8223    1.2734 C.3      1 ZINC000000538656   -0.0800
7      S7     -1.4482    1.7624    2.7452 S.3      1 ZINC000000538656   -0.0800
8      C8     -1.5482    2.9229    4.0673 C.ar     1 ZINC000000538656   -0.0800
9      C9     -1.5877    4.2855    3.7966 C.ar     1 ZINC000000538656   -0.1400
10     C10    -1.6660    5.1920    4.8352 C.ar     1 ZINC000000538656   -0.1000
11     C11    -1.7050    4.7454    6.1436 C.ar     1 ZINC000000538656   -0.1400
12     C12    -1.6654    3.3902    6.4168 C.ar     1 ZINC000000538656   -0.1000
13     C13    -1.5934    2.4777    5.3830 C.ar     1 ZINC000000538656   -0.1100
14     C14    -1.4285    2.8359   -1.2250 C.3      1 ZINC000000538656   -0.1400
15     C15    -1.4664    1.9687   -2.4569 C.2      1 ZINC000000538656    0.3800
16     O16    -1.4189    0.7615   -2.3504 O.2      1 ZINC000000538656   -0.4100
17     C17    -1.5608    2.5859   -3.7875 C.ar     1 ZINC000000538656   -0.1400
18     C18    -1.6098    3.9796   -3.9121 C.ar     1 ZINC000000538656   -0.0700
19     C19    -1.6974    4.5530   -5.1541 C.ar     1 ZINC000000538656   -0.1200
20     C20    -1.7377    3.7486   -6.2941 C.ar     1 ZINC000000538656   -0.0400
21     C21    -1.8319    4.3711   -7.6360 C.ar     1 ZINC000000538656   -0.0400
22     C22    -1.8746    5.7592   -7.7619 C.ar     1 ZINC000000538656   -0.1000
23     C23    -1.9624    6.3334   -9.0132 C.ar     1 ZINC000000538656   -0.1100
24     C24    -2.0081    5.5340  -10.1429 C.ar     1 ZINC000000538656   -0.0400
25     Cl25   -2.1179    6.2630  -11.7145 Cl       1 ZINC000000538656   -0.0700
26     C26    -1.9660    4.1551  -10.0234 C.ar     1 ZINC000000538656   -0.1100
27     C27    -1.8725    3.5708   -8.7772 C.ar     1 ZINC000000538656   -0.1000
28     C28    -1.6890    2.3590   -6.1724 C.ar     1 ZINC000000538656   -0.1200
29     C29    -1.5961    1.7813   -4.9328 C.ar     1 ZINC000000538656   -0.0600
30     H30    -0.5497    3.4814    1.3188 H        1 ZINC000000538656    0.0900
31     H31    -2.3268    3.4212    1.2373 H        1 ZINC000000538656    0.0700
32     H32    -1.5569    4.6349    2.7752 H        1 ZINC000000538656    0.1200
33     H33    -1.6964    6.2510    4.6257 H        1 ZINC000000538656    0.1200
34     H34    -1.7663    5.4567    6.9540 H        1 ZINC000000538656    0.1200
35     H35    -1.6958    3.0451    7.4397 H        1 ZINC000000538656    0.1200
36     H36    -1.5629    1.4195    5.5970 H        1 ZINC000000538656    0.1300
37     H37    -2.3382    3.4343   -1.1738 H        1 ZINC000000538656    0.0800
38     H38    -0.5620    3.4955   -1.2715 H        1 ZINC000000538656    0.1000
39     H39    -1.5790    4.6024   -3.0303 H        1 ZINC000000538656    0.1400
40     H40    -1.7356    5.6280   -5.2507 H        1 ZINC000000538656    0.1300
41     H41    -1.8394    6.3836   -6.8814 H        1 ZINC000000538656    0.1400
42     H42    -1.9958    7.4084   -9.1118 H        1 ZINC000000538656    0.1400
43     H43    -2.0023    3.5361  -10.9076 H        1 ZINC000000538656    0.1400
44     H44    -1.8397    2.4952   -8.6850 H        1 ZINC000000538656    0.1400
45     H45    -1.7207    1.7386   -7.0559 H        1 ZINC000000538656    0.1300
46     H46    -1.5581    0.7060   -4.8391 H        1 ZINC000000538656    0.1400
@<TRIPOS>BOND
1     1     2     ar
2     2     3     ar
3     2     4     1
4     4     5     1
5     4     6     1
6     4     14    1
7     6     7     1
8     6     30    1
9     6     31    1
10    7     8     1
11    8     13    ar
12    8     9     ar
13    9     10    ar
14    9     32    1
15    10    11    ar
16    10    33    1
17    11    12    ar
18    11    34    1
19    12    13    ar
20    12    35    1
21    13    36    1
22    14    15    1
23    14    37    1
24    14    38    1
25    15    16    2
26    15    17    1
27    17    29    ar
28    17    18    ar
29    18    19    ar
30    18    39    1
31    19    20    ar
32    19    40    1
33    20    21    1
34    20    28    ar
35    21    27    ar
36    21    22    ar
37    22    23    ar
38    22    41    1
39    23    24    ar
40    23    42    1
41    24    25    1
42    24    26    ar
43    26    27    ar
44    26    43    1
45    27    44    1
46    28    29    ar
47    28    45    1
48    29    46    1
@<TRIPOS>SUBSTRUCTURE
1   ZINC000000538656 1     RESIDUE    1   A     ZIN   1
