@<TRIPOS>MOLECULE
ZINC000001542005
  45   47    0    0    0
SMALL
USER_CHARGES
NO_NAME
@<TRIPOS>ATOM
    1 N1       -0.0116     1.0048     0.0076 N.4    1 <0>      -0.6100
    2 H2        0.0021    -0.0041     0.0020 H      1 <0>       0.4300
    3 H3        0.9350     1.3541     0.0004 H      1 <0>       0.4200
    4 H4       -0.4996     1.3391    -0.8099 H      1 <0>       0.4200
    5 C5       -0.6992     1.4786     1.2162 C.3    1 <0>      -0.0500
    6 H6       -0.1720     1.1175     2.0992 H      1 <0>       0.1500
    7 C7       -0.7199     3.0084     1.2246 C.3    1 <0>      -0.0700
    8 C8        0.6896     3.5293     1.3378 C.ar   1 <0>      -0.1200
    9 C9        1.2441     3.7547     2.5848 C.ar   1 <0>      -0.0900
   10 C10       2.5375     4.2333     2.6968 C.ar   1 <0>       0.0100
   11 C11       3.1342     4.4761     4.0592 C.3    1 <0>      -0.6900
   12 P12       3.9690     2.9615     4.6357 P.3    1 <0>       2.1900
   13 O13       2.9603     1.7633     4.6000 O.co2  1 <0>      -1.1700
   14 O14       5.1860     2.6477     3.7003 O.co2  1 <0>      -1.1700
   15 O15       4.4783     3.1719     6.1022 O.co2  1 <0>      -1.1800
   16 C16       3.2823     4.4881     1.5637 C.ar   1 <0>      -0.1000
   17 C17       2.7288     4.2624     0.3034 C.ar   1 <0>      -0.0600
   18 C18       3.5233     4.5337    -0.9171 C.ar   1 <0>       0.0000
   19 C19       4.1928     5.7704    -1.0743 C.ar   1 <0>      -0.0400
   20 C20       4.1248     6.7653    -0.0882 C.ar   1 <0>      -0.0900
   21 C21       4.7822     7.9438    -0.2727 C.ar   1 <0>      -0.1300
   22 C22       5.5232     8.1775    -1.4293 C.ar   1 <0>      -0.1100
   23 C23       5.6112     7.2345    -2.4069 C.ar   1 <0>      -0.1200
   24 C24       4.9460     6.0060    -2.2503 C.ar   1 <0>      -0.0500
   25 C25       5.0153     5.0100    -3.2393 C.ar   1 <0>      -0.1200
   26 C26       4.3617     3.8277    -3.0641 C.ar   1 <0>      -0.1100
   27 C27       3.6231     3.5782    -1.9130 C.ar   1 <0>      -0.1200
   28 C28       1.4266     3.7751     0.1971 C.ar   1 <0>      -0.1600
   29 C29      -2.1130     0.9569     1.2269 C.2    1 <0>       0.5000
   30 O30      -2.8004     1.0794     2.2264 O.co2  1 <0>      -0.6400
   31 O31      -2.5694     0.4125     0.2361 O.co2  1 <0>      -0.6900
   32 H32      -1.1680     3.3708     0.2994 H      1 <0>       0.0800
   33 H33      -1.3062     3.3592     2.0739 H      1 <0>       0.1100
   34 H34       0.6650     3.5566     3.4746 H      1 <0>       0.1300
   35 H35       3.8575     5.2893     3.9994 H      1 <0>       0.0600
   36 H36       2.3432     4.7441     4.7597 H      1 <0>       0.0700
   37 H37       4.2916     4.8620     1.6524 H      1 <0>       0.1200
   38 H38       3.5535     6.5980     0.8130 H      1 <0>       0.1300
   39 H39       4.7281     8.7083     0.4883 H      1 <0>       0.1200
   40 H40       6.0348     9.1206    -1.5520 H      1 <0>       0.1200
   41 H41       6.1891     7.4292    -3.2983 H      1 <0>       0.1200
   42 H42       5.5870     5.1821    -4.1393 H      1 <0>       0.1200
   43 H43       4.4216     3.0695    -3.8309 H      1 <0>       0.1200
   44 H44       3.1146     2.6323    -1.7989 H      1 <0>       0.1200
   45 H45       0.9927     3.5984    -0.7760 H      1 <0>       0.1100
@<TRIPOS>BOND
   1    1    2 1
   2    1    3 1
   3    1    4 1
   4    1    5 1
   5    5    6 1
   6    5    7 1
   7    5   29 1
   8    7    8 1
   9    7   32 1
  10    7   33 1
  11    8   28 ar
  12    8    9 ar
  13    9   10 ar
  14    9   34 1
  15   10   11 1
  16   10   16 ar
  17   11   12 1
  18   11   35 1
  19   11   36 1
  20   12   13 ar
  21   12   14 ar
  22   12   15 ar
  23   16   17 ar
  24   16   37 1
  25   17   18 1
  26   17   28 ar
  27   18   27 ar
  28   18   19 ar
  29   19   24 ar
  30   19   20 ar
  31   20   21 ar
  32   20   38 1
  33   21   22 ar
  34   21   39 1
  35   22   23 ar
  36   22   40 1
  37   23   24 ar
  38   23   41 1
  39   24   25 ar
  40   25   26 ar
  41   25   42 1
  42   26   27 ar
  43   26   43 1
  44   27   44 1
  45   28   45 1
  46   29   30 ar
  47   29   31 ar
