@<TRIPOS>MOLECULE
ZINC000002094254
  37   39    0    0    0
SMALL
USER_CHARGES
NO_NAME
@<TRIPOS>ATOM
    1 C1        0.0183     1.3861    -0.3474 C.3    1 <0>      -0.1700
    2 C2       -0.0827    -0.1077    -0.5188 C.2    1 <0>      -0.1200
    3 C3       -1.1852    -0.7322    -0.1862 C.2    1 <0>      -0.1500
    4 C4       -1.2911    -2.2482    -0.0729 C.3    1 <0>       0.0000
    5 H5       -0.3089    -2.7153    -0.1451 H      1 <0>       0.1200
    6 C6       -1.9448    -2.5692     1.2448 C.2    1 <0>      -0.1500
    7 C7       -2.5710    -1.7035     1.9720 C.2    1 <0>      -0.1000
    8 C8       -3.1797    -2.1955     3.2598 C.3    1 <0>      -0.1300
    9 C9       -2.7423    -0.2509     1.6427 C.3    1 <0>      -0.0800
   10 C10      -2.4901    -0.0184     0.1329 C.3    1 <0>       0.1700
   11 N11      -2.3917     1.4159    -0.1686 N.4    1 <0>      -0.6400
   12 H12      -1.7097     1.8418     0.4410 H      1 <0>       0.4400
   13 H13      -2.1077     1.5391    -1.1290 H      1 <0>       0.4400
   14 H14      -3.2901     1.8522    -0.0250 H      1 <0>       0.4200
   15 C15      -3.6107    -0.6731    -0.6416 C.2    1 <0>      -0.2400
   16 C16      -3.4915    -1.8762    -1.2354 C.2    1 <0>       0.2400
   17 C17      -2.1993    -2.6993    -1.2210 C.3    1 <0>      -0.1000
   18 N18      -4.5584    -2.4108    -1.9057 N.am   1 <0>      -0.6100
   19 C19      -5.7274    -1.7599    -2.0055 C.2    1 <0>       0.5200
   20 O20      -6.6576    -2.2625    -2.6153 O.2    1 <0>      -0.5100
   21 C21      -5.8777    -0.4979    -1.4053 C.2    1 <0>      -0.2000
   22 C22      -4.8253     0.0359    -0.7280 C.2    1 <0>      -0.0500
   23 H23       1.0330     1.7105    -0.5781 H      1 <0>       0.1100
   24 H24      -0.6826     1.8774    -1.0223 H      1 <0>       0.0700
   25 H25      -0.2225     1.6508     0.6822 H      1 <0>       0.0800
   26 H26       0.7539    -0.6635    -0.9158 H      1 <0>       0.1500
   27 H27      -1.8872    -3.5860     1.6045 H      1 <0>       0.1300
   28 H28      -2.9803    -3.2612     3.3722 H      1 <0>       0.0700
   29 H29      -2.7427    -1.6537     4.0986 H      1 <0>       0.0700
   30 H30      -4.2565    -2.0275     3.2402 H      1 <0>       0.0700
   31 H31      -3.7583     0.0583     1.8883 H      1 <0>       0.1000
   32 H32      -2.0354     0.3383     2.2269 H      1 <0>       0.1000
   33 H33      -1.6902    -2.5838    -2.1778 H      1 <0>       0.1200
   34 H34      -2.4457    -3.7505    -1.0716 H      1 <0>       0.1100
   35 H35      -4.4668    -3.2831    -2.3198 H      1 <0>       0.4200
   36 H36      -6.8119     0.0388    -1.4808 H      1 <0>       0.1600
   37 H37      -4.9209     1.0029    -0.2567 H      1 <0>       0.1300
@<TRIPOS>BOND
   1    1    2 1
   2    1   23 1
   3    1   24 1
   4    1   25 1
   5    2    3 2
   6    2   26 1
   7    3   10 1
   8    3    4 1
   9    4    5 1
  10    4   17 1
  11    4    6 1
  12    6    7 2
  13    6   27 1
  14    7    8 1
  15    7    9 1
  16    8   28 1
  17    8   29 1
  18    8   30 1
  19    9   10 1
  20    9   31 1
  21    9   32 1
  22   10   11 1
  23   10   15 1
  24   11   12 1
  25   11   13 1
  26   11   14 1
  27   15   22 1
  28   15   16 2
  29   16   17 1
  30   16   18 1
  31   17   33 1
  32   17   34 1
  33   18   19 am
  34   18   35 1
  35   19   20 2
  36   19   21 1
  37   21   22 2
  38   21   36 1
  39   22   37 1
