@<TRIPOS>MOLECULE
ZINC000033970496
62    67    1     0     0
SMALL
USER_CHARGES
@<TRIPOS>ATOM
1      C1     -0.8517    1.8986   -1.0884 C.3      1 ZINC000033970496   -0.0500
2      C2     -0.5608    0.4846   -0.8009 C.1      1 ZINC000033970496   -0.1600
3      C3     -0.3288   -0.6432   -0.5717 C.1      1 ZINC000033970496   -0.2100
4      C4     -0.0391   -2.0514   -0.2854 C.3      1 ZINC000033970496    0.2500
5      O5      0.8321   -2.1709    0.8391 O.3      1 ZINC000033970496   -0.5400
6      C6      0.6008   -2.7182   -1.5311 C.3      1 ZINC000033970496   -0.1500
7      C7     -0.5131   -3.5645   -2.1999 C.3      1 ZINC000033970496   -0.1200
8      C8     -1.8007   -3.1122   -1.4921 C.3      1 ZINC000033970496   -0.0800
9      H9     -2.1260   -2.1549   -1.9375 H        1 ZINC000033970496    0.0800
10     C10    -2.9527   -4.0898   -1.5724 C.3      1 ZINC000033970496   -0.0500
11     H11    -3.6739   -3.7077   -2.3083 H        1 ZINC000033970496    0.0800
12     C12    -2.5333   -5.4761   -2.0012 C.3      1 ZINC000033970496   -0.1100
13     C13    -3.7219   -6.4298   -1.8263 C.3      1 ZINC000033970496   -0.1000
14     C14    -4.0766   -6.4269   -0.3581 C.2      1 ZINC000033970496    0.0200
15     C15    -4.3777   -7.5976    0.2466 C.2      1 ZINC000033970496   -0.2500
16     C16    -4.6380   -7.6523    1.6234 C.2      1 ZINC000033970496    0.3900
17     O17    -5.1190   -8.6498    2.1162 O.2      1 ZINC000033970496   -0.4700
18     C18    -4.2876   -6.4768    2.4928 C.3      1 ZINC000033970496   -0.1700
19     C19    -4.6372   -5.1674    1.7800 C.3      1 ZINC000033970496   -0.0800
20     C20    -4.0885   -5.1506    0.3761 C.2      1 ZINC000033970496   -0.1000
21     C21    -3.6555   -4.0556   -0.2218 C.2      1 ZINC000033970496   -0.0500
22     C22    -3.7543   -2.6345    0.2872 C.3      1 ZINC000033970496   -0.0200
23     H23    -3.9253   -1.9956   -0.6130 H        1 ZINC000033970496    0.0900
24     C24    -4.8717   -2.3348    1.2529 C.ar     1 ZINC000033970496   -0.0600
25     C25    -4.6169   -2.2928    2.6107 C.ar     1 ZINC000033970496   -0.1000
26     C26    -5.6389   -2.0181    3.5008 C.ar     1 ZINC000033970496   -0.1000
27     C27    -6.9215   -1.7848    3.0330 C.ar     1 ZINC000033970496    0.0300
28     O28    -8.0852   -1.4983    3.6864 O.3      1 ZINC000033970496   -0.3100
29     C29    -8.9682   -0.9637    2.6825 C.3      1 ZINC000033970496    0.2100
30     O30    -8.5027   -1.5672    1.4609 O.3      1 ZINC000033970496   -0.3100
31     C31    -7.1783   -1.8272    1.6645 C.ar     1 ZINC000033970496    0.0400
32     C32    -6.1485   -2.0968    0.7783 C.ar     1 ZINC000033970496   -0.0900
33     C33    -2.3685   -2.2353    0.8265 C.3      1 ZINC000033970496   -0.0900
34     C34    -1.3159   -2.8750   -0.0484 C.3      1 ZINC000033970496   -0.0300
35     C35    -0.8675   -4.1951    0.6038 C.3      1 ZINC000033970496   -0.1400
36     H36     0.0827    2.4366   -1.2480 H        1 ZINC000033970496    0.0800
37     H37    -1.4685    1.9678   -1.9845 H        1 ZINC000033970496    0.0800
38     H38    -1.3849    2.3385   -0.2456 H        1 ZINC000033970496    0.0800
39     H39     1.6828   -1.7250    0.7267 H        1 ZINC000033970496    0.3800
40     H40     0.9531   -1.9513   -2.2206 H        1 ZINC000033970496    0.0700
41     H41     1.4285   -3.3576   -1.2270 H        1 ZINC000033970496    0.0800
42     H42    -0.5705   -3.3388   -3.2681 H        1 ZINC000033970496    0.0700
43     H43    -0.3308   -4.6272   -2.0557 H        1 ZINC000033970496    0.0800
44     H44    -2.2415   -5.4658   -3.0512 H        1 ZINC000033970496    0.0800
45     H45    -1.7048   -5.8334   -1.3972 H        1 ZINC000033970496    0.0800
46     H46    -4.5671   -6.0746   -2.4121 H        1 ZINC000033970496    0.0900
47     H47    -3.4379   -7.4323   -2.1380 H        1 ZINC000033970496    0.0900
48     H48    -4.4168   -8.5043   -0.3414 H        1 ZINC000033970496    0.1300
49     H49    -4.8435   -6.5379    3.4291 H        1 ZINC000033970496    0.0900
50     H50    -3.2184   -6.4926    2.7101 H        1 ZINC000033970496    0.1000
51     H51    -5.7160   -5.0362    1.7642 H        1 ZINC000033970496    0.0800
52     H52    -4.1669   -4.3725    2.3703 H        1 ZINC000033970496    0.0900
53     H53    -3.6176   -2.4752    2.9773 H        1 ZINC000033970496    0.1400
54     H54    -5.4369   -1.9859    4.5613 H        1 ZINC000033970496    0.1400
55     H55    -9.9990   -1.2547    2.8849 H        1 ZINC000033970496    0.1300
56     H56    -8.8784    0.1214    2.6321 H        1 ZINC000033970496    0.0900
57     H57    -6.3435   -2.1243   -0.2836 H        1 ZINC000033970496    0.1300
58     H58    -2.2924   -1.1559    0.8596 H        1 ZINC000033970496    0.0800
59     H59    -2.2671   -2.6234    1.8489 H        1 ZINC000033970496    0.0700
60     H60    -1.7217   -4.8669    0.6887 H        1 ZINC000033970496    0.0600
61     H61    -0.0982   -4.6615   -0.0116 H        1 ZINC000033970496    0.0600
62     H62    -0.4652   -3.9917    1.5962 H        1 ZINC000033970496    0.0700
@<TRIPOS>BOND
1     1     2     1
2     1     36    1
3     1     37    1
4     1     38    1
5     2     3     3
6     3     4     1
7     4     34    1
8     4     5     1
9     4     6     1
10    5     39    1
11    6     7     1
12    6     40    1
13    6     41    1
14    7     8     1
15    7     42    1
16    7     43    1
17    8     9     1
18    8     34    1
19    8     10    1
20    10    11    1
21    10    21    1
22    10    12    1
23    12    13    1
24    12    44    1
25    12    45    1
26    13    14    1
27    13    46    1
28    13    47    1
29    14    20    1
30    14    15    2
31    15    16    1
32    15    48    1
33    16    17    2
34    16    18    1
35    18    19    1
36    18    49    1
37    18    50    1
38    19    20    1
39    19    51    1
40    19    52    1
41    20    21    2
42    21    22    1
43    22    23    1
44    22    24    1
45    22    33    1
46    24    32    ar
47    24    25    ar
48    25    26    ar
49    25    53    1
50    26    27    ar
51    26    54    1
52    27    31    ar
53    27    28    1
54    28    29    1
55    29    30    1
56    29    55    1
57    29    56    1
58    30    31    1
59    31    32    ar
60    32    57    1
61    33    34    1
62    33    58    1
63    33    59    1
64    34    35    1
65    35    60    1
66    35    61    1
67    35    62    1
@<TRIPOS>SUBSTRUCTURE
1   ZINC000033970496 1     RESIDUE    1   A     ZIN   1
