@<TRIPOS>MOLECULE
ZINC000003916310
  36   38    0    0    0
SMALL
USER_CHARGES
NO_NAME
@<TRIPOS>ATOM
    1 C1       -0.0184     1.5028     0.0103 C.3    1 <0>      -0.0900
    2 C2        0.0021    -0.0041     0.0020 C.2    1 <0>      -0.1100
    3 C3       -1.1093    -0.7924     0.0030 C.2    1 <0>      -0.0800
    4 C4       -2.5397    -0.3185    -0.0160 C.3    1 <0>       0.1300
    5 O5       -2.5680     1.1101    -0.0351 O.3    1 <0>      -0.5600
    6 C6       -0.6608    -2.1739     0.0248 C.2    1 <0>      -0.1000
    7 C7       -1.3216    -3.3502     0.0823 C.2    1 <0>       0.0500
    8 C8       -2.8255    -3.4106     0.0072 C.3    1 <0>      -0.1400
    9 C9       -0.4867    -4.6076     0.2251 C.3    1 <0>      -0.1100
   10 C10      -0.6563    -5.4034     1.5221 C.3    1 <0>      -0.1500
   11 C11      -1.2429    -5.9394     0.2149 C.3    1 <0>      -0.1500
   12 C12       0.9027    -4.5847    -0.4100 C.3    1 <0>       0.1400
   13 C13       1.7287    -5.7454     0.1480 C.3    1 <0>      -0.1800
   14 O14       0.7740    -4.7388    -1.8248 O.3    1 <0>      -0.5400
   15 C15       1.6150    -3.2828    -0.1166 C.2    1 <0>       0.4000
   16 O16       2.8186    -3.2456     0.0417 O.2    1 <0>      -0.4500
   17 C17       0.8302    -2.1133    -0.0340 C.2    1 <0>      -0.2300
   18 C18       1.1655    -0.7828    -0.0138 C.2    1 <0>      -0.0100
   19 H19       1.0042     1.8801     0.0026 H      1 <0>       0.0500
   20 H20      -0.5455     1.8639    -0.8728 H      1 <0>       0.0800
   21 H21      -0.5286     1.8543     0.9071 H      1 <0>       0.0700
   22 H22      -3.0383    -0.7037    -0.9055 H      1 <0>       0.0600
   23 H23      -3.0541    -0.6803     0.8742 H      1 <0>       0.0600
   24 H24      -3.4590     1.4856    -0.0480 H      1 <0>       0.3800
   25 H25      -3.2251    -2.4015    -0.0934 H      1 <0>       0.0800
   26 H26      -3.1226    -4.0067    -0.8556 H      1 <0>       0.0900
   27 H27      -3.2167    -3.8673     0.9163 H      1 <0>       0.0900
   28 H28       0.2237    -5.9067     1.9225 H      1 <0>       0.1100
   29 H29      -1.3534    -5.0138     2.2640 H      1 <0>       0.1100
   30 H30      -2.3258    -5.9024     0.0967 H      1 <0>       0.1100
   31 H31      -0.7486    -6.7952    -0.2449 H      1 <0>       0.1100
   32 H32       1.2346    -6.6884    -0.0859 H      1 <0>       0.0800
   33 H33       2.7215    -5.7341    -0.3017 H      1 <0>       0.0800
   34 H34       1.8184    -5.6407     1.2293 H      1 <0>       0.0700
   35 H35       1.6167    -4.7341    -2.2992 H      1 <0>       0.3800
   36 H36       2.1736    -0.3952    -0.0097 H      1 <0>       0.1400
@<TRIPOS>BOND
   1    1    2 1
   2    1   19 1
   3    1   20 1
   4    1   21 1
   5    2   18 1
   6    2    3 2
   7    3    4 1
   8    3    6 1
   9    4    5 1
  10    4   22 1
  11    4   23 1
  12    5   24 1
  13    6   17 1
  14    6    7 2
  15    7    8 1
  16    7    9 1
  17    8   25 1
  18    8   26 1
  19    8   27 1
  20    9   11 1
  21    9   10 1
  22    9   12 1
  23   10   11 1
  24   10   28 1
  25   10   29 1
  26   11   30 1
  27   11   31 1
  28   12   13 1
  29   12   14 1
  30   12   15 1
  31   13   32 1
  32   13   33 1
  33   13   34 1
  34   14   35 1
  35   15   16 2
  36   15   17 1
  37   17   18 2
  38   18   36 1
