@<TRIPOS>MOLECULE
ZINC000254071113
104   110   1     0     0
SMALL
USER_CHARGES
@<TRIPOS>ATOM
1      C1      0.0370    1.3219    0.0983 C.3      1 ZINC000254071113    0.0300
2      O2      0.0159   -0.0803    0.3729 O.3      1 ZINC000254071113   -0.3100
3      C3     -1.1963   -0.6930    0.3603 C.ar     1 ZINC000254071113    0.1600
4      C4     -2.3446    0.0527    0.0804 C.ar     1 ZINC000254071113   -0.2100
5      C5     -3.5713   -0.5376    0.0612 C.ar     1 ZINC000254071113   -0.0300
6      C6     -3.6905   -1.9094    0.3244 C.ar     1 ZINC000254071113   -0.1500
7      C7     -2.5333   -2.6751    0.6093 C.ar     1 ZINC000254071113    0.2000
8      C8     -1.2795   -2.0431    0.6177 C.ar     1 ZINC000254071113   -0.1500
9      N9     -2.6431   -3.9846    0.8601 N.ar     1 ZINC000254071113   -0.5000
10     C10    -3.8176   -4.5913    0.8491 C.ar     1 ZINC000254071113    0.2800
11     C11    -3.8843   -6.0427    1.1338 C.2      1 ZINC000254071113    0.1400
12     C12    -2.7891   -6.7740    1.4106 C.2      1 ZINC000254071113   -0.2300
13     S13    -3.2920   -8.4397    1.6877 S.3      1 ZINC000254071113    0.0500
14     C14    -4.9684   -7.9856    1.3983 C.2      1 ZINC000254071113    0.3600
15     N15    -6.0503   -8.8493    1.4459 N.pl3    1 ZINC000254071113   -0.6900
16     C16    -5.8436  -10.2660    1.7567 C.3      1 ZINC000254071113    0.1400
17     C17    -5.8123  -10.4559    3.2745 C.3      1 ZINC000254071113   -0.1700
18     C18    -6.9875  -11.0906    1.1630 C.3      1 ZINC000254071113   -0.1600
19     N19    -5.0345   -6.7171    1.1398 N.2      1 ZINC000254071113   -0.5300
20     C20    -5.0007   -3.8928    0.5748 C.ar     1 ZINC000254071113   -0.2600
21     C21    -4.9524   -2.5496    0.3108 C.ar     1 ZINC000254071113    0.2100
22     O22    -6.0840   -1.8518    0.0430 O.3      1 ZINC000254071113   -0.2900
23     C23    -7.2977   -2.5992   -0.0615 C.3      1 ZINC000254071113    0.0800
24     H24    -7.1096   -3.5541   -0.5503 H        1 ZINC000254071113    0.1000
25     C25    -8.3454   -1.7969   -0.8499 C.3      1 ZINC000254071113   -0.1100
26     C26    -9.3420   -1.2827    0.1940 C.3      1 ZINC000254071113    0.1300
27     H27    -9.1781   -0.2232    0.3835 H        1 ZINC000254071113    0.0900
28     C28   -10.7532   -1.5150   -0.2623 C.2      1 ZINC000254071113    0.5000
29     O29   -11.4274   -2.3239    0.3436 O.2      1 ZINC000254071113   -0.4700
30     N30   -11.2974   -0.8616   -1.3211 N.am     1 ZINC000254071113   -0.6900
31     C31   -12.7463   -1.0807   -1.4952 C.3      1 ZINC000254071113    0.0500
32     C32   -13.1345   -2.4206   -2.0607 C.2      1 ZINC000254071113    0.5300
33     O33   -12.3980   -3.3810   -1.9135 O.co2    1 ZINC000254071113   -0.6700
34     O34   -14.1856   -2.5455   -2.6659 O.co2    1 ZINC000254071113   -0.7000
35     C35   -13.6972    0.0847   -1.7535 C.3      1 ZINC000254071113   -0.1500
36     C36   -13.5904   -0.5014   -0.3510 C.3      1 ZINC000254071113   -0.1100
37     H37   -13.0536    0.0947    0.3963 H        1 ZINC000254071113    0.0900
38     C38   -14.6394   -1.4187    0.2210 C.2      1 ZINC000254071113   -0.0900
39     C39   -14.5293   -1.6804    1.5060 C.2      1 ZINC000254071113   -0.1700
40     C40   -15.4764   -2.5865    2.2360 C.3      1 ZINC000254071113   -0.0800
41     C41   -14.8997   -2.8959    3.6226 C.3      1 ZINC000254071113   -0.1100
42     C42   -13.6931   -3.8256    3.4865 C.3      1 ZINC000254071113   -0.1100
43     C43   -12.4159   -3.0029    3.3080 C.3      1 ZINC000254071113   -0.1300
44     C44   -11.1890   -3.8835    3.5447 C.3      1 ZINC000254071113   -0.1100
45     C45    -9.9178   -3.0321    3.5834 C.3      1 ZINC000254071113    0.1600
46     H46    -9.0503   -3.6792    3.4356 H        1 ZINC000254071113    0.1000
47     N47    -9.8063   -2.3753    4.8900 N.am     1 ZINC000254071113   -0.6900
48     C48    -8.5977   -2.0036    5.3564 C.2      1 ZINC000254071113    0.6500
49     O49    -7.6004   -2.2127    4.6944 O.2      1 ZINC000254071113   -0.5700
50     O50    -8.4954   -1.4007    6.5559 O.3      1 ZINC000254071113   -0.3600
51     C51    -7.1624   -1.0280    6.9948 C.3      1 ZINC000254071113    0.1000
52     C52    -6.8666    0.4493    6.6354 C.3      1 ZINC000254071113   -0.1400
53     C53    -5.7639    0.8343    7.6527 C.3      1 ZINC000254071113   -0.1200
54     C54    -6.1805    0.1154    8.9524 C.3      1 ZINC000254071113   -0.1200
55     C55    -7.0697   -1.0688    8.5341 C.3      1 ZINC000254071113   -0.1200
56     C56    -9.9562   -1.9930    2.4995 C.2      1 ZINC000254071113    0.5500
57     O57   -10.7332   -1.0650    2.5908 O.2      1 ZINC000254071113   -0.5100
58     N58    -9.1323   -2.0433    1.4341 N.am     1 ZINC000254071113   -0.5900
59     C59    -7.9003   -2.8257    1.3315 C.3      1 ZINC000254071113    0.0900
60     H60     1.0639    1.6849    0.1398 H        1 ZINC000254071113    0.1000
61     H61    -0.3728    1.5037   -0.8953 H        1 ZINC000254071113    0.0600
62     H62    -0.5641    1.8466    0.8408 H        1 ZINC000254071113    0.0600
63     H63    -2.2580    1.1099   -0.1226 H        1 ZINC000254071113    0.1300
64     H64    -4.4511    0.0499   -0.1561 H        1 ZINC000254071113    0.1400
65     H65    -0.3864   -2.6110    0.8329 H        1 ZINC000254071113    0.1400
66     H66    -1.7757   -6.4035    1.4553 H        1 ZINC000254071113    0.1900
67     H67    -6.9448   -8.5161    1.2735 H        1 ZINC000254071113    0.4200
68     H68    -4.8971  -10.5973    1.3295 H        1 ZINC000254071113    0.0800
69     H69    -5.6585  -11.5099    3.5057 H        1 ZINC000254071113    0.0700
70     H70    -4.9974   -9.8684    3.6975 H        1 ZINC000254071113    0.0600
71     H71    -6.7588  -10.1246    3.7017 H        1 ZINC000254071113    0.0600
72     H72    -7.0098  -10.9553    0.0816 H        1 ZINC000254071113    0.0700
73     H73    -6.8337  -12.1446    1.3942 H        1 ZINC000254071113    0.0800
74     H74    -7.9340  -10.7593    1.5902 H        1 ZINC000254071113    0.0700
75     H75    -5.9478   -4.4117    0.5720 H        1 ZINC000254071113    0.1500
76     H76    -7.8695   -0.9600   -1.3603 H        1 ZINC000254071113    0.1000
77     H77    -8.8475   -2.4406   -1.5704 H        1 ZINC000254071113    0.1100
78     H78   -10.7772   -0.2990   -1.9160 H        1 ZINC000254071113    0.3900
79     H79   -13.2524    1.0657   -1.9285 H        1 ZINC000254071113    0.0800
80     H80   -14.6041   -0.1233   -2.3217 H        1 ZINC000254071113    0.1100
81     H81   -15.4327   -1.8331   -0.3772 H        1 ZINC000254071113    0.1100
82     H82   -13.7219   -1.2151    2.0561 H        1 ZINC000254071113    0.1000
83     H83   -16.4423   -2.0916    2.3473 H        1 ZINC000254071113    0.0600
84     H84   -15.6048   -3.5130    1.6780 H        1 ZINC000254071113    0.0700
85     H85   -14.5888   -1.9659    4.1006 H        1 ZINC000254071113    0.0600
86     H86   -15.6635   -3.3781    4.2335 H        1 ZINC000254071113    0.0500
87     H87   -13.6064   -4.4366    4.3858 H        1 ZINC000254071113    0.0500
88     H88   -13.8309   -4.4743    2.6215 H        1 ZINC000254071113    0.0600
89     H89   -12.3856   -2.6106    2.2905 H        1 ZINC000254071113    0.1100
90     H90   -12.4187   -2.1748    4.0159 H        1 ZINC000254071113    0.0600
91     H91   -11.2988   -4.4104    4.4942 H        1 ZINC000254071113    0.0800
92     H92   -11.1076   -4.6150    2.7392 H        1 ZINC000254071113    0.0900
93     H93   -10.6024   -2.2085    5.4184 H        1 ZINC000254071113    0.4100
94     H94    -6.4171   -1.6875    6.5501 H        1 ZINC000254071113    0.0900
95     H95    -6.4955    0.5314    5.6138 H        1 ZINC000254071113    0.0700
96     H96    -7.7542    1.0661    6.7758 H        1 ZINC000254071113    0.0800
97     H97    -4.7912    0.4774    7.3142 H        1 ZINC000254071113    0.0700
98     H98    -5.7440    1.9137    7.8033 H        1 ZINC000254071113    0.0700
99     H99    -5.2973   -0.2482    9.4776 H        1 ZINC000254071113    0.0700
100    H100   -6.7420    0.7962    9.5922 H        1 ZINC000254071113    0.0700
101    H101   -8.0627   -0.9626    8.9709 H        1 ZINC000254071113    0.0800
102    H102   -6.6180   -2.0070    8.8563 H        1 ZINC000254071113    0.0700
103    H103   -8.1181   -3.8836    1.4726 H        1 ZINC000254071113    0.0800
104    H104   -7.1929   -2.4933    2.0937 H        1 ZINC000254071113    0.0900
@<TRIPOS>BOND
1     1     2     1
2     1     60    1
3     1     61    1
4     1     62    1
5     2     3     1
6     3     8     ar
7     3     4     ar
8     4     5     ar
9     4     63    1
10    5     6     ar
11    5     64    1
12    6     21    ar
13    6     7     ar
14    7     8     ar
15    7     9     ar
16    8     65    1
17    9     10    ar
18    10    11    1
19    10    20    ar
20    11    19    1
21    11    12    2
22    12    13    1
23    12    66    1
24    13    14    1
25    14    15    1
26    14    19    2
27    15    16    1
28    15    67    1
29    16    17    1
30    16    18    1
31    16    68    1
32    17    69    1
33    17    70    1
34    17    71    1
35    18    72    1
36    18    73    1
37    18    74    1
38    20    21    ar
39    20    75    1
40    21    22    1
41    22    23    1
42    23    24    1
43    23    59    1
44    23    25    1
45    25    26    1
46    25    76    1
47    25    77    1
48    26    27    1
49    26    58    1
50    26    28    1
51    28    29    2
52    28    30    am
53    30    31    1
54    30    78    1
55    31    36    1
56    31    32    1
57    31    35    1
58    32    33    ar
59    32    34    ar
60    35    36    1
61    35    79    1
62    35    80    1
63    36    37    1
64    36    38    1
65    38    39    2
66    38    81    1
67    39    40    1
68    39    82    1
69    40    41    1
70    40    83    1
71    40    84    1
72    41    42    1
73    41    85    1
74    41    86    1
75    42    43    1
76    42    87    1
77    42    88    1
78    43    44    1
79    43    89    1
80    43    90    1
81    44    45    1
82    44    91    1
83    44    92    1
84    45    46    1
85    45    47    1
86    45    56    1
87    47    48    am
88    47    93    1
89    48    49    2
90    48    50    1
91    50    51    1
92    51    55    1
93    51    52    1
94    51    94    1
95    52    53    1
96    52    95    1
97    52    96    1
98    53    54    1
99    53    97    1
100   53    98    1
101   54    55    1
102   54    99    1
103   54    100   1
104   55    101   1
105   55    102   1
106   56    57    2
107   56    58    am
108   58    59    1
109   59    103   1
110   59    104   1
@<TRIPOS>SUBSTRUCTURE
1   ZINC000254071113 1     RESIDUE    1   A     ZIN   1
