@<TRIPOS>MOLECULE
ZINC000000538547
  47   49    0    0    0
SMALL
USER_CHARGES
NO_NAME
@<TRIPOS>ATOM
    1 C1       -0.3402    -1.9181    -0.8591 C.3    1 <0>      -0.1700
    2 C2        0.0837    -0.5412    -0.3441 C.3    1 <0>       0.1000
    3 N3        0.6474    -0.6753     1.0014 N.pl3  1 <0>      -0.4700
    4 C4        1.9883    -0.8251     1.2885 C.ar   1 <0>       0.1100
    5 C5        3.1286    -0.8917     0.4955 C.ar   1 <0>      -0.1100
    6 C6        4.3663    -1.0480     1.0795 C.ar   1 <0>      -0.0900
    7 C7        4.4914    -1.1414     2.4632 C.ar   1 <0>       0.0500
    8 O8        5.7210    -1.2956     3.0231 O.3    1 <0>      -0.2900
    9 C9        6.0486    -2.5272     3.4449 C.2    1 <0>       0.4500
   10 C10       7.4332    -2.7991     3.9739 C.3    1 <0>      -0.1400
   11 O11       5.2332    -3.4178     3.4003 O.2    1 <0>      -0.5000
   12 C12       3.3721    -1.0776     3.2691 C.ar   1 <0>      -0.0600
   13 C13       2.1108    -0.9186     2.6879 C.ar   1 <0>      -0.0900
   14 C14       0.7554    -0.8158     3.2264 C.2    1 <0>      -0.1400
   15 C15       0.3623    -0.8618     4.6804 C.3    1 <0>      -0.0800
   16 C16      -0.0802    -0.6650     2.1687 C.2    1 <0>       0.1100
   17 C17      -1.5493    -0.5224     2.2564 C.ar   1 <0>      -0.0200
   18 C18      -2.1821     0.5747     1.6694 C.ar   1 <0>      -0.0900
   19 C19      -3.5520     0.7039     1.7529 C.ar   1 <0>      -0.1200
   20 C20      -4.3023    -0.2556     2.4198 C.ar   1 <0>       0.0900
   21 O21      -5.6525    -0.1247     2.5000 O.3    1 <0>      -0.3000
   22 C22      -6.3610    -0.4315     1.4014 C.2    1 <0>       0.4600
   23 C23      -7.8498    -0.1994     1.3758 C.3    1 <0>      -0.1400
   24 O24      -5.8048    -0.8936     0.4334 O.2    1 <0>      -0.4900
   25 C25      -3.6766    -1.3486     3.0046 C.ar   1 <0>      -0.1100
   26 C26      -2.3076    -1.4874     2.9213 C.ar   1 <0>      -0.0800
   27 H27      -1.0245    -2.3779    -0.1460 H      1 <0>       0.0600
   28 H28      -0.8389    -1.8082    -1.8221 H      1 <0>       0.0800
   29 H29       0.5407    -2.5493    -0.9761 H      1 <0>       0.0600
   30 H30       0.8343    -0.1187    -1.0121 H      1 <0>       0.0900
   31 H31      -0.7844     0.1172    -0.3104 H      1 <0>       0.0900
   32 H32       3.0437    -0.8211    -0.5789 H      1 <0>       0.1300
   33 H33       5.2482    -1.0991     0.4582 H      1 <0>       0.1300
   34 H34       8.0227    -1.8830     3.9369 H      1 <0>       0.0900
   35 H35       7.3665    -3.1469     5.0048 H      1 <0>       0.1100
   36 H36       7.9120    -3.5641     3.3626 H      1 <0>       0.1100
   37 H37       3.4705    -1.1501     4.3421 H      1 <0>       0.1300
   38 H38       0.3691     0.1479     5.0908 H      1 <0>       0.0700
   39 H39      -0.6380    -1.2850     4.7731 H      1 <0>       0.0700
   40 H40       1.0713    -1.4818     5.2291 H      1 <0>       0.0700
   41 H41      -1.5992     1.3215     1.1508 H      1 <0>       0.1300
   42 H42      -4.0423     1.5525     1.2993 H      1 <0>       0.1300
   43 H43      -8.1688     0.2190     2.3304 H      1 <0>       0.1000
   44 H44      -8.0952     0.4968     0.5738 H      1 <0>       0.1100
   45 H45      -8.3622    -1.1461     1.2046 H      1 <0>       0.1100
   46 H46      -4.2636    -2.0929     3.5221 H      1 <0>       0.1400
   47 H47      -1.8216    -2.3378     3.3764 H      1 <0>       0.1400
@<TRIPOS>BOND
   1    1    2 1
   2    1   27 1
   3    1   28 1
   4    1   29 1
   5    2    3 1
   6    2   30 1
   7    2   31 1
   8    3   16 1
   9    3    4 1
  10    4   13 ar
  11    4    5 ar
  12    5    6 ar
  13    5   32 1
  14    6    7 ar
  15    6   33 1
  16    7    8 1
  17    7   12 ar
  18    8    9 1
  19    9   10 1
  20    9   11 2
  21   10   34 1
  22   10   35 1
  23   10   36 1
  24   12   13 ar
  25   12   37 1
  26   13   14 1
  27   14   15 1
  28   14   16 2
  29   15   38 1
  30   15   39 1
  31   15   40 1
  32   16   17 1
  33   17   26 ar
  34   17   18 ar
  35   18   19 ar
  36   18   41 1
  37   19   20 ar
  38   19   42 1
  39   20   21 1
  40   20   25 ar
  41   21   22 1
  42   22   23 1
  43   22   24 2
  44   23   43 1
  45   23   44 1
  46   23   45 1
  47   25   26 ar
  48   25   46 1
  49   26   47 1
