@<TRIPOS>MOLECULE
ZINC000000005467
  13   13    0    0    0
SMALL
USER_CHARGES
NO_NAME
@<TRIPOS>ATOM
    1 C1        0.0180    -1.1779    -0.0044 C.1    1 <0>      -0.2500
    2 C2        0.0021    -0.0041     0.0020 C.1    1 <0>      -0.0700
    3 C3       -0.0173     1.4278     0.0099 C.2    1 <0>      -0.2200
    4 C4       -1.1990     2.1122     0.0306 C.2    1 <0>       0.1700
    5 N5       -1.1840     3.4772     0.0381 N.am   1 <0>      -0.6600
    6 C6       -0.0304     4.1642     0.0251 C.2    1 <0>       0.6400
    7 O7       -0.0668     5.3795     0.0325 O.2    1 <0>      -0.6100
    8 N8        1.1639     3.5469     0.0046 N.pl3  1 <0>      -0.6900
    9 C9        1.2344     2.1991     0.0021 C.2    1 <0>       0.5300
   10 O10       2.3121     1.6337    -0.0165 O.2    1 <0>      -0.5800
   11 H11       0.0322    -2.2278    -0.0102 H      1 <0>       0.2200
   12 H12      -2.1375     1.5780     0.0406 H      1 <0>       0.1500
   13 H13      -2.0246     3.9611     0.0528 H      1 <0>       0.4000
@<TRIPOS>BOND
   1    1    2 3
   2    1   11 1
   3    2    3 1
   4    3    9 1
   5    3    4 2
   6    4    5 1
   7    4   12 1
   8    5    6 am
   9    5   13 1
  10    6    7 2
  11    6    8 1
  12    8    9 1
  13    9   10 2
