@<TRIPOS>MOLECULE
ZINC000003950115
67    71    1     0     0
SMALL
USER_CHARGES
@<TRIPOS>ATOM
1      N1     -1.9713    3.1437   -1.6508 N.am     1 ZINC000003950115   -0.8700
2      C2     -1.5531    1.8633   -1.6043 C.2      1 ZINC000003950115    0.7100
3      O3     -0.4053    1.5876   -1.8956 O.2      1 ZINC000003950115   -0.5900
4      N4     -2.4074    0.8885   -1.2348 N.am     1 ZINC000003950115   -0.6300
5      C5     -3.8261    1.1870   -0.9964 C.3      1 ZINC000003950115    0.1100
6      C6     -4.6788    0.2407   -1.8473 C.3      1 ZINC000003950115   -0.1300
7      C7     -4.2820   -1.2065   -1.5467 C.3      1 ZINC000003950115   -0.0700
8      C8     -5.1554   -2.1559   -2.3692 C.3      1 ZINC000003950115   -0.1400
9      C9     -4.8501   -3.5804   -1.9835 C.2      1 ZINC000003950115    0.5200
10     O10    -4.0161   -3.8133   -1.1344 O.2      1 ZINC000003950115   -0.5400
11     N11    -5.5040   -4.5955   -2.5822 N.am     1 ZINC000003950115   -0.6100
12     C12    -6.5126   -4.3295   -3.6169 C.3      1 ZINC000003950115    0.1100
13     C13    -6.1576   -5.1356   -4.8704 C.3      1 ZINC000003950115   -0.1500
14     C14    -6.0136   -6.6130   -4.4981 C.3      1 ZINC000003950115   -0.0800
15     C15    -5.6931   -7.4262   -5.7538 C.3      1 ZINC000003950115   -0.0200
16     H16    -6.2641   -6.9599   -6.5567 H        1 ZINC000003950115    0.1100
17     C17    -4.2675   -7.1763   -6.0583 C.ar     1 ZINC000003950115    0.1700
18     N18    -3.9835   -5.8570   -6.0921 N.ar     1 ZINC000003950115   -0.4700
19     C19    -2.7814   -5.3784   -6.2777 C.ar     1 ZINC000003950115    0.1500
20     C20    -1.7202   -6.2508   -6.4439 C.ar     1 ZINC000003950115   -0.1500
21     Br21    0.0428   -5.6048   -6.6681 Br       1 ZINC000003950115   -0.0300
22     C22    -1.9834   -7.6018   -6.4419 C.ar     1 ZINC000003950115   -0.0500
23     C23    -3.3107   -8.0708   -6.2755 C.ar     1 ZINC000003950115   -0.1200
24     C24    -3.3453   -9.5706   -6.4702 C.3      1 ZINC000003950115   -0.0700
25     C25    -4.1964  -10.3084   -5.4840 C.3      1 ZINC000003950115   -0.0700
26     C26    -5.6635   -9.9378   -5.5110 C.ar     1 ZINC000003950115   -0.0500
27     C27    -6.4455  -11.1167   -5.4804 C.ar     1 ZINC000003950115   -0.1000
28     C28    -7.8156  -11.0811   -5.4344 C.ar     1 ZINC000003950115   -0.0300
29     Cl29   -8.7339  -12.5542   -5.4148 Cl       1 ZINC000003950115   -0.0500
30     C30    -8.4563   -9.8547   -5.4033 C.ar     1 ZINC000003950115   -0.0700
31     C31    -7.6953   -8.7130   -5.4546 C.ar     1 ZINC000003950115   -0.0900
32     Br32   -8.5542   -7.0291   -5.4024 Br       1 ZINC000003950115   -0.0200
33     C33    -6.2864   -8.7656   -5.5448 C.ar     1 ZINC000003950115   -0.0100
34     C34    -4.8812   -6.7767   -3.4817 C.3      1 ZINC000003950115   -0.1300
35     C35    -5.2173   -5.9895   -2.2169 C.3      1 ZINC000003950115    0.1200
36     C36    -2.8115   -1.4205   -1.9127 C.3      1 ZINC000003950115   -0.1300
37     C37    -1.9388   -0.4941   -1.0685 C.3      1 ZINC000003950115    0.1300
38     H38    -1.3396    3.8533   -1.8467 H        1 ZINC000003950115    0.4100
39     H39    -2.9046    3.3552   -1.4925 H        1 ZINC000003950115    0.4000
40     H40    -4.0583    1.0396    0.0583 H        1 ZINC000003950115    0.0700
41     H41    -4.0345    2.2193   -1.2777 H        1 ZINC000003950115    0.0800
42     H42    -5.7323    0.3861   -1.6082 H        1 ZINC000003950115    0.0800
43     H43    -4.5125    0.4516   -2.9036 H        1 ZINC000003950115    0.0700
44     H44    -4.4250   -1.4093   -0.4853 H        1 ZINC000003950115    0.0800
45     H45    -6.2065   -1.9438   -2.1737 H        1 ZINC000003950115    0.0900
46     H46    -4.9473   -2.0141   -3.4297 H        1 ZINC000003950115    0.0900
47     H47    -7.4956   -4.6308   -3.2550 H        1 ZINC000003950115    0.0600
48     H48    -6.5191   -3.2661   -3.8560 H        1 ZINC000003950115    0.0800
49     H49    -6.9487   -5.0226   -5.6117 H        1 ZINC000003950115    0.0700
50     H50    -5.2169   -4.7710   -5.2830 H        1 ZINC000003950115    0.1200
51     H51    -6.9467   -6.9703   -4.0624 H        1 ZINC000003950115    0.0900
52     H52    -2.6178   -4.3111   -6.3014 H        1 ZINC000003950115    0.1700
53     H53    -1.1754   -8.3073   -6.5675 H        1 ZINC000003950115    0.1400
54     H54    -3.7187   -9.7799   -7.4726 H        1 ZINC000003950115    0.0800
55     H55    -2.3264   -9.9513   -6.3993 H        1 ZINC000003950115    0.0900
56     H56    -4.1071  -11.3763   -5.6827 H        1 ZINC000003950115    0.0900
57     H57    -3.8106  -10.1148   -4.4831 H        1 ZINC000003950115    0.0800
58     H58    -5.9475  -12.0750   -5.4942 H        1 ZINC000003950115    0.1400
59     H59    -9.5329   -9.7969   -5.3403 H        1 ZINC000003950115    0.1500
60     H60    -4.7638   -7.8318   -3.2347 H        1 ZINC000003950115    0.0700
61     H61    -3.9525   -6.3967   -3.9075 H        1 ZINC000003950115    0.0700
62     H62    -4.3712   -6.0221   -1.5305 H        1 ZINC000003950115    0.0900
63     H63    -6.0954   -6.4237   -1.7388 H        1 ZINC000003950115    0.0600
64     H64    -2.5359   -2.4574   -1.7203 H        1 ZINC000003950115    0.0900
65     H65    -2.6627   -1.1939   -2.9685 H        1 ZINC000003950115    0.0600
66     H66    -0.9016   -0.5715   -1.3947 H        1 ZINC000003950115    0.0900
67     H67    -2.0158   -0.7761   -0.0185 H        1 ZINC000003950115    0.0700
@<TRIPOS>BOND
1     1     2     am
2     1     38    1
3     1     39    1
4     2     3     2
5     2     4     am
6     4     37    1
7     4     5     1
8     5     6     1
9     5     40    1
10    5     41    1
11    6     7     1
12    6     42    1
13    6     43    1
14    7     8     1
15    7     36    1
16    7     44    1
17    8     9     1
18    8     45    1
19    8     46    1
20    9     10    2
21    9     11    am
22    11    35    1
23    11    12    1
24    12    13    1
25    12    47    1
26    12    48    1
27    13    14    1
28    13    49    1
29    13    50    1
30    14    15    1
31    14    34    1
32    14    51    1
33    15    16    1
34    15    33    1
35    15    17    1
36    17    23    ar
37    17    18    ar
38    18    19    ar
39    19    20    ar
40    19    52    1
41    20    21    1
42    20    22    ar
43    22    23    ar
44    22    53    1
45    23    24    1
46    24    25    1
47    24    54    1
48    24    55    1
49    25    26    1
50    25    56    1
51    25    57    1
52    26    33    ar
53    26    27    ar
54    27    28    ar
55    27    58    1
56    28    29    1
57    28    30    ar
58    30    31    ar
59    30    59    1
60    31    32    1
61    31    33    ar
62    34    35    1
63    34    60    1
64    34    61    1
65    35    62    1
66    35    63    1
67    36    37    1
68    36    64    1
69    36    65    1
70    37    66    1
71    37    67    1
@<TRIPOS>SUBSTRUCTURE
1   ZINC000003950115 1     RESIDUE    1   A     ZIN   1
