@<TRIPOS>MOLECULE
ZINC000001542006
  45   47    0    0    0
SMALL
USER_CHARGES
NO_NAME
@<TRIPOS>ATOM
    1 N1       -0.0116     1.0048     0.0076 N.4    1 <0>      -0.6100
    2 H2        0.0021    -0.0041     0.0020 H      1 <0>       0.4200
    3 H3        0.9350     1.3541     0.0004 H      1 <0>       0.4200
    4 H4       -0.4996     1.3391    -0.8099 H      1 <0>       0.4300
    5 C5       -0.6992     1.4786     1.2162 C.3    1 <0>      -0.0500
    6 H6       -1.7218     1.1013     1.2239 H      1 <0>       0.1500
    7 C7        0.0408     0.9717     2.4557 C.3    1 <0>      -0.0700
    8 C8       -0.0446    -0.5318     2.5119 C.ar   1 <0>      -0.1100
    9 C9       -1.0985    -1.1392     3.1700 C.ar   1 <0>      -0.0900
   10 C10      -1.1832    -2.5189     3.2256 C.ar   1 <0>       0.0100
   11 C11      -2.3344    -3.1734     3.9450 C.3    1 <0>      -0.6900
   12 P12      -3.7083    -3.4402     2.7768 P.3    1 <0>       2.1900
   13 O13      -4.0879    -2.0803     2.0978 O.co2  1 <0>      -1.1700
   14 O14      -3.2680    -4.4672     1.6787 O.co2  1 <0>      -1.1700
   15 O15      -4.9495    -4.0023     3.5500 O.co2  1 <0>      -1.1800
   16 C16      -0.2158    -3.2970     2.6232 C.ar   1 <0>      -0.1000
   17 C17       0.8483    -2.6903     1.9581 C.ar   1 <0>      -0.0500
   18 C18       1.8911    -3.5215     1.3081 C.ar   1 <0>      -0.0200
   19 C19       2.9624    -2.9014     0.6455 C.ar   1 <0>      -0.1000
   20 C20       3.9303    -3.6397     0.0429 C.ar   1 <0>      -0.1100
   21 C21       3.8671    -5.0440     0.0778 C.ar   1 <0>      -0.0600
   22 C22       4.8560    -5.8303    -0.5374 C.ar   1 <0>      -0.1100
   23 C23       4.7672    -7.1875    -0.4861 C.ar   1 <0>      -0.1200
   24 C24       3.7079    -7.8137     0.1683 C.ar   1 <0>      -0.1300
   25 C25       2.7314    -7.0857     0.7752 C.ar   1 <0>      -0.1000
   26 C26       2.7895    -5.6809     0.7441 C.ar   1 <0>      -0.0400
   27 C27       1.8027    -4.8998     1.3649 C.ar   1 <0>      -0.1000
   28 C28       0.9262    -1.3002     1.9016 C.ar   1 <0>      -0.1700
   29 C29      -0.7196     2.9854     1.2245 C.2    1 <0>       0.5000
   30 O30      -1.3988     3.5814     2.0431 O.co2  1 <0>      -0.6400
   31 O31      -0.0570     3.6085     0.4126 O.co2  1 <0>      -0.6900
   32 H32       1.0866     1.2746     2.4037 H      1 <0>       0.0800
   33 H33      -0.4161     1.3953     3.3501 H      1 <0>       0.1100
   34 H34      -1.8580    -0.5341     3.6427 H      1 <0>       0.1300
   35 H35      -2.0113    -4.1320     4.3510 H      1 <0>       0.0600
   36 H36      -2.6686    -2.5287     4.7578 H      1 <0>       0.0700
   37 H37      -0.2830    -4.3740     2.6672 H      1 <0>       0.1200
   38 H38       3.0174    -1.8233     0.6143 H      1 <0>       0.1200
   39 H39       4.7480    -3.1482    -0.4633 H      1 <0>       0.1200
   40 H40       5.6826    -5.3597    -1.0490 H      1 <0>       0.1200
   41 H41       5.5292    -7.7885    -0.9601 H      1 <0>       0.1200
   42 H42       3.6612    -8.8924     0.1939 H      1 <0>       0.1200
   43 H43       1.9159    -7.5842     1.2781 H      1 <0>       0.1300
   44 H44       0.9786    -5.3718     1.8791 H      1 <0>       0.1400
   45 H45       1.7484    -0.8249     1.3873 H      1 <0>       0.1100
@<TRIPOS>BOND
   1    1    2 1
   2    1    3 1
   3    1    4 1
   4    1    5 1
   5    5    6 1
   6    5    7 1
   7    5   29 1
   8    7    8 1
   9    7   32 1
  10    7   33 1
  11    8   28 ar
  12    8    9 ar
  13    9   10 ar
  14    9   34 1
  15   10   11 1
  16   10   16 ar
  17   11   12 1
  18   11   35 1
  19   11   36 1
  20   12   13 ar
  21   12   14 ar
  22   12   15 ar
  23   16   17 ar
  24   16   37 1
  25   17   18 1
  26   17   28 ar
  27   18   27 ar
  28   18   19 ar
  29   19   20 ar
  30   19   38 1
  31   20   21 ar
  32   20   39 1
  33   21   26 ar
  34   21   22 ar
  35   22   23 ar
  36   22   40 1
  37   23   24 ar
  38   23   41 1
  39   24   25 ar
  40   24   42 1
  41   25   26 ar
  42   25   43 1
  43   26   27 ar
  44   27   44 1
  45   28   45 1
  46   29   30 ar
  47   29   31 ar
