@<TRIPOS>MOLECULE
ZINC000000164488
  15   15    0    0    0
SMALL
USER_CHARGES
NO_NAME
@<TRIPOS>ATOM
    1 C1       -0.0184     1.5028     0.0103 C.3    1 <0>      -0.0900
    2 C2        0.0021    -0.0041     0.0020 C.2    1 <0>       0.0700
    3 C3       -1.1639    -0.6867     0.0039 C.2    1 <0>      -0.0600
    4 O4       -2.3530    -0.0251     0.0131 O.3    1 <0>      -0.4600
    5 C5       -1.1275    -2.1086    -0.0045 C.2    1 <0>       0.3700
    6 O6       -2.1591    -2.7630    -0.0036 O.2    1 <0>      -0.4900
    7 C7        0.1388    -2.7450    -0.0145 C.2    1 <0>      -0.3200
    8 C8        1.2528    -1.9851    -0.0156 C.2    1 <0>       0.1200
    9 O9        1.1765    -0.6495    -0.0127 O.3    1 <0>      -0.2000
   10 H10       1.0042     1.8801     0.0026 H      1 <0>       0.0800
   11 H11      -0.5455     1.8639    -0.8728 H      1 <0>       0.0900
   12 H12      -0.5286     1.8543     0.9071 H      1 <0>       0.0900
   13 H13      -3.1263    -0.6058     0.0137 H      1 <0>       0.4100
   14 H14       0.2105    -3.8226    -0.0207 H      1 <0>       0.1600
   15 H15       2.2216    -2.4622    -0.0232 H      1 <0>       0.2100
@<TRIPOS>BOND
   1    1    2 1
   2    1   10 1
   3    1   11 1
   4    1   12 1
   5    2    9 1
   6    2    3 2
   7    3    4 1
   8    3    5 1
   9    4   13 1
  10    5    6 2
  11    5    7 1
  12    7    8 2
  13    7   14 1
  14    8    9 1
  15    8   15 1
