@<TRIPOS>MOLECULE
ZINC000013493055
37    40    1     0     0
SMALL
USER_CHARGES
@<TRIPOS>ATOM
1      O1     -0.0476    0.0371    0.7898 O.2      1 ZINC000013493055   -0.4900
2      C2     -0.0564    1.2553    0.6757 C.2      1 ZINC000013493055    0.5200
3      N3     -1.2206    1.9249    0.6490 N.2      1 ZINC000013493055   -0.5400
4      C4     -1.2654    3.2223    0.5286 C.2      1 ZINC000013493055    0.4200
5      N5     -0.1393    3.9715    0.4233 N.pl3    1 ZINC000013493055   -0.3300
6      N6     -0.2216    5.3636    0.2958 N.2      1 ZINC000013493055   -0.2600
7      C7      0.8665    6.0909    0.1941 C.2      1 ZINC000013493055    0.1200
8      S8      0.7301    7.8404    0.0348 S.3      1 ZINC000013493055    0.1500
9      C9     -1.0093    8.0928   -0.0885 C.ar     1 ZINC000013493055   -0.2100
10     C10    -1.7193    8.5844    0.9983 C.ar     1 ZINC000013493055    0.0100
11     C11    -3.0833    8.7821    0.8994 C.ar     1 ZINC000013493055   -0.1700
12     C12    -3.7431    8.4906   -0.2822 C.ar     1 ZINC000013493055    0.1700
13     F13    -5.0767    8.6850   -0.3756 F        1 ZINC000013493055   -0.1200
14     C14    -3.0382    8.0003   -1.3692 C.ar     1 ZINC000013493055   -0.2000
15     C15    -1.6727    7.8052   -1.2772 C.ar     1 ZINC000013493055    0.1900
16     F16    -0.9848    7.3274   -2.3373 F        1 ZINC000013493055   -0.1100
17     C17     2.1430    5.4917    0.2111 C.2      1 ZINC000013493055   -0.1100
18     C18     2.2568    4.1422    0.3338 C.2      1 ZINC000013493055   -0.0500
19     C19     1.0897    3.3651    0.4421 C.2      1 ZINC000013493055    0.1600
20     C20     1.1589    1.9711    0.5768 C.2      1 ZINC000013493055   -0.2000
21     C21     2.4615    1.2712    0.6090 C.ar     1 ZINC000013493055    0.0000
22     C22     3.0486    0.8267   -0.5777 C.ar     1 ZINC000013493055   -0.0100
23     Cl23    2.2511    1.0939   -2.0963 Cl       1 ZINC000013493055   -0.0500
24     C24     4.2651    0.1745   -0.5401 C.ar     1 ZINC000013493055   -0.1000
25     C25     4.9020   -0.0394    0.6693 C.ar     1 ZINC000013493055   -0.0900
26     C26     4.3261    0.3979    1.8488 C.ar     1 ZINC000013493055   -0.1000
27     C27     3.1129    1.0570    1.8257 C.ar     1 ZINC000013493055   -0.0100
28     Cl28    2.3923    1.6053    3.3068 Cl       1 ZINC000013493055   -0.0500
29     H29    -2.2264    3.7147    0.5118 H        1 ZINC000013493055    0.2200
30     H30    -1.2059    8.8119    1.9208 H        1 ZINC000013493055    0.1600
31     H31    -3.6355    9.1643    1.7452 H        1 ZINC000013493055    0.1500
32     H32    -3.5550    7.7736   -2.2900 H        1 ZINC000013493055    0.1600
33     H33     3.0289    6.1037    0.1265 H        1 ZINC000013493055    0.1700
34     H34     3.2298    3.6737    0.3482 H        1 ZINC000013493055    0.1700
35     H35     4.7203   -0.1699   -1.4570 H        1 ZINC000013493055    0.1500
36     H36     5.8532   -0.5503    0.6928 H        1 ZINC000013493055    0.1500
37     H37     4.8285    0.2270    2.7894 H        1 ZINC000013493055    0.1500
@<TRIPOS>BOND
1     1     2     2
2     2     20    1
3     2     3     1
4     3     4     2
5     4     5     1
6     4     29    1
7     5     19    1
8     5     6     1
9     6     7     2
10    7     8     1
11    7     17    1
12    8     9     1
13    9     15    ar
14    9     10    ar
15    10    11    ar
16    10    30    1
17    11    12    ar
18    11    31    1
19    12    13    1
20    12    14    ar
21    14    15    ar
22    14    32    1
23    15    16    1
24    17    18    2
25    17    33    1
26    18    19    1
27    18    34    1
28    19    20    2
29    20    21    1
30    21    27    ar
31    21    22    ar
32    22    23    1
33    22    24    ar
34    24    25    ar
35    24    35    1
36    25    26    ar
37    25    36    1
38    26    27    ar
39    26    37    1
40    27    28    1
@<TRIPOS>SUBSTRUCTURE
1   ZINC000013493055 1     RESIDUE    1   A     ZIN   1
