@<TRIPOS>MOLECULE
ZINC000001872015
32    34    1     0     0
SMALL
USER_CHARGES
@<TRIPOS>ATOM
1      C1     -0.0187    1.5258    0.0104 C.3      1 ZINC000001872015   -0.1200
2      C2      0.0021   -0.0041    0.0020 C.3      1 ZINC000001872015   -0.1300
3      H3      0.5123   -0.3556   -0.8948 H        1 ZINC000001872015    0.0800
4      C4      0.7309   -0.5033    1.2229 C.2      1 ZINC000001872015    0.5000
5      O5      0.1557   -1.2165    2.0272 O.co2    1 ZINC000001872015   -0.6900
6      O6      1.8959   -0.1939    1.4064 O.co2    1 ZINC000001872015   -0.6900
7      C7     -1.4117   -0.5257    0.0127 C.ar     1 ZINC000001872015   -0.0200
8      C8     -2.2581   -0.2005    1.0621 C.ar     1 ZINC000001872015   -0.0400
9      C9     -3.5554   -0.6701    1.0867 C.ar     1 ZINC000001872015   -0.1100
10     C10    -4.0192   -1.4729    0.0567 C.ar     1 ZINC000001872015    0.0100
11     O11    -5.2024   -2.0732   -0.2015 O.3      1 ZINC000001872015   -0.2100
12     C12    -5.0878   -2.7417   -1.3647 C.2      1 ZINC000001872015    0.2600
13     C13    -6.1648   -3.5314   -1.9976 C.ar     1 ZINC000001872015   -0.0100
14     C14    -5.9330   -4.1904   -3.2062 C.ar     1 ZINC000001872015   -0.0600
15     C15    -6.9419   -4.9263   -3.7918 C.ar     1 ZINC000001872015   -0.1100
16     C16    -8.1829   -5.0122   -3.1831 C.ar     1 ZINC000001872015   -0.0200
17     Cl17   -9.4478   -5.9404   -3.9262 Cl       1 ZINC000001872015   -0.0700
18     C18    -8.4187   -4.3611   -1.9838 C.ar     1 ZINC000001872015   -0.1100
19     C19    -7.4162   -3.6262   -1.3862 C.ar     1 ZINC000001872015   -0.0800
20     N20    -3.8829   -2.5896   -1.8529 N.2      1 ZINC000001872015   -0.4600
21     C21    -3.1655   -1.8049   -1.0084 C.ar     1 ZINC000001872015    0.0200
22     C22    -1.8566   -1.3175   -1.0224 C.ar     1 ZINC000001872015   -0.0700
23     H23     1.0039    1.9031    0.0027 H        1 ZINC000001872015    0.0600
24     H24    -0.5459    1.8868   -0.8726 H        1 ZINC000001872015    0.0400
25     H25    -0.5289    1.8773    0.9072 H        1 ZINC000001872015    0.0500
26     H26    -1.8991    0.4247    1.8662 H        1 ZINC000001872015    0.1400
27     H27    -4.2083   -0.4127    1.9076 H        1 ZINC000001872015    0.1300
28     H28    -4.9658   -4.1238   -3.6820 H        1 ZINC000001872015    0.1500
29     H29    -6.7638   -5.4362   -4.7270 H        1 ZINC000001872015    0.1400
30     H30    -9.3884   -4.4320   -1.5136 H        1 ZINC000001872015    0.1400
31     H31    -7.6013   -3.1188   -0.4509 H        1 ZINC000001872015    0.1400
32     H32    -1.1952   -1.5632   -1.8401 H        1 ZINC000001872015    0.1300
@<TRIPOS>BOND
1     1     2     1
2     1     23    1
3     1     24    1
4     1     25    1
5     2     3     1
6     2     4     1
7     2     7     1
8     4     5     ar
9     4     6     ar
10    7     22    ar
11    7     8     ar
12    8     9     ar
13    8     26    1
14    9     10    ar
15    9     27    1
16    10    21    ar
17    10    11    1
18    11    12    1
19    12    13    1
20    12    20    2
21    13    19    ar
22    13    14    ar
23    14    15    ar
24    14    28    1
25    15    16    ar
26    15    29    1
27    16    17    1
28    16    18    ar
29    18    19    ar
30    18    30    1
31    19    31    1
32    20    21    1
33    21    22    ar
34    22    32    1
@<TRIPOS>SUBSTRUCTURE
1   ZINC000001872015 1     RESIDUE    1   A     ZIN   1
