@<TRIPOS>MOLECULE
ZINC000034640491
50    52    1     0     0
SMALL
USER_CHARGES
@<TRIPOS>ATOM
1      C1     -0.4379    1.8759    0.6184 C.3      1 ZINC000034640491    0.0300
2      O2     -0.2868    0.4631    0.4657 O.3      1 ZINC000034640491   -0.3200
3      C3     -1.4256   -0.2726    0.3723 C.ar     1 ZINC000034640491    0.1400
4      C4     -2.6641    0.3504    0.4205 C.ar     1 ZINC000034640491   -0.2100
5      C5     -3.8134   -0.4056    0.3273 C.ar     1 ZINC000034640491   -0.0600
6      C6     -3.7430   -1.7855    0.1841 C.ar     1 ZINC000034640491   -0.1200
7      C7     -2.5143   -2.4059    0.1309 C.ar     1 ZINC000034640491   -0.0400
8      C8     -1.3557   -1.6475    0.2229 C.ar     1 ZINC000034640491   -0.1500
9      C9     -2.3649   -3.8952   -0.0394 C.3      1 ZINC000034640491   -0.0900
10     C10    -3.6721   -4.6087    0.2994 C.3      1 ZINC000034640491   -0.1300
11     C11    -4.8062   -3.9397   -0.4861 C.3      1 ZINC000034640491   -0.1000
12     H12    -5.7158   -4.5333   -0.3947 H        1 ZINC000034640491    0.1000
13     C13    -4.4131   -3.8229   -1.9601 C.3      1 ZINC000034640491   -0.0200
14     N14    -4.1992   -5.1651   -2.5176 N.4      1 ZINC000034640491   -0.3600
15     H15    -3.5194   -5.6574   -1.9577 H        1 ZINC000034640491    0.4200
16     C16    -5.4677   -5.9058   -2.5112 C.3      1 ZINC000034640491   -0.0500
17     C17    -3.7065   -5.0496   -3.8967 C.3      1 ZINC000034640491   -0.0800
18     C18    -3.3707   -6.4198   -4.4266 C.2      1 ZINC000034640491    0.4900
19     O19    -3.5273   -7.4016   -3.7208 O.co2    1 ZINC000034640491   -0.6700
20     O20    -2.9425   -6.5467   -5.5610 O.co2    1 ZINC000034640491   -0.6400
21     C21    -5.0397   -2.5474    0.0966 C.3      1 ZINC000034640491    0.0100
22     H22    -5.4687   -2.6425    1.0941 H        1 ZINC000034640491    0.1000
23     C23    -5.9996   -1.7934   -0.7873 C.ar     1 ZINC000034640491   -0.0900
24     C24    -7.3275   -1.6742   -0.4220 C.ar     1 ZINC000034640491   -0.1100
25     C25    -8.2080   -0.9826   -1.2327 C.ar     1 ZINC000034640491   -0.1100
26     C26    -7.7605   -0.4099   -2.4086 C.ar     1 ZINC000034640491   -0.1200
27     C27    -6.4325   -0.5284   -2.7735 C.ar     1 ZINC000034640491   -0.1200
28     C28    -5.5511   -1.2163   -1.9606 C.ar     1 ZINC000034640491   -0.1200
29     H29     0.5455    2.3418    0.6806 H        1 ZINC000034640491    0.1000
30     H30    -0.9771    2.2784   -0.2391 H        1 ZINC000034640491    0.0600
31     H31    -0.9973    2.0850    1.5303 H        1 ZINC000034640491    0.0600
32     H32    -2.7278    1.4228    0.5308 H        1 ZINC000034640491    0.1300
33     H33    -4.7774    0.0797    0.3664 H        1 ZINC000034640491    0.1300
34     H34    -0.3922   -2.1341    0.1860 H        1 ZINC000034640491    0.1300
35     H35    -2.0936   -4.1134   -1.0723 H        1 ZINC000034640491    0.0700
36     H36    -1.5770   -4.2553    0.6222 H        1 ZINC000034640491    0.0900
37     H37    -3.6005   -5.6592    0.0178 H        1 ZINC000034640491    0.0800
38     H38    -3.8683   -4.5273    1.3685 H        1 ZINC000034640491    0.0900
39     H39    -5.2106   -3.3238   -2.5104 H        1 ZINC000034640491    0.1300
40     H40    -3.4942   -3.2430   -2.0462 H        1 ZINC000034640491    0.1200
41     H41    -5.3090   -6.9017   -2.9249 H        1 ZINC000034640491    0.1500
42     H42    -5.8333   -5.9915   -1.4880 H        1 ZINC000034640491    0.1100
43     H43    -6.2021   -5.3739   -3.1161 H        1 ZINC000034640491    0.1000
44     H44    -4.4770   -4.5974   -4.5211 H        1 ZINC000034640491    0.1200
45     H45    -2.8133   -4.4251   -3.9124 H        1 ZINC000034640491    0.1200
46     H46    -7.6771   -2.1216    0.4967 H        1 ZINC000034640491    0.1200
47     H47    -9.2455   -0.8900   -0.9477 H        1 ZINC000034640491    0.1200
48     H48    -8.4486    0.1298   -3.0424 H        1 ZINC000034640491    0.1200
49     H49    -6.0829   -0.0812   -3.6923 H        1 ZINC000034640491    0.1200
50     H50    -4.5135   -1.3089   -2.2457 H        1 ZINC000034640491    0.1200
@<TRIPOS>BOND
1     1     2     1
2     1     29    1
3     1     30    1
4     1     31    1
5     2     3     1
6     3     8     ar
7     3     4     ar
8     4     5     ar
9     4     32    1
10    5     6     ar
11    5     33    1
12    6     21    1
13    6     7     ar
14    7     8     ar
15    7     9     1
16    8     34    1
17    9     10    1
18    9     35    1
19    9     36    1
20    10    11    1
21    10    37    1
22    10    38    1
23    11    12    1
24    11    13    1
25    11    21    1
26    13    14    1
27    13    39    1
28    13    40    1
29    14    15    1
30    14    16    1
31    14    17    1
32    16    41    1
33    16    42    1
34    16    43    1
35    17    18    1
36    17    44    1
37    17    45    1
38    18    19    ar
39    18    20    ar
40    21    22    1
41    21    23    1
42    23    28    ar
43    23    24    ar
44    24    25    ar
45    24    46    1
46    25    26    ar
47    25    47    1
48    26    27    ar
49    26    48    1
50    27    28    ar
51    27    49    1
52    28    50    1
@<TRIPOS>SUBSTRUCTURE
1   ZINC000034640491 1     RESIDUE    1   A     ZIN   1
