@<TRIPOS>MOLECULE
ZINC000063539231
69    73    1     0     0
SMALL
USER_CHARGES
@<TRIPOS>ATOM
1      C1      0.1303    1.0083    0.0300 C.2      1 ZINC000063539231   -0.1600
2      C2      0.1374   -0.2994   -0.0468 C.2      1 ZINC000063539231   -0.1700
3      C3     -1.1627   -1.0615   -0.0440 C.3      1 ZINC000063539231    0.1600
4      N4     -1.2255   -1.9243   -1.2262 N.am     1 ZINC000063539231   -0.4000
5      C5     -1.7289   -1.5671   -2.4261 C.2      1 ZINC000063539231    0.5800
6      O6     -2.2053   -0.4865   -2.7176 O.2      1 ZINC000063539231   -0.5000
7      C7     -1.5922   -2.7288   -3.3138 C.ar     1 ZINC000063539231   -0.3700
8      C8     -1.9169   -2.9875   -4.6426 C.ar     1 ZINC000063539231    0.3000
9      N9     -1.6467   -4.1831   -5.1405 N.ar     1 ZINC000063539231   -0.5700
10     C10    -1.0777   -5.1229   -4.3951 C.ar     1 ZINC000063539231    0.6200
11     N11    -0.8158   -6.3541   -4.9614 N.pl3    1 ZINC000063539231   -0.6200
12     C12    -1.0391   -6.5576   -6.3292 C.ar     1 ZINC000063539231    0.1300
13     C13    -0.8108   -5.5265   -7.2310 C.ar     1 ZINC000063539231   -0.0800
14     C14    -1.0309   -5.7271   -8.5792 C.ar     1 ZINC000063539231   -0.1200
15     C15    -1.4806   -6.9600   -9.0335 C.ar     1 ZINC000063539231    0.1000
16     N16    -1.7033   -7.1635  -10.3999 N.3      1 ZINC000063539231   -0.4900
17     C17    -2.6505   -6.1740  -10.9323 C.3      1 ZINC000063539231    0.0600
18     C18    -2.8055   -6.3803  -12.4409 C.3      1 ZINC000063539231    0.0500
19     N19    -3.2763   -7.7481  -12.6998 N.3      1 ZINC000063539231   -0.5500
20     C20    -3.5100   -7.9617  -14.1343 C.3      1 ZINC000063539231    0.0200
21     C21    -2.3291   -8.7376  -12.1675 C.3      1 ZINC000063539231    0.0500
22     C22    -2.1741   -8.5313  -10.6589 C.3      1 ZINC000063539231    0.0500
23     C23    -1.7089   -7.9911   -8.1316 C.ar     1 ZINC000063539231   -0.1500
24     C24    -1.4834   -7.7922   -6.7840 C.ar     1 ZINC000063539231   -0.1100
25     N25    -0.7516   -4.9202   -3.1253 N.ar     1 ZINC000063539231   -0.5900
26     C26    -0.9879   -3.7509   -2.5493 C.ar     1 ZINC000063539231    0.4700
27     N27    -0.7674   -3.2446   -1.2883 N.pl3    1 ZINC000063539231   -0.3100
28     C28    -0.1805   -3.9408   -0.2351 C.ar     1 ZINC000063539231    0.3700
29     C29     0.1363   -5.2859   -0.3901 C.ar     1 ZINC000063539231   -0.1800
30     C30     0.7192   -5.9658    0.6646 C.ar     1 ZINC000063539231   -0.0300
31     C31     0.9662   -5.2745    1.8428 C.ar     1 ZINC000063539231   -0.1900
32     C32     0.6257   -3.9388    1.9272 C.ar     1 ZINC000063539231    0.1400
33     C33     0.8917   -3.1826    3.2032 C.3      1 ZINC000063539231    0.1800
34     C34     0.4283   -1.7332    3.0433 C.3      1 ZINC000063539231   -0.1300
35     C35     0.1262   -3.8387    4.3540 C.3      1 ZINC000063539231   -0.1800
36     O36     2.2919   -3.2062    3.4879 O.3      1 ZINC000063539231   -0.5400
37     N37     0.0758   -3.3149    0.9031 N.ar     1 ZINC000063539231   -0.5000
38     H38     1.0621    1.5544    0.0280 H        1 ZINC000063539231    0.1000
39     H39    -0.8074    1.5406    0.0907 H        1 ZINC000063539231    0.1000
40     H40     1.0750   -0.8314   -0.1120 H        1 ZINC000063539231    0.1100
41     H41    -1.2233   -1.6733    0.8560 H        1 ZINC000063539231    0.1200
42     H42    -1.9958   -0.3588   -0.0623 H        1 ZINC000063539231    0.1000
43     H43    -2.3802   -2.2277   -5.2545 H        1 ZINC000063539231    0.1900
44     H44    -0.4770   -7.0783   -4.4122 H        1 ZINC000063539231    0.4300
45     H45    -0.4614   -4.5676   -6.8777 H        1 ZINC000063539231    0.1400
46     H46    -0.8537   -4.9251   -9.2805 H        1 ZINC000063539231    0.1300
47     H47    -3.6183   -6.2991  -10.4468 H        1 ZINC000063539231    0.0500
48     H48    -2.2737   -5.1695  -10.7394 H        1 ZINC000063539231    0.0900
49     H49    -3.5295   -5.6661  -12.8330 H        1 ZINC000063539231    0.0900
50     H50    -1.8430   -6.2283  -12.9295 H        1 ZINC000063539231    0.0500
51     H51    -2.5809   -7.8024  -14.6815 H        1 ZINC000063539231    0.0300
52     H52    -3.8577   -8.9817  -14.2978 H        1 ZINC000063539231    0.0700
53     H53    -4.2649   -7.2594  -14.4879 H        1 ZINC000063539231    0.0700
54     H54    -2.7058   -9.7421  -12.3603 H        1 ZINC000063539231    0.0800
55     H55    -1.3612   -8.6124  -12.6530 H        1 ZINC000063539231    0.0400
56     H56    -1.4500   -9.2455  -10.2667 H        1 ZINC000063539231    0.0900
57     H57    -3.1365   -8.6833  -10.1703 H        1 ZINC000063539231    0.0600
58     H58    -2.0590   -8.9498   -8.4847 H        1 ZINC000063539231    0.1300
59     H59    -1.6609   -8.5940   -6.0826 H        1 ZINC000063539231    0.1300
60     H60    -0.0702   -5.7931   -1.3210 H        1 ZINC000063539231    0.1700
61     H61     0.9759   -7.0109    0.5735 H        1 ZINC000063539231    0.1500
62     H62     1.4197   -5.7761    2.6849 H        1 ZINC000063539231    0.1400
63     H63    -0.6397   -1.7152    2.8261 H        1 ZINC000063539231    0.0700
64     H64     0.6207   -1.1863    3.9662 H        1 ZINC000063539231    0.0600
65     H65     0.9737   -1.2658    2.2234 H        1 ZINC000063539231    0.0700
66     H66     0.4564   -4.8713    4.4680 H        1 ZINC000063539231    0.0600
67     H67     0.3186   -3.2918    5.2770 H        1 ZINC000063539231    0.0800
68     H68    -0.9418   -3.8207    4.1369 H        1 ZINC000063539231    0.0700
69     H69     2.6551   -4.0952    3.6020 H        1 ZINC000063539231    0.3800
@<TRIPOS>BOND
1     1     2     2
2     1     38    1
3     1     39    1
4     2     3     1
5     2     40    1
6     3     4     1
7     3     41    1
8     3     42    1
9     4     27    1
10    4     5     am
11    5     6     2
12    5     7     1
13    7     26    ar
14    7     8     ar
15    8     9     ar
16    8     43    1
17    9     10    ar
18    10    11    1
19    10    25    ar
20    11    12    1
21    11    44    1
22    12    24    ar
23    12    13    ar
24    13    14    ar
25    13    45    1
26    14    15    ar
27    14    46    1
28    15    16    1
29    15    23    ar
30    16    22    1
31    16    17    1
32    17    18    1
33    17    47    1
34    17    48    1
35    18    19    1
36    18    49    1
37    18    50    1
38    19    20    1
39    19    21    1
40    20    51    1
41    20    52    1
42    20    53    1
43    21    22    1
44    21    54    1
45    21    55    1
46    22    56    1
47    22    57    1
48    23    24    ar
49    23    58    1
50    24    59    1
51    25    26    ar
52    26    27    1
53    27    28    1
54    28    37    ar
55    28    29    ar
56    29    30    ar
57    29    60    1
58    30    31    ar
59    30    61    1
60    31    32    ar
61    31    62    1
62    32    33    1
63    32    37    ar
64    33    34    1
65    33    35    1
66    33    36    1
67    34    63    1
68    34    64    1
69    34    65    1
70    35    66    1
71    35    67    1
72    35    68    1
73    36    69    1
@<TRIPOS>SUBSTRUCTURE
1   ZINC000063539231 1     RESIDUE    1   A     ZIN   1
