@<TRIPOS>MOLECULE
ZINC000002244322
  25   24    0    0    0
SMALL
USER_CHARGES
NO_NAME
@<TRIPOS>ATOM
    1 N1       -0.0111     0.9658     0.0074 N.pl3  1 <0>      -0.7600
    2 H2        0.0021    -0.0041     0.0020 H      1 <0>       0.4400
    3 H3        0.8223     1.4622     0.0021 H      1 <0>       0.4500
    4 C4       -1.1486     1.6021     0.0162 C.cat  1 <0>       0.7600
    5 N5       -1.1673     2.9768     0.0238 N.pl3  1 <0>      -0.5600
    6 O6        0.0493     3.7014     0.0219 O.3    1 <0>      -0.3000
    7 N7       -2.3298     0.8986     0.0180 N.pl3  1 <0>      -0.6900
    8 C8       -2.3099    -0.5662     0.0099 C.3    1 <0>       0.0900
    9 C9       -3.7453    -1.0958     0.0139 C.3    1 <0>      -0.1400
   10 C10      -3.7246    -2.6256     0.0054 C.3    1 <0>      -0.0500
   11 H11      -3.1263    -2.9855     0.8425 H      1 <0>       0.1400
   12 N12      -3.1386    -3.1005    -1.2552 N.4    1 <0>      -0.6200
   13 H13      -2.1960    -2.7508    -1.3407 H      1 <0>       0.4100
   14 H14      -3.1249    -4.1093    -1.2607 H      1 <0>       0.4400
   15 H15      -3.6925    -2.7673    -2.0300 H      1 <0>       0.4400
   16 C16      -5.1324    -3.1478     0.1331 C.2    1 <0>       0.4800
   17 O17      -5.7990    -3.3546    -0.8666 O.co2  1 <0>      -0.6600
   18 O18      -5.6049    -3.3635     1.2362 O.co2  1 <0>      -0.6200
   19 H19      -2.0138     3.4503     0.0304 H      1 <0>       0.4500
   20 H20      -0.0648     4.6616     0.0277 H      1 <0>       0.4300
   21 H21      -3.1763     1.3721     0.0246 H      1 <0>       0.4400
   22 H22      -1.7954    -0.9177    -0.8844 H      1 <0>       0.0800
   23 H23      -1.7870    -0.9274     0.8955 H      1 <0>       0.1100
   24 H24      -4.2598    -0.7443     0.9082 H      1 <0>       0.1300
   25 H25      -4.2683    -0.7346    -0.8717 H      1 <0>       0.1100
@<TRIPOS>BOND
   1    1    2 1
   2    1    3 1
   3    1    4 ar
   4    4    5 ar
   5    4    7 ar
   6    5    6 1
   7    5   19 1
   8    6   20 1
   9    7    8 1
  10    7   21 1
  11    8    9 1
  12    8   22 1
  13    8   23 1
  14    9   10 1
  15    9   24 1
  16    9   25 1
  17   10   11 1
  18   10   12 1
  19   10   16 1
  20   12   13 1
  21   12   14 1
  22   12   15 1
  23   16   17 ar
  24   16   18 ar
