@<TRIPOS>MOLECULE
ZINC000038428932
56    60    1     0     0
SMALL
USER_CHARGES
@<TRIPOS>ATOM
1      C1      0.1388    1.1241    0.4780 C.3      1 ZINC000038428932   -0.1700
2      C2      0.0820   -0.3998    0.3530 C.3      1 ZINC000038428932    0.1300
3      N3     -1.3159   -0.8320    0.2810 N.pl3    1 ZINC000038428932   -0.3800
4      N4     -2.1301   -1.1597    1.3713 N.2      1 ZINC000038428932   -0.2300
5      C5     -3.3131   -1.5013    0.9493 C.2      1 ZINC000038428932    0.0900
6      C6     -3.3288   -1.4115   -0.4620 C.ar     1 ZINC000038428932   -0.2700
7      C7     -4.3105   -1.6531   -1.4411 C.ar     1 ZINC000038428932    0.2900
8      N8     -5.5816   -2.0736   -1.0899 N.3      1 ZINC000038428932   -0.6200
9      C9     -5.6730   -3.5397   -1.1012 C.3      1 ZINC000038428932    0.1100
10     C10    -5.2156   -4.0921    0.2523 C.3      1 ZINC000038428932   -0.1900
11     C11    -5.3886   -5.6132    0.2588 C.3      1 ZINC000038428932    0.0700
12     O12    -6.7548   -5.9370   -0.0070 O.3      1 ZINC000038428932   -0.3800
13     C13    -7.2242   -5.4869   -1.2795 C.3      1 ZINC000038428932    0.0600
14     C14    -7.1250   -3.9607   -1.3477 C.3      1 ZINC000038428932   -0.1400
15     C15    -3.9589   -1.4535   -2.7853 C.ar     1 ZINC000038428932   -0.1300
16     C16    -4.9441   -1.6894   -3.8592 C.2      1 ZINC000038428932    0.2200
17     N17    -6.2131   -1.9886   -3.7005 N.2      1 ZINC000038428932   -0.2400
18     N18    -6.7650   -2.1225   -4.8550 N.2      1 ZINC000038428932   -0.2800
19     C19    -5.8795   -1.9162   -5.7883 C.2      1 ZINC000038428932    0.1600
20     C20    -6.1224   -1.9781   -7.2743 C.3      1 ZINC000038428932    0.0600
21     C21    -6.5306   -0.6161   -7.7738 C.2      1 ZINC000038428932   -0.2600
22     C22    -5.7068    0.3374   -8.2190 C.2      1 ZINC000038428932    0.0900
23     C23    -4.2114    0.1604   -8.2784 C.3      1 ZINC000038428932   -0.0900
24     N24    -6.3094    1.4451   -8.6019 N.2      1 ZINC000038428932   -0.4800
25     C25    -7.5955    1.4791   -8.5044 C.2      1 ZINC000038428932    0.0600
26     C26    -8.4591    2.6522   -8.8905 C.3      1 ZINC000038428932   -0.0800
27     S27    -8.1787   -0.0023   -7.8810 S.3      1 ZINC000038428932    0.1500
28     O28    -4.7106   -1.6322   -5.1858 O.3      1 ZINC000038428932   -0.2200
29     C29    -2.6634   -1.0278   -3.0936 C.ar     1 ZINC000038428932    0.2200
30     N30    -1.7718   -0.8121   -2.1530 N.ar     1 ZINC000038428932   -0.5000
31     C31    -2.0517   -0.9790   -0.8636 C.ar     1 ZINC000038428932    0.3400
32     H32     1.1789    1.4457    0.5317 H        1 ZINC000038428932    0.0800
33     H33    -0.3375    1.5779   -0.3910 H        1 ZINC000038428932    0.0600
34     H34    -0.3845    1.4342    1.3825 H        1 ZINC000038428932    0.0600
35     H35     0.6053   -0.7099   -0.5514 H        1 ZINC000038428932    0.1000
36     H36     0.5583   -0.8536    1.2221 H        1 ZINC000038428932    0.1000
37     H37    -4.1425   -1.8029    1.5717 H        1 ZINC000038428932    0.2000
38     H38    -5.8502   -1.7015   -0.1913 H        1 ZINC000038428932    0.3600
39     H39    -5.0383   -3.9385   -1.8926 H        1 ZINC000038428932    0.0800
40     H40    -4.1661   -3.8441    0.4111 H        1 ZINC000038428932    0.0800
41     H41    -5.8187   -3.6535    1.0473 H        1 ZINC000038428932    0.0800
42     H42    -4.7542   -6.0544   -0.5100 H        1 ZINC000038428932    0.0500
43     H43    -5.1048   -6.0071    1.2347 H        1 ZINC000038428932    0.1000
44     H44    -6.6139   -5.9265   -2.0684 H        1 ZINC000038428932    0.0500
45     H45    -8.2629   -5.7899   -1.4117 H        1 ZINC000038428932    0.1000
46     H46    -7.7667   -3.5195   -0.5850 H        1 ZINC000038428932    0.0800
47     H47    -7.4411   -3.6188   -2.3333 H        1 ZINC000038428932    0.1000
48     H48    -5.2085   -2.2913   -7.7791 H        1 ZINC000038428932    0.1200
49     H49    -6.9167   -2.6947   -7.4831 H        1 ZINC000038428932    0.1300
50     H50    -3.9331   -0.2565   -9.2462 H        1 ZINC000038428932    0.0800
51     H51    -3.7256    1.1272   -8.1459 H        1 ZINC000038428932    0.0800
52     H52    -3.8940   -0.5173   -7.4859 H        1 ZINC000038428932    0.0800
53     H53    -8.7492    2.5609   -9.9372 H        1 ZINC000038428932    0.0900
54     H54    -9.3524    2.6669   -8.2659 H        1 ZINC000038428932    0.0800
55     H55    -7.9006    3.5772   -8.7475 H        1 ZINC000038428932    0.0900
56     H56    -2.3897   -0.8732   -4.1268 H        1 ZINC000038428932    0.1800
@<TRIPOS>BOND
1     1     2     1
2     1     32    1
3     1     33    1
4     1     34    1
5     2     3     1
6     2     35    1
7     2     36    1
8     3     31    1
9     3     4     1
10    4     5     2
11    5     6     1
12    5     37    1
13    6     31    ar
14    6     7     ar
15    7     8     1
16    7     15    ar
17    8     9     1
18    8     38    1
19    9     14    1
20    9     10    1
21    9     39    1
22    10    11    1
23    10    40    1
24    10    41    1
25    11    12    1
26    11    42    1
27    11    43    1
28    12    13    1
29    13    14    1
30    13    44    1
31    13    45    1
32    14    46    1
33    14    47    1
34    15    16    1
35    15    29    ar
36    16    28    1
37    16    17    2
38    17    18    1
39    18    19    2
40    19    20    1
41    19    28    1
42    20    21    1
43    20    48    1
44    20    49    1
45    21    27    1
46    21    22    2
47    22    23    1
48    22    24    1
49    23    50    1
50    23    51    1
51    23    52    1
52    24    25    2
53    25    26    1
54    25    27    1
55    26    53    1
56    26    54    1
57    26    55    1
58    29    30    ar
59    29    56    1
60    30    31    ar
@<TRIPOS>SUBSTRUCTURE
1   ZINC000038428932 1     RESIDUE    1   A     ZIN   1
