@<TRIPOS>MOLECULE
ZINC000072190199
91    92    1     0     0
SMALL
USER_CHARGES
@<TRIPOS>ATOM
1      C1     -3.8462   -3.0044    3.1116 C.2      1 ZINC000072190199   -0.1400
2      C2     -3.3163   -2.4285    2.0612 C.2      1 ZINC000072190199   -0.2000
3      C3     -4.0755   -1.3526    1.3284 C.3      1 ZINC000072190199    0.0100
4      N4     -3.2484   -0.1416    1.2424 N.4      1 ZINC000072190199   -0.3600
5      H5     -2.3736   -0.3631    0.7910 H        1 ZINC000072190199    0.4300
6      C6     -3.9571    0.8811    0.4616 C.3      1 ZINC000072190199   -0.0100
7      C7     -3.0440    2.0569    0.2277 C.2      1 ZINC000072190199   -0.2300
8      C8     -2.7864    2.4533   -0.9940 C.2      1 ZINC000072190199   -0.1000
9      C9     -2.9861    0.3692    2.5946 C.3      1 ZINC000072190199    0.0100
10     H10    -2.6543    1.4057    2.5334 H        1 ZINC000072190199    0.1600
11     C11    -4.2679    0.2923    3.4264 C.3      1 ZINC000072190199   -0.1000
12     C12    -5.2830    1.2604    2.8756 C.ar     1 ZINC000072190199   -0.1300
13     C13    -5.1626    2.6120    3.1411 C.ar     1 ZINC000072190199   -0.0900
14     C14    -6.0918    3.5015    2.6374 C.ar     1 ZINC000072190199   -0.1300
15     C15    -7.1462    3.0377    1.8642 C.ar     1 ZINC000072190199    0.1300
16     O16    -8.0614    3.9108    1.3672 O.3      1 ZINC000072190199   -0.4900
17     C17    -7.2645    1.6811    1.5989 C.ar     1 ZINC000072190199   -0.1400
18     C18    -6.3300    0.7962    2.1009 C.ar     1 ZINC000072190199   -0.1200
19     C19    -1.9131   -0.4640    3.2469 C.2      1 ZINC000072190199    0.5100
20     O20    -1.3350   -1.3170    2.6074 O.2      1 ZINC000072190199   -0.5100
21     N21    -1.5960   -0.2611    4.5411 N.am     1 ZINC000072190199   -0.6900
22     C22    -0.5529   -1.0711    5.1753 C.3      1 ZINC000072190199    0.1000
23     C23    -0.3933   -0.6484    6.6129 C.2      1 ZINC000072190199    0.5100
24     O24    -1.0829    0.2418    7.0634 O.2      1 ZINC000072190199   -0.5300
25     N25     0.5158   -1.2596    7.3981 N.am     1 ZINC000072190199   -0.7100
26     C26     0.6710   -0.8486    8.7957 C.3      1 ZINC000072190199    0.1400
27     C27     1.7604   -1.6945    9.4580 C.3      1 ZINC000072190199   -0.1400
28     S28     1.9526   -1.1857   11.1885 S.3      1 ZINC000072190199   -0.1400
29     C29     3.3634   -2.1774   11.7512 C.3      1 ZINC000072190199   -0.0800
30     H30     3.1890   -3.2262   11.5114 H        1 ZINC000072190199    0.1000
31     C31     4.6357   -1.6985   11.0491 C.3      1 ZINC000072190199   -0.0700
32     C32     4.8772   -0.2485   11.3809 C.ar     1 ZINC000072190199   -0.0900
33     C33     4.4077    0.7410   10.5376 C.ar     1 ZINC000072190199   -0.0900
34     C34     4.6292    2.0711   10.8420 C.ar     1 ZINC000072190199   -0.1400
35     C35     5.3199    2.4117   11.9900 C.ar     1 ZINC000072190199   -0.1200
36     C36     5.7887    1.4222   12.8338 C.ar     1 ZINC000072190199   -0.1200
37     C37     5.5634    0.0922   12.5316 C.ar     1 ZINC000072190199   -0.0900
38     C38     3.5237   -2.0227   13.2416 C.2      1 ZINC000072190199    0.5300
39     O39     3.1110   -1.0258   13.7957 O.2      1 ZINC000072190199   -0.5200
40     N40     4.1255   -2.9921   13.9589 N.am     1 ZINC000072190199   -0.6800
41     C41     4.3796   -2.7952   15.3882 C.3      1 ZINC000072190199    0.0700
42     H42     3.6963   -2.0407   15.7781 H        1 ZINC000072190199    0.0900
43     C43     4.1606   -4.1144   16.1316 C.3      1 ZINC000072190199   -0.1100
44     C44     2.6915   -4.5261   16.0179 C.3      1 ZINC000072190199   -0.0900
45     C45     2.4963   -5.9017   16.6587 C.3      1 ZINC000072190199   -0.1400
46     C46     1.8166   -3.4987   16.7390 C.3      1 ZINC000072190199   -0.1500
47     C47     5.8012   -2.3364   15.5872 C.2      1 ZINC000072190199    0.4900
48     O48     6.5632   -2.2832   14.6370 O.co2    1 ZINC000072190199   -0.6900
49     O49     6.1892   -2.0183   16.6984 O.co2    1 ZINC000072190199   -0.6900
50     H50    -4.7934   -2.6574    3.4974 H        1 ZINC000072190199    0.1000
51     H51    -3.3382   -3.8292    3.5892 H        1 ZINC000072190199    0.1200
52     H52    -2.3352   -2.7247    1.7203 H        1 ZINC000072190199    0.1600
53     H53    -4.3180   -1.6990    0.3237 H        1 ZINC000072190199    0.1400
54     H54    -4.9959   -1.1264    1.8667 H        1 ZINC000072190199    0.1300
55     H55    -4.2608    0.4606   -0.4971 H        1 ZINC000072190199    0.1300
56     H56    -4.8398    1.2100    1.0100 H        1 ZINC000072190199    0.1600
57     H57    -2.6019    2.5727    1.0673 H        1 ZINC000072190199    0.1300
58     H58    -3.2285    1.9375   -1.8336 H        1 ZINC000072190199    0.1100
59     H59    -2.1320    3.2960   -1.1617 H        1 ZINC000072190199    0.1200
60     H60    -4.6698   -0.7200    3.3818 H        1 ZINC000072190199    0.1100
61     H61    -4.0451    0.5495    4.4619 H        1 ZINC000072190199    0.1300
62     H62    -4.3416    2.9726    3.7430 H        1 ZINC000072190199    0.1400
63     H63    -5.9977    4.5570    2.8456 H        1 ZINC000072190199    0.1400
64     H64    -7.8360    4.2628    0.4952 H        1 ZINC000072190199    0.4000
65     H65    -8.0846    1.3176    0.9975 H        1 ZINC000072190199    0.1400
66     H66    -6.4215   -0.2599    1.8944 H        1 ZINC000072190199    0.1300
67     H67    -2.0584    0.4212    5.0525 H        1 ZINC000072190199    0.4200
68     H68    -0.8352   -2.1231    5.1351 H        1 ZINC000072190199    0.1100
69     H69     0.3899   -0.9274    4.6475 H        1 ZINC000072190199    0.1100
70     H70     1.0674   -1.9715    7.0378 H        1 ZINC000072190199    0.4100
71     H71     0.9533    0.2035    8.8358 H        1 ZINC000072190199    0.0900
72     H72    -0.2718   -0.9923    9.3235 H        1 ZINC000072190199    0.0800
73     H73     1.4781   -2.7466    9.4178 H        1 ZINC000072190199    0.0900
74     H74     2.7032   -1.5508    8.9302 H        1 ZINC000072190199    0.0900
75     H75     5.4834   -2.2947   11.3869 H        1 ZINC000072190199    0.0900
76     H76     4.5197   -1.8101    9.9710 H        1 ZINC000072190199    0.0700
77     H77     3.8680    0.4750    9.6407 H        1 ZINC000072190199    0.1100
78     H78     4.2630    2.8442   10.1828 H        1 ZINC000072190199    0.1100
79     H79     5.4936    3.4508   12.2274 H        1 ZINC000072190199    0.1100
80     H80     6.3286    1.6882   13.7305 H        1 ZINC000072190199    0.1200
81     H81     5.9296   -0.6809   13.1908 H        1 ZINC000072190199    0.1500
82     H82     4.3905   -3.8201   13.5288 H        1 ZINC000072190199    0.3900
83     H83     4.7899   -4.8881   15.6917 H        1 ZINC000072190199    0.0600
84     H84     4.4221   -3.9872   17.1821 H        1 ZINC000072190199    0.0800
85     H85     2.4072   -4.5714   14.9666 H        1 ZINC000072190199    0.0600
86     H86     2.6969   -5.8361   17.7281 H        1 ZINC000072190199    0.0500
87     H87     1.4700   -6.2335   16.5013 H        1 ZINC000072190199    0.0500
88     H88     3.1828   -6.6154   16.2033 H        1 ZINC000072190199    0.0500
89     H89     1.9557   -2.5188   16.2825 H        1 ZINC000072190199    0.0600
90     H90     0.7699   -3.7921   16.6580 H        1 ZINC000072190199    0.0500
91     H91     2.1009   -3.4535   17.7903 H        1 ZINC000072190199    0.0500
@<TRIPOS>BOND
1     1     2     2
2     1     50    1
3     1     51    1
4     2     3     1
5     2     52    1
6     3     4     1
7     3     53    1
8     3     54    1
9     4     5     1
10    4     6     1
11    4     9     1
12    6     7     1
13    6     55    1
14    6     56    1
15    7     8     2
16    7     57    1
17    8     58    1
18    8     59    1
19    9     10    1
20    9     11    1
21    9     19    1
22    11    12    1
23    11    60    1
24    11    61    1
25    12    18    ar
26    12    13    ar
27    13    14    ar
28    13    62    1
29    14    15    ar
30    14    63    1
31    15    16    1
32    15    17    ar
33    16    64    1
34    17    18    ar
35    17    65    1
36    18    66    1
37    19    20    2
38    19    21    am
39    21    22    1
40    21    67    1
41    22    23    1
42    22    68    1
43    22    69    1
44    23    24    2
45    23    25    am
46    25    26    1
47    25    70    1
48    26    27    1
49    26    71    1
50    26    72    1
51    27    28    1
52    27    73    1
53    27    74    1
54    28    29    1
55    29    30    1
56    29    31    1
57    29    38    1
58    31    32    1
59    31    75    1
60    31    76    1
61    32    37    ar
62    32    33    ar
63    33    34    ar
64    33    77    1
65    34    35    ar
66    34    78    1
67    35    36    ar
68    35    79    1
69    36    37    ar
70    36    80    1
71    37    81    1
72    38    39    2
73    38    40    am
74    40    41    1
75    40    82    1
76    41    42    1
77    41    43    1
78    41    47    1
79    43    44    1
80    43    83    1
81    43    84    1
82    44    45    1
83    44    46    1
84    44    85    1
85    45    86    1
86    45    87    1
87    45    88    1
88    46    89    1
89    46    90    1
90    46    91    1
91    47    48    ar
92    47    49    ar
@<TRIPOS>SUBSTRUCTURE
1   ZINC000072190199 1     RESIDUE    1   A     ZIN   1
