@<TRIPOS>MOLECULE
ZINC000000005710
25    26    1     0     0
SMALL
USER_CHARGES
@<TRIPOS>ATOM
1      C1     -0.0184    1.5028    0.0103 C.3      1 ZINC000000005710   -0.1200
2      C2      0.0021   -0.0041    0.0020 C.cat    1 ZINC000000005710    0.3400
3      N3      0.0080   -0.7588   -1.0626 N.pl3    1 ZINC000000005710   -0.4800
4      H4     -0.0004   -0.4384   -1.9781 H        1 ZINC000000005710    0.4600
5      C5      0.0275   -2.0475   -0.6911 C.2      1 ZINC000000005710    0.0000
6      C6      0.0339   -2.0930    0.6548 C.2      1 ZINC000000005710    0.0200
7      N7      0.0232   -0.7970    1.0950 N.pl3    1 ZINC000000005710   -0.4100
8      C8      0.0255   -0.3530    2.4911 C.3      1 ZINC000000005710    0.1600
9      C9     -1.3903   -0.0962    2.9389 C.ar     1 ZINC000000005710    0.0700
10     C10    -1.8755   -0.7304    4.0666 C.ar     1 ZINC000000005710   -0.1400
11     C11    -3.1796   -0.4869    4.4704 C.ar     1 ZINC000000005710   -0.0700
12     C12    -3.9496    0.3893    3.7213 C.ar     1 ZINC000000005710   -0.1500
13     C13    -3.3958    0.9868    2.6046 C.ar     1 ZINC000000005710    0.1100
14     N14    -2.1501    0.7355    2.2530 N.ar     1 ZINC000000005710   -0.4800
15     H15     1.0042    1.8801    0.0026 H        1 ZINC000000005710    0.1200
16     H16    -0.5455    1.8639   -0.8728 H        1 ZINC000000005710    0.1100
17     H17    -0.5286    1.8543    0.9071 H        1 ZINC000000005710    0.1300
18     H18     0.0365   -2.8993   -1.3550 H        1 ZINC000000005710    0.2200
19     H19     0.0489   -2.9814    1.2688 H        1 ZINC000000005710    0.2200
20     H20     0.4701   -1.1263    3.1175 H        1 ZINC000000005710    0.1400
21     H21     0.6067    0.5649    2.5795 H        1 ZINC000000005710    0.1300
22     H22    -1.2472   -1.4075    4.6262 H        1 ZINC000000005710    0.1400
23     H23    -3.5858   -0.9687    5.3475 H        1 ZINC000000005710    0.1500
24     H24    -4.9693    0.6021    4.0063 H        1 ZINC000000005710    0.1500
25     H25    -3.9892    1.6704    2.0155 H        1 ZINC000000005710    0.1700
@<TRIPOS>BOND
1     1     2     1
2     1     15    1
3     1     16    1
4     1     17    1
5     2     7     ar
6     2     3     ar
7     3     4     1
8     3     5     1
9     5     6     2
10    5     18    1
11    6     7     1
12    6     19    1
13    7     8     1
14    8     9     1
15    8     20    1
16    8     21    1
17    9     14    ar
18    9     10    ar
19    10    11    ar
20    10    22    1
21    11    12    ar
22    11    23    1
23    12    13    ar
24    12    24    1
25    13    14    ar
26    13    25    1
@<TRIPOS>SUBSTRUCTURE
1   ZINC000000005710 1     RESIDUE    1   A     ZIN   1
