@<TRIPOS>MOLECULE
ZINC000034600373
42    44    1     0     0
SMALL
USER_CHARGES
@<TRIPOS>ATOM
1      C1     -0.0184    1.5028    0.0103 C.3      1 ZINC000034600373   -0.0800
2      C2      0.0021   -0.0041    0.0020 C.2      1 ZINC000034600373    0.0700
3      C3      0.0079   -0.7686   -1.1012 C.2      1 ZINC000034600373   -0.0900
4      C4     -0.0047   -0.2853   -2.5285 C.3      1 ZINC000034600373   -0.1200
5      C5      1.4118   -0.1049   -3.0102 C.2      1 ZINC000034600373    0.5000
6      O6      2.3450   -0.3464   -2.2637 O.co2    1 ZINC000034600373   -0.6900
7      O7      1.6246    0.2825   -4.1465 O.co2    1 ZINC000034600373   -0.7100
8      C8      0.0292   -2.1618   -0.6523 C.ar     1 ZINC000034600373   -0.1300
9      C9      0.0431   -3.3968   -1.3041 C.ar     1 ZINC000034600373   -0.0200
10     C10     0.0620   -4.5409   -0.5283 C.ar     1 ZINC000034600373   -0.2100
11     C11     0.0665   -4.4266    0.8532 C.ar     1 ZINC000034600373    0.1200
12     N12     0.0531   -3.2525    1.4478 N.ar     1 ZINC000034600373   -0.5000
13     C13     0.0348   -2.1214    0.7554 C.ar     1 ZINC000034600373    0.2900
14     N14     0.0234   -0.7961    1.1187 N.pl3    1 ZINC000034600373   -0.4700
15     C15     0.0314   -0.3031    2.4982 C.3      1 ZINC000034600373    0.1500
16     C16     1.4548   -0.1187    2.9575 C.ar     1 ZINC000034600373   -0.0500
17     C17     2.1256   -1.1631    3.5658 C.ar     1 ZINC000034600373   -0.1100
18     C18     3.4313   -0.9939    3.9872 C.ar     1 ZINC000034600373   -0.0300
19     C19     4.0663    0.2196    3.7998 C.ar     1 ZINC000034600373   -0.6600
20     S20     5.7303    0.4354    4.3373 S.o2     1 ZINC000034600373    2.5000
21     C21     6.7347   -0.0531    2.9080 C.3      1 ZINC000034600373   -0.6500
22     O22     5.8442    1.8321    4.5728 O.2      1 ZINC000034600373   -0.9400
23     O23     5.8809   -0.5006    5.3958 O.2      1 ZINC000034600373   -0.9400
24     C24     3.3959    1.2636    3.1902 C.ar     1 ZINC000034600373   -0.0200
25     C25     2.0915    1.0932    2.7655 C.ar     1 ZINC000034600373   -0.1200
26     H26     1.0042    1.8801    0.0026 H        1 ZINC000034600373    0.0800
27     H27    -0.5455    1.8639   -0.8728 H        1 ZINC000034600373    0.0800
28     H28    -0.5286    1.8543    0.9071 H        1 ZINC000034600373    0.0600
29     H29    -0.5112   -1.0187   -3.1560 H        1 ZINC000034600373    0.0700
30     H30    -0.5317    0.6671   -2.5850 H        1 ZINC000034600373    0.0700
31     H31     0.0389   -3.4564   -2.3825 H        1 ZINC000034600373    0.1300
32     H32     0.0729   -5.5151   -0.9944 H        1 ZINC000034600373    0.1300
33     H33     0.0809   -5.3225    1.4561 H        1 ZINC000034600373    0.1500
34     H34    -0.4924    0.6516    2.5459 H        1 ZINC000034600373    0.1000
35     H35    -0.4684   -1.0244    3.1447 H        1 ZINC000034600373    0.1000
36     H36     1.6295   -2.1112    3.7123 H        1 ZINC000034600373    0.1400
37     H37     3.9551   -1.8097    4.4631 H        1 ZINC000034600373    0.1400
38     H38     6.4949    0.5876    2.0594 H        1 ZINC000034600373    0.1400
39     H39     7.7915    0.0504    3.1541 H        1 ZINC000034600373    0.1300
40     H40     6.5213   -1.0908    2.6515 H        1 ZINC000034600373    0.1300
41     H41     3.8921    2.2115    3.0435 H        1 ZINC000034600373    0.1400
42     H42     1.5678    1.9089    2.2892 H        1 ZINC000034600373    0.1300
@<TRIPOS>BOND
1     1     2     1
2     1     26    1
3     1     27    1
4     1     28    1
5     2     14    1
6     2     3     2
7     3     4     1
8     3     8     1
9     4     5     1
10    4     29    1
11    4     30    1
12    5     6     ar
13    5     7     ar
14    8     13    ar
15    8     9     ar
16    9     10    ar
17    9     31    1
18    10    11    ar
19    10    32    1
20    11    12    ar
21    11    33    1
22    12    13    ar
23    13    14    1
24    14    15    1
25    15    16    1
26    15    34    1
27    15    35    1
28    16    25    ar
29    16    17    ar
30    17    18    ar
31    17    36    1
32    18    19    ar
33    18    37    1
34    19    20    1
35    19    24    ar
36    20    21    1
37    20    22    2
38    20    23    2
39    21    38    1
40    21    39    1
41    21    40    1
42    24    25    ar
43    24    41    1
44    25    42    1
@<TRIPOS>SUBSTRUCTURE
1   ZINC000034600373 1     RESIDUE    1   A     ZIN   1
