@<TRIPOS>MOLECULE
ZINC000029238439
74    79    1     0     0
SMALL
USER_CHARGES
@<TRIPOS>ATOM
1      N1      9.5563    3.2470   -5.4186 N.1      1 ZINC000029238439   -0.3800
2      C2      8.6356    2.6112   -5.2221 C.1      1 ZINC000029238439    0.2300
3      C3      7.4750    1.8097   -4.9745 C.ar     1 ZINC000029238439    0.0100
4      C4      7.3752    0.5308   -5.5259 C.ar     1 ZINC000029238439   -0.0700
5      C5      6.2543   -0.2359   -5.2833 C.ar     1 ZINC000029238439   -0.0900
6      C6      5.2302    0.2600   -4.4961 C.ar     1 ZINC000029238439   -0.1200
7      C7      4.0088   -0.5834   -4.2355 C.3      1 ZINC000029238439    0.1300
8      N8      4.2648   -1.4767   -3.1029 N.pl3    1 ZINC000029238439   -0.4000
9      C9      4.7004   -2.7531   -3.1716 C.cat    1 ZINC000029238439    0.3000
10     N10     4.8097   -3.2237   -1.9594 N.pl3    1 ZINC000029238439   -0.4700
11     H11     5.1040   -4.1188   -1.7289 H        1 ZINC000029238439    0.4700
12     C12     4.4514   -2.2743   -1.0823 C.2      1 ZINC000029238439    0.0200
13     C13     4.1127   -1.1716   -1.7772 C.2      1 ZINC000029238439    0.0300
14     C14     3.6462    0.1424   -1.2057 C.3      1 ZINC000029238439    0.1600
15     N15     3.0297   -0.0858    0.1036 N.am     1 ZINC000029238439   -0.5400
16     C16     1.7239   -0.4087    0.1864 C.2      1 ZINC000029238439    0.5600
17     O17     1.1799   -0.4673    1.2721 O.2      1 ZINC000029238439   -0.4700
18     C18     0.9530   -0.6916   -1.0428 C.ar     1 ZINC000029238439   -0.1200
19     C19     0.6858    0.3317   -1.9535 C.ar     1 ZINC000029238439   -0.1000
20     C20    -0.0342    0.0616   -3.0991 C.ar     1 ZINC000029238439   -0.1000
21     C21    -0.4918   -1.2201   -3.3463 C.ar     1 ZINC000029238439   -0.0900
22     C22    -0.2309   -2.2404   -2.4469 C.ar     1 ZINC000029238439   -0.0400
23     Cl23   -0.8099   -3.8457   -2.7659 Cl       1 ZINC000029238439   -0.0500
24     C24     0.4942   -1.9846   -1.3003 C.ar     1 ZINC000029238439   -0.0700
25     C25     3.7975    0.0315    1.2692 C.ar     1 ZINC000029238439    0.1000
26     C26     5.0945    0.5230    1.1998 C.ar     1 ZINC000029238439   -0.1300
27     C27     5.8513    0.6387    2.3487 C.ar     1 ZINC000029238439   -0.1100
28     C28     5.3153    0.2639    3.5740 C.ar     1 ZINC000029238439    0.1100
29     N29     6.0819    0.3815    4.7382 N.3      1 ZINC000029238439   -0.4900
30     C30     7.3502   -0.3484    4.6094 C.3      1 ZINC000029238439    0.0500
31     C31     8.2343   -0.0479    5.8244 C.3      1 ZINC000029238439    0.1000
32     N32     7.4679   -0.3433    7.0445 N.am     1 ZINC000029238439   -0.6100
33     C33     7.9813   -1.1308    8.0102 C.2      1 ZINC000029238439    0.6000
34     O34     7.2897   -1.4656    8.9542 O.2      1 ZINC000029238439   -0.5100
35     C35     9.3715   -1.5837    7.9239 C.2      1 ZINC000029238439   -0.2700
36     C36     9.8353   -2.8022    8.3345 C.2      1 ZINC000029238439   -0.0500
37     C37    11.1851   -2.9653    8.1362 C.2      1 ZINC000029238439   -0.1300
38     C38    11.8086   -1.9166    7.5818 C.2      1 ZINC000029238439   -0.1700
39     Cl39   13.5061   -1.8577    7.2233 Cl       1 ZINC000029238439    0.0000
40     S40    10.7094   -0.6498    7.2686 S.3      1 ZINC000029238439    0.2600
41     C41     6.1265    0.2439    7.1829 C.3      1 ZINC000029238439    0.1200
42     C42     5.3254   -0.0681    5.9144 C.3      1 ZINC000029238439    0.0400
43     C43     4.0180   -0.2272    3.6433 C.ar     1 ZINC000029238439   -0.1400
44     C44     3.2597   -0.3383    2.4950 C.ar     1 ZINC000029238439   -0.1200
45     C45     5.3225    1.5265   -3.9466 C.ar     1 ZINC000029238439   -0.0900
46     C46     6.4405    2.3014   -4.1759 C.ar     1 ZINC000029238439   -0.0700
47     H47     8.1735    0.1428   -6.1411 H        1 ZINC000029238439    0.1400
48     H48     6.1758   -1.2253   -5.7091 H        1 ZINC000029238439    0.1400
49     H49     3.1630    0.0639   -4.0038 H        1 ZINC000029238439    0.1300
50     H50     3.7808   -1.1761   -5.1214 H        1 ZINC000029238439    0.1400
51     H51     4.9212   -3.2949   -4.0795 H        1 ZINC000029238439    0.2600
52     H52     4.4404   -2.3751   -0.0071 H        1 ZINC000029238439    0.2200
53     H53     4.4983    0.8130   -1.0941 H        1 ZINC000029238439    0.1300
54     H54     2.9155    0.5922   -1.8779 H        1 ZINC000029238439    0.1200
55     H55     1.0417    1.3332   -1.7617 H        1 ZINC000029238439    0.1400
56     H56    -0.2414    0.8529   -3.8043 H        1 ZINC000029238439    0.1500
57     H57    -1.0552   -1.4260   -4.2444 H        1 ZINC000029238439    0.1500
58     H58     0.6976   -2.7808   -0.5995 H        1 ZINC000029238439    0.1400
59     H59     5.5112    0.8145    0.2471 H        1 ZINC000029238439    0.1300
60     H60     6.8602    1.0203    2.2946 H        1 ZINC000029238439    0.1300
61     H61     7.1504   -1.4189    4.5608 H        1 ZINC000029238439    0.0500
62     H62     7.8614   -0.0317    3.7003 H        1 ZINC000029238439    0.1000
63     H63     9.1263   -0.6736    5.7918 H        1 ZINC000029238439    0.1000
64     H64     8.5209    1.0037    5.8176 H        1 ZINC000029238439    0.0900
65     H65     9.2035   -3.5612    8.7718 H        1 ZINC000029238439    0.1600
66     H66    11.7055   -3.8720    8.4076 H        1 ZINC000029238439    0.1600
67     H67     5.6249   -0.1889    8.0484 H        1 ZINC000029238439    0.1100
68     H68     6.2104    1.3236    7.3066 H        1 ZINC000029238439    0.0800
69     H69     4.3681    0.4518    5.9517 H        1 ZINC000029238439    0.1000
70     H70     5.1538   -1.1425    5.8476 H        1 ZINC000029238439    0.0600
71     H71     3.6012   -0.5190    4.5960 H        1 ZINC000029238439    0.1400
72     H72     2.2508   -0.7199    2.5490 H        1 ZINC000029238439    0.1700
73     H73     4.5194    1.9076   -3.3333 H        1 ZINC000029238439    0.1400
74     H74     6.5115    3.2897   -3.7461 H        1 ZINC000029238439    0.1500
@<TRIPOS>BOND
1     1     2     3
2     2     3     1
3     3     46    ar
4     3     4     ar
5     4     5     ar
6     4     47    1
7     5     6     ar
8     5     48    1
9     6     7     1
10    6     45    ar
11    7     8     1
12    7     49    1
13    7     50    1
14    8     13    1
15    8     9     ar
16    9     10    ar
17    9     51    1
18    10    11    1
19    10    12    1
20    12    13    2
21    12    52    1
22    13    14    1
23    14    15    1
24    14    53    1
25    14    54    1
26    15    16    am
27    15    25    1
28    16    17    2
29    16    18    1
30    18    24    ar
31    18    19    ar
32    19    20    ar
33    19    55    1
34    20    21    ar
35    20    56    1
36    21    22    ar
37    21    57    1
38    22    23    1
39    22    24    ar
40    24    58    1
41    25    44    ar
42    25    26    ar
43    26    27    ar
44    26    59    1
45    27    28    ar
46    27    60    1
47    28    29    1
48    28    43    ar
49    29    42    1
50    29    30    1
51    30    31    1
52    30    61    1
53    30    62    1
54    31    32    1
55    31    63    1
56    31    64    1
57    32    33    am
58    32    41    1
59    33    34    2
60    33    35    1
61    35    40    1
62    35    36    2
63    36    37    1
64    36    65    1
65    37    38    2
66    37    66    1
67    38    39    1
68    38    40    1
69    41    42    1
70    41    67    1
71    41    68    1
72    42    69    1
73    42    70    1
74    43    44    ar
75    43    71    1
76    44    72    1
77    45    46    ar
78    45    73    1
79    46    74    1
@<TRIPOS>SUBSTRUCTURE
1   ZINC000029238439 1     RESIDUE    1   A     ZIN   1
