@<TRIPOS>MOLECULE
ZINC000003781460
  53   55    0    0    0
SMALL
USER_CHARGES
NO_NAME
@<TRIPOS>ATOM
    1 C1        3.1627     0.2408     0.3156 C.3    1 <0>      -0.1600
    2 C2        2.1333    -0.8753     0.1269 C.3    1 <0>      -0.0800
    3 H3        2.6302    -1.8453     0.1129 H      1 <0>       0.1000
    4 C4        1.3508    -0.6602    -1.1855 C.3    1 <0>      -0.1800
    5 C5       -0.0718    -1.0981    -0.8537 C.2    1 <0>       0.3700
    6 O6       -0.8514    -1.7027    -1.5501 O.2    1 <0>      -0.4200
    7 C7       -0.2722    -0.5890     0.5698 C.3    1 <0>      -0.1700
    8 C8        1.0891    -0.8306     1.2583 C.3    1 <0>      -0.1100
    9 H9        1.0749    -1.7788     1.7957 H      1 <0>       0.1100
   10 C10       1.3984     0.2985     2.2072 C.2    1 <0>       0.5300
   11 O11       0.9162     1.3958     2.0218 O.2    1 <0>      -0.5400
   12 N12       2.2107     0.0889     3.2620 N.am   1 <0>      -0.7200
   13 C13       2.5113     1.1866     4.1846 C.3    1 <0>       0.1400
   14 H14       2.5655     2.1231     3.6296 H      1 <0>       0.1200
   15 C15       1.4079     1.2823     5.2401 C.3    1 <0>      -0.0700
   16 C16       0.1169     1.6950     4.5813 C.2    1 <0>       0.0400
   17 C17      -0.2655     2.9577     4.3115 C.2    1 <0>       0.0500
   18 N18      -1.4946     2.8802     3.7140 N.pl3  1 <0>      -0.5000
   19 C19      -1.8207     1.5719     3.6395 C.cat  1 <0>       0.3100
   20 N20      -0.8500     0.8687     4.1555 N.pl3  1 <0>      -0.4700
   21 H21      -0.8329    -0.0987     4.2251 H      1 <0>       0.4600
   22 C22       3.8326     0.9265     4.8612 C.2    1 <0>       0.5300
   23 O23       4.2324    -0.2108     4.9938 O.2    1 <0>      -0.5000
   24 N24       4.5698     1.9577     5.3188 N.am   1 <0>      -0.6000
   25 C25       4.1615     3.3743     5.3149 C.3    1 <0>       0.0900
   26 C26       4.9951     4.0304     6.4438 C.3    1 <0>      -0.1300
   27 C27       6.3472     3.2817     6.3079 C.3    1 <0>      -0.1300
   28 C28       5.9118     1.8556     5.9105 C.3    1 <0>       0.1200
   29 H29       6.6055     1.4475     5.1754 H      1 <0>       0.1100
   30 C30       5.8792     0.9711     7.1302 C.2    1 <0>       0.5100
   31 N31       7.0078     0.7502     7.8329 N.am   1 <0>      -0.8500
   32 O32       4.8372     0.4580     7.4794 O.2    1 <0>      -0.5300
   33 H33       3.6233     0.1477     1.2991 H      1 <0>       0.0600
   34 H34       3.9302     0.1610    -0.4542 H      1 <0>       0.0700
   35 H35       2.6678     1.2087     0.2363 H      1 <0>       0.0700
   36 H36       1.3687     0.3914    -1.4716 H      1 <0>       0.1100
   37 H37       1.7642    -1.2796    -1.9814 H      1 <0>       0.1000
   38 H38      -0.5134     0.4740     0.5638 H      1 <0>       0.1200
   39 H39      -1.0574    -1.1559     1.0701 H      1 <0>       0.0900
   40 H40       2.5963    -0.7887     3.4104 H      1 <0>       0.4200
   41 H41       1.2776     0.3116     5.7186 H      1 <0>       0.1100
   42 H42       1.6859     2.0227     5.9902 H      1 <0>       0.1300
   43 H43       0.2905     3.8585     4.5257 H      1 <0>       0.2200
   44 H44      -2.0312     3.6258     3.4024 H      1 <0>       0.4700
   45 H45      -2.7320     1.1733     3.2188 H      1 <0>       0.2600
   46 H46       4.3953     3.8338     4.3546 H      1 <0>       0.0800
   47 H47       3.0965     3.4627     5.5294 H      1 <0>       0.0800
   48 H48       5.1204     5.0986     6.2665 H      1 <0>       0.1000
   49 H49       4.5438     3.8481     7.4191 H      1 <0>       0.0800
   50 H50       6.9612     3.7327     5.5284 H      1 <0>       0.1000
   51 H51       6.8784     3.2691     7.2597 H      1 <0>       0.0900
   52 H52       7.8412     1.1606     7.5536 H      1 <0>       0.4000
   53 H53       6.9868     0.1809     8.6180 H      1 <0>       0.4100
@<TRIPOS>BOND
   1    1    2 1
   2    1   33 1
   3    1   34 1
   4    1   35 1
   5    2    3 1
   6    2    8 1
   7    2    4 1
   8    4    5 1
   9    4   36 1
  10    4   37 1
  11    5    6 2
  12    5    7 1
  13    7    8 1
  14    7   38 1
  15    7   39 1
  16    8    9 1
  17    8   10 1
  18   10   11 2
  19   10   12 am
  20   12   13 1
  21   12   40 1
  22   13   14 1
  23   13   15 1
  24   13   22 1
  25   15   16 1
  26   15   41 1
  27   15   42 1
  28   16   20 1
  29   16   17 2
  30   17   18 1
  31   17   43 1
  32   18   19 ar
  33   18   44 1
  34   19   20 ar
  35   19   45 1
  36   20   21 1
  37   22   23 2
  38   22   24 am
  39   24   28 1
  40   24   25 1
  41   25   26 1
  42   25   46 1
  43   25   47 1
  44   26   27 1
  45   26   48 1
  46   26   49 1
  47   27   28 1
  48   27   50 1
  49   27   51 1
  50   28   29 1
  51   28   30 1
  52   30   31 am
  53   30   32 2
  54   31   52 1
  55   31   53 1
