@<TRIPOS>MOLECULE
ZINC000003918145
76    81    1     0     0
SMALL
USER_CHARGES
@<TRIPOS>ATOM
1      C1     -0.0187    1.5258    0.0104 C.3      1 ZINC000003918145   -0.1800
2      C2      0.0021   -0.0041    0.0020 C.3      1 ZINC000003918145    0.1000
3      H3     -1.0205   -0.3814    0.0098 H        1 ZINC000003918145    0.1400
4      C4      0.7421   -0.5109    1.2415 C.3      1 ZINC000003918145   -0.0300
5      N5      0.8668   -1.9730    1.1737 N.4      1 ZINC000003918145   -0.5100
6      H6     -0.0524   -2.3877    1.1377 H        1 ZINC000003918145    0.4400
7      H7      1.3836   -2.2284    0.3456 H        1 ZINC000003918145    0.4300
8      C8      1.5773   -2.4597    2.3638 C.3      1 ZINC000003918145   -0.0400
9      C9      1.7071   -3.9825    2.2931 C.3      1 ZINC000003918145   -0.0400
10     N10     2.4176   -4.4691    3.4832 N.4      1 ZINC000003918145   -0.5100
11     H11     3.3368   -4.0545    3.5191 H        1 ZINC000003918145    0.4300
12     H12     1.9008   -4.2137    4.3113 H        1 ZINC000003918145    0.4400
13     C13     2.5423   -5.9312    3.4153 C.3      1 ZINC000003918145   -0.0300
14     C14     3.2823   -6.4381    4.6548 C.3      1 ZINC000003918145    0.1000
15     H15     2.6815   -6.2408    5.5426 H        1 ZINC000003918145    0.1400
16     C16     3.5222   -7.9436    4.5255 C.3      1 ZINC000003918145   -0.1800
17     N17     4.5687   -5.7469    4.7722 N.am     1 ZINC000003918145   -0.5800
18     C18     4.8165   -5.0221    5.8797 C.2      1 ZINC000003918145    0.5700
19     O19     3.9776   -4.9528    6.7574 O.2      1 ZINC000003918145   -0.4700
20     C20     6.0961   -4.3143    6.0337 C.ar     1 ZINC000003918145   -0.1700
21     C21     6.3928   -3.5565    7.1567 C.ar     1 ZINC000003918145    0.0500
22     C22     7.6167   -2.9047    7.2559 C.ar     1 ZINC000003918145   -0.0600
23     N23     7.9111   -2.1012    8.4636 N.pl3    1 ZINC000003918145    0.0200
24     O24     7.0856   -2.0172    9.3553 O.2      1 ZINC000003918145   -0.1300
25     O25     8.9787   -1.5241    8.5658 O.2      1 ZINC000003918145   -0.1300
26     C26     8.5538   -2.9880    6.2666 C.ar     1 ZINC000003918145    0.0500
27     C27     8.2926   -3.7464    5.1118 C.ar     1 ZINC000003918145   -0.0900
28     C28     9.2248   -3.8634    4.0663 C.ar     1 ZINC000003918145   -0.0100
29     C29     8.9251   -4.6118    2.9640 C.ar     1 ZINC000003918145   -0.1400
30     C30     7.7084   -5.2720    2.8409 C.ar     1 ZINC000003918145    0.0400
31     C31     6.7614   -5.1818    3.8505 C.ar     1 ZINC000003918145   -0.2000
32     C32     7.0541   -4.4118    4.9988 C.ar     1 ZINC000003918145    0.0400
33     C33     5.4616   -5.8645    3.7711 C.2      1 ZINC000003918145    0.5700
34     O34     5.1900   -6.5361    2.7944 O.2      1 ZINC000003918145   -0.4800
35     N35     0.6878   -0.4765   -1.2033 N.am     1 ZINC000003918145   -0.5800
36     C36     0.0105   -1.2490   -2.0739 C.2      1 ZINC000003918145    0.5700
37     O37    -1.1488   -1.5399   -1.8493 O.2      1 ZINC000003918145   -0.4700
38     C38     0.6648   -1.7423   -3.2947 C.ar     1 ZINC000003918145   -0.1700
39     C39     0.0054   -2.5403   -4.2176 C.ar     1 ZINC000003918145    0.0500
40     C40     0.6673   -2.9830   -5.3571 C.ar     1 ZINC000003918145   -0.0600
41     N41    -0.0566   -3.8341   -6.3279 N.pl3    1 ZINC000003918145    0.0200
42     O42    -1.2181   -4.1385   -6.1235 O.2      1 ZINC000003918145   -0.1300
43     O43     0.5092   -4.2302   -7.3312 O.2      1 ZINC000003918145   -0.1300
44     C44     1.9687   -2.6515   -5.6028 C.ar     1 ZINC000003918145    0.0500
45     C45     2.6731   -1.8440   -4.6924 C.ar     1 ZINC000003918145   -0.0900
46     C46     4.0133   -1.4749   -4.9005 C.ar     1 ZINC000003918145   -0.0100
47     C47     4.6554   -0.6886   -3.9871 C.ar     1 ZINC000003918145   -0.1400
48     C48     4.0159   -0.2342   -2.8400 C.ar     1 ZINC000003918145    0.0400
49     C49     2.6935   -0.5761   -2.5977 C.ar     1 ZINC000003918145   -0.2000
50     C50     2.0128   -1.3891   -3.5319 C.ar     1 ZINC000003918145    0.0400
51     C51     1.9703   -0.1178   -1.4023 C.2      1 ZINC000003918145    0.5700
52     O52     2.5348    0.5863   -0.5871 O.2      1 ZINC000003918145   -0.4800
53     H53     1.0039    1.9031    0.0027 H        1 ZINC000003918145    0.0900
54     H54    -0.5459    1.8868   -0.8726 H        1 ZINC000003918145    0.0900
55     H55    -0.5289    1.8773    0.9072 H        1 ZINC000003918145    0.0900
56     H56     1.7350   -0.0630    1.2804 H        1 ZINC000003918145    0.1600
57     H57     0.1838   -0.2350    2.1361 H        1 ZINC000003918145    0.1600
58     H58     2.5702   -2.0117    2.4026 H        1 ZINC000003918145    0.1600
59     H59     1.0190   -2.1838    3.2584 H        1 ZINC000003918145    0.1600
60     H60     0.7142   -4.4304    2.2542 H        1 ZINC000003918145    0.1600
61     H61     2.2654   -4.2584    1.3985 H        1 ZINC000003918145    0.1600
62     H62     1.5494   -6.3792    3.3765 H        1 ZINC000003918145    0.1600
63     H63     3.1006   -6.2071    2.5207 H        1 ZINC000003918145    0.1600
64     H64     4.0494   -8.3047    5.4086 H        1 ZINC000003918145    0.0900
65     H65     2.5651   -8.4578    4.4382 H        1 ZINC000003918145    0.0900
66     H66     4.1230   -8.1409    3.6377 H        1 ZINC000003918145    0.0900
67     H67     5.6713   -3.4723    7.9559 H        1 ZINC000003918145    0.1800
68     H68     9.4962   -2.4709    6.3710 H        1 ZINC000003918145    0.1800
69     H69    10.1783   -3.3610    4.1346 H        1 ZINC000003918145    0.1600
70     H70     9.6511   -4.6922    2.1685 H        1 ZINC000003918145    0.1600
71     H71     7.4996   -5.8563    1.9569 H        1 ZINC000003918145    0.1600
72     H72    -1.0246   -2.8188   -4.0505 H        1 ZINC000003918145    0.1800
73     H73     2.4575   -3.0099   -6.4966 H        1 ZINC000003918145    0.1800
74     H74     4.5356   -1.8137   -5.7830 H        1 ZINC000003918145    0.1600
75     H75     5.6853   -0.4135   -4.1602 H        1 ZINC000003918145    0.1600
76     H76     4.5498    0.3861   -2.1354 H        1 ZINC000003918145    0.1600
@<TRIPOS>BOND
1     1     2     1
2     1     53    1
3     1     54    1
4     1     55    1
5     2     3     1
6     2     4     1
7     2     35    1
8     4     5     1
9     4     56    1
10    4     57    1
11    5     6     1
12    5     7     1
13    5     8     1
14    8     9     1
15    8     58    1
16    8     59    1
17    9     10    1
18    9     60    1
19    9     61    1
20    10    11    1
21    10    12    1
22    10    13    1
23    13    14    1
24    13    62    1
25    13    63    1
26    14    15    1
27    14    16    1
28    14    17    1
29    16    64    1
30    16    65    1
31    16    66    1
32    17    33    am
33    17    18    am
34    18    19    2
35    18    20    1
36    20    32    ar
37    20    21    ar
38    21    22    ar
39    21    67    1
40    22    23    1
41    22    26    ar
42    23    24    2
43    23    25    2
44    26    27    ar
45    26    68    1
46    27    32    ar
47    27    28    ar
48    28    29    ar
49    28    69    1
50    29    30    ar
51    29    70    1
52    30    31    ar
53    30    71    1
54    31    32    ar
55    31    33    1
56    33    34    2
57    35    51    am
58    35    36    am
59    36    37    2
60    36    38    1
61    38    50    ar
62    38    39    ar
63    39    40    ar
64    39    72    1
65    40    41    1
66    40    44    ar
67    41    42    2
68    41    43    2
69    44    45    ar
70    44    73    1
71    45    50    ar
72    45    46    ar
73    46    47    ar
74    46    74    1
75    47    48    ar
76    47    75    1
77    48    49    ar
78    48    76    1
79    49    50    ar
80    49    51    1
81    51    52    2
@<TRIPOS>SUBSTRUCTURE
1   ZINC000003918145 1     RESIDUE    1   A     ZIN   1
