@<TRIPOS>MOLECULE
ZINC000043202993
51    53    1     0     0
SMALL
USER_CHARGES
@<TRIPOS>ATOM
1      N1     -0.9883    1.7129   -0.6887 N.am     1 ZINC000043202993   -0.8500
2      C2     -0.8631    0.3859   -0.4887 C.2      1 ZINC000043202993    0.5200
3      O3      0.1587   -0.1822   -0.8112 O.2      1 ZINC000043202993   -0.5200
4      C4     -1.9928   -0.3918    0.1357 C.3      1 ZINC000043202993    0.1300
5      H5     -2.3870    0.1612    0.9883 H        1 ZINC000043202993    0.1300
6      C6     -3.1030   -0.5965   -0.8969 C.3      1 ZINC000043202993   -0.1600
7      C7     -4.2506   -1.3849   -0.2625 C.3      1 ZINC000043202993   -0.1800
8      C8     -5.4180   -1.4683   -1.2479 C.3      1 ZINC000043202993    0.4500
9      F9     -5.0269   -2.2020   -2.3731 F        1 ZINC000043202993   -0.1700
10     F10    -6.5033   -2.1013   -0.6326 F        1 ZINC000043202993   -0.1800
11     F11    -5.7912   -0.1780   -1.6392 F        1 ZINC000043202993   -0.1800
12     N12    -1.4981   -1.6953    0.5857 N.am     1 ZINC000043202993   -0.9800
13     C13    -0.8362   -2.5947   -0.3625 C.3      1 ZINC000043202993    0.1700
14     C14    -1.6465   -3.8570   -0.5070 C.ar     1 ZINC000043202993   -0.1600
15     C15    -1.3962   -4.9351    0.3217 C.ar     1 ZINC000043202993   -0.0800
16     C16    -2.1356   -6.0939    0.1943 C.ar     1 ZINC000043202993   -0.1000
17     C17    -3.1363   -6.1773   -0.7713 C.ar     1 ZINC000043202993    0.0200
18     C18    -3.9341   -7.4211   -0.9114 C.2      1 ZINC000043202993    0.2000
19     N19    -3.8092   -8.5080   -0.1954 N.2      1 ZINC000043202993   -0.3600
20     O20    -4.6108   -9.3419   -0.5603 O.3      1 ZINC000043202993    0.0900
21     C21    -5.3447   -8.8609   -1.5687 C.2      1 ZINC000043202993    0.1700
22     N22    -4.9299   -7.6402   -1.7995 N.2      1 ZINC000043202993   -0.4800
23     C23    -3.3862   -5.0892   -1.6048 C.ar     1 ZINC000043202993   -0.1200
24     C24    -2.6439   -3.9314   -1.4659 C.ar     1 ZINC000043202993    0.1200
25     F25    -2.8843   -2.8749   -2.2729 F        1 ZINC000043202993   -0.1200
26     S26    -1.6871   -2.1520    2.1662 S.o2     1 ZINC000043202993    2.6900
27     O27    -0.8682   -3.2982    2.3533 O.2      1 ZINC000043202993   -0.9400
28     O28    -1.5583   -0.9696    2.9437 O.2      1 ZINC000043202993   -0.9400
29     C29    -3.3528   -2.6940    2.3569 C.ar     1 ZINC000043202993   -0.6800
30     C30    -4.3375   -1.7899    2.7090 C.ar     1 ZINC000043202993   -0.0100
31     C31    -5.6443   -2.2144    2.8587 C.ar     1 ZINC000043202993   -0.1300
32     C32    -5.9667   -3.5445    2.6562 C.ar     1 ZINC000043202993    0.0300
33     Cl33   -7.6080   -4.0783    2.8435 Cl       1 ZINC000043202993   -0.0500
34     C34    -4.9808   -4.4489    2.3038 C.ar     1 ZINC000043202993   -0.1300
35     C35    -3.6753   -4.0221    2.1489 C.ar     1 ZINC000043202993   -0.0100
36     H36    -0.2612    2.2135   -1.0906 H        1 ZINC000043202993    0.4100
37     H37    -1.8071    2.1666   -0.4344 H        1 ZINC000043202993    0.4000
38     H38    -3.4704    0.3733   -1.2325 H        1 ZINC000043202993    0.1000
39     H39    -2.7091   -1.1505   -1.7490 H        1 ZINC000043202993    0.1200
40     H40    -3.9089   -2.3906   -0.0180 H        1 ZINC000043202993    0.1100
41     H41    -4.5782   -0.8813    0.6470 H        1 ZINC000043202993    0.1100
42     H42    -0.7531   -2.1033   -1.3320 H        1 ZINC000043202993    0.1200
43     H43     0.1594   -2.8422    0.0058 H        1 ZINC000043202993    0.1000
44     H44    -0.6202   -4.8707    1.0700 H        1 ZINC000043202993    0.1800
45     H45    -1.9383   -6.9351    0.8423 H        1 ZINC000043202993    0.1500
46     H46    -6.1343   -9.3798   -2.0919 H        1 ZINC000043202993    0.2700
47     H47    -4.1606   -5.1489   -2.3552 H        1 ZINC000043202993    0.1500
48     H48    -4.0856   -0.7517    2.8675 H        1 ZINC000043202993    0.1500
49     H49    -6.4134   -1.5081    3.1342 H        1 ZINC000043202993    0.1500
50     H50    -5.2319   -5.4873    2.1458 H        1 ZINC000043202993    0.1400
51     H51    -2.9057   -4.7278    1.8734 H        1 ZINC000043202993    0.1500
@<TRIPOS>BOND
1     1     2     am
2     1     36    1
3     1     37    1
4     2     3     2
5     2     4     1
6     4     5     1
7     4     6     1
8     4     12    1
9     6     7     1
10    6     38    1
11    6     39    1
12    7     8     1
13    7     40    1
14    7     41    1
15    8     9     1
16    8     10    1
17    8     11    1
18    12    13    1
19    12    26    am
20    13    14    1
21    13    42    1
22    13    43    1
23    14    24    ar
24    14    15    ar
25    15    16    ar
26    15    44    1
27    16    17    ar
28    16    45    1
29    17    18    1
30    17    23    ar
31    18    22    1
32    18    19    2
33    19    20    1
34    20    21    1
35    21    22    2
36    21    46    1
37    23    24    ar
38    23    47    1
39    24    25    1
40    26    27    2
41    26    28    2
42    26    29    1
43    29    35    ar
44    29    30    ar
45    30    31    ar
46    30    48    1
47    31    32    ar
48    31    49    1
49    32    33    1
50    32    34    ar
51    34    35    ar
52    34    50    1
53    35    51    1
@<TRIPOS>SUBSTRUCTURE
1   ZINC000043202993 1     RESIDUE    1   A     ZIN   1
