@<TRIPOS>MOLECULE
ZINC000036520254
61    65    1     0     0
SMALL
USER_CHARGES
@<TRIPOS>ATOM
1      C1     -0.0184    1.5028    0.0103 C.3      1 ZINC000036520254   -0.0800
2      C2      0.0021   -0.0041    0.0020 C.2      1 ZINC000036520254    0.1000
3      N3      0.0080   -0.7629   -1.0641 N.2      1 ZINC000036520254   -0.2800
4      N4      0.0287   -2.1022   -0.6544 N.pl3    1 ZINC000036520254   -0.3300
5      C5      0.0412   -3.2232   -1.4956 C.ar     1 ZINC000036520254    0.1500
6      C6      0.7439   -4.3623   -1.1261 C.ar     1 ZINC000036520254   -0.1300
7      C7      0.7539   -5.4656   -1.9569 C.ar     1 ZINC000036520254   -0.1000
8      C8      0.0655   -5.4364   -3.1558 C.ar     1 ZINC000036520254   -0.1200
9      C9     -0.6349   -4.3032   -3.5267 C.ar     1 ZINC000036520254   -0.1000
10     C10    -0.6538   -3.1990   -2.6973 C.ar     1 ZINC000036520254   -0.1100
11     C11     0.0351   -2.1205    0.7064 C.2      1 ZINC000036520254    0.2700
12     N12     0.0553   -3.2532    1.5148 N.3      1 ZINC000036520254   -0.4700
13     C13    -1.0732   -4.1419    1.2045 C.3      1 ZINC000036520254    0.0400
14     C14    -0.9704   -5.4091    2.0567 C.3      1 ZINC000036520254    0.0500
15     N15    -0.9695   -5.0408    3.4794 N.3      1 ZINC000036520254   -0.5300
16     C16    -0.9481   -6.2364    4.3326 C.3      1 ZINC000036520254    0.0700
17     H17    -0.0642   -6.8416    4.1311 H        1 ZINC000036520254    0.0900
18     C18    -2.2426   -7.0683    4.1548 C.3      1 ZINC000036520254    0.0000
19     N19    -2.3827   -7.8235    5.4181 N.4      1 ZINC000036520254   -0.5000
20     H20    -3.3589   -7.9000    5.6615 H        1 ZINC000036520254    0.4400
21     H21    -1.9860   -8.7448    5.3087 H        1 ZINC000036520254    0.4400
22     C22    -1.6617   -7.0989    6.4806 C.3      1 ZINC000036520254    0.0100
23     H23    -0.8824   -7.7350    6.9002 H        1 ZINC000036520254    0.1700
24     C24    -2.6246   -6.6859    7.5638 C.2      1 ZINC000036520254    0.5200
25     O25    -3.8154   -6.6530    7.3363 O.2      1 ZINC000036520254   -0.5100
26     N26    -2.1624   -6.3532    8.7853 N.am     1 ZINC000036520254   -0.5900
27     C27    -3.0470   -5.9504    9.8766 C.3      1 ZINC000036520254    0.0900
28     C28    -2.4222   -6.3741   11.2349 C.3      1 ZINC000036520254   -0.0800
29     S29    -0.6561   -5.9630   10.9082 S.3      1 ZINC000036520254   -0.2200
30     C30    -0.7309   -6.3743    9.1212 C.3      1 ZINC000036520254    0.1200
31     C31    -1.0266   -5.8498    5.8330 C.3      1 ZINC000036520254   -0.1300
32     C32     0.1590   -4.1521    3.7896 C.3      1 ZINC000036520254    0.0600
33     C33     0.0563   -2.8849    2.9375 C.3      1 ZINC000036520254    0.0600
34     C34     0.0240   -0.8269    1.1318 C.2      1 ZINC000036520254   -0.2900
35     H35     1.0042    1.8801    0.0026 H        1 ZINC000036520254    0.0800
36     H36    -0.5455    1.8639   -0.8728 H        1 ZINC000036520254    0.0800
37     H37    -0.5286    1.8543    0.9071 H        1 ZINC000036520254    0.0800
38     H38     1.2824   -4.3855   -0.1902 H        1 ZINC000036520254    0.1400
39     H39     1.3003   -6.3520   -1.6701 H        1 ZINC000036520254    0.1300
40     H40     0.0751   -6.3002   -3.8040 H        1 ZINC000036520254    0.1300
41     H41    -1.1714   -4.2832   -4.4639 H        1 ZINC000036520254    0.1300
42     H42    -1.2009   -2.3142   -2.9875 H        1 ZINC000036520254    0.1300
43     H43    -2.0101   -3.6304    1.4250 H        1 ZINC000036520254    0.0600
44     H44    -1.0448   -4.4105    0.1485 H        1 ZINC000036520254    0.1000
45     H45    -1.8221   -6.0569    1.8493 H        1 ZINC000036520254    0.0900
46     H46    -0.0463   -5.9348    1.8165 H        1 ZINC000036520254    0.0600
47     H47    -3.0994   -6.4105    4.0089 H        1 ZINC000036520254    0.1500
48     H48    -2.1411   -7.7529    3.3127 H        1 ZINC000036520254    0.1400
49     H49    -3.1771   -4.8684    9.8583 H        1 ZINC000036520254    0.1000
50     H50    -4.0163   -6.4342    9.7559 H        1 ZINC000036520254    0.1100
51     H51    -2.8219   -5.7813   12.0576 H        1 ZINC000036520254    0.1400
52     H52    -2.5541   -7.4407   11.4168 H        1 ZINC000036520254    0.1100
53     H53    -0.3095   -7.3635    8.9422 H        1 ZINC000036520254    0.1100
54     H54    -0.1987   -5.6235    8.5371 H        1 ZINC000036520254    0.1100
55     H55    -0.0308   -5.6698    6.2383 H        1 ZINC000036520254    0.1200
56     H56    -1.6642   -4.9769    5.9726 H        1 ZINC000036520254    0.1200
57     H57     0.1307   -3.8835    4.8456 H        1 ZINC000036520254    0.0900
58     H58     1.0960   -4.6636    3.5692 H        1 ZINC000036520254    0.0600
59     H59     0.9080   -2.2371    3.1449 H        1 ZINC000036520254    0.1000
60     H60    -0.8679   -2.3592    3.1776 H        1 ZINC000036520254    0.0700
61     H61     0.0256   -0.4956    2.1598 H        1 ZINC000036520254    0.1500
@<TRIPOS>BOND
1     1     2     1
2     1     35    1
3     1     36    1
4     1     37    1
5     2     34    1
6     2     3     2
7     3     4     1
8     4     5     1
9     4     11    1
10    5     10    ar
11    5     6     ar
12    6     7     ar
13    6     38    1
14    7     8     ar
15    7     39    1
16    8     9     ar
17    8     40    1
18    9     10    ar
19    9     41    1
20    10    42    1
21    11    12    1
22    11    34    2
23    12    33    1
24    12    13    1
25    13    14    1
26    13    43    1
27    13    44    1
28    14    15    1
29    14    45    1
30    14    46    1
31    15    16    1
32    15    32    1
33    16    17    1
34    16    31    1
35    16    18    1
36    18    19    1
37    18    47    1
38    18    48    1
39    19    20    1
40    19    21    1
41    19    22    1
42    22    23    1
43    22    24    1
44    22    31    1
45    24    25    2
46    24    26    am
47    26    30    1
48    26    27    1
49    27    28    1
50    27    49    1
51    27    50    1
52    28    29    1
53    28    51    1
54    28    52    1
55    29    30    1
56    30    53    1
57    30    54    1
58    31    55    1
59    31    56    1
60    32    33    1
61    32    57    1
62    32    58    1
63    33    59    1
64    33    60    1
65    34    61    1
@<TRIPOS>SUBSTRUCTURE
1   ZINC000036520254 1     RESIDUE    1   A     ZIN   1
