@<TRIPOS>MOLECULE
ZINC000013755555
33    35    1     0     0
SMALL
USER_CHARGES
@<TRIPOS>ATOM
1      C1     -0.0187    1.5258    0.0104 C.3      1 ZINC000013755555   -0.1500
2      C2      0.0021   -0.0041    0.0020 C.3      1 ZINC000013755555   -0.1200
3      C3      0.7421   -0.5109    1.2415 C.3      1 ZINC000013755555    0.0500
4      O4      0.7614   -1.9398    1.2337 O.3      1 ZINC000013755555   -0.2600
5      C5      1.3844   -2.5532    2.2718 C.ar     1 ZINC000013755555    0.1600
6      C6      1.9609   -1.7990    3.2815 C.ar     1 ZINC000013755555   -0.2300
7      C7      2.5952   -2.4247    4.3375 C.ar     1 ZINC000013755555   -0.0800
8      C8      2.6601   -3.8066    4.3959 C.ar     1 ZINC000013755555   -0.1700
9      C9      2.0915   -4.5723    3.4002 C.ar     1 ZINC000013755555   -0.0300
10     C10     1.4424   -3.9525    2.3303 C.ar     1 ZINC000013755555   -0.0500
11     C11     0.8313   -4.7658    1.2615 C.2      1 ZINC000013755555    0.4100
12     N12     0.2305   -4.1592    0.2619 N.2      1 ZINC000013755555   -0.5900
13     C13    -0.3369   -4.8543   -0.7291 C.2      1 ZINC000013755555    0.2900
14     C14    -0.2945   -6.2535   -0.7089 C.2      1 ZINC000013755555   -0.1800
15     N15    -0.9369   -6.6909   -1.8171 N.2      1 ZINC000013755555   -0.4400
16     C16    -1.3618   -5.6683   -2.5014 C.2      1 ZINC000013755555    0.1600
17     N17    -1.0146   -4.5118   -1.8684 N.pl3    1 ZINC000013755555   -0.5900
18     C18     0.3556   -6.8970    0.3731 C.2      1 ZINC000013755555    0.5400
19     O19     0.4168   -8.1131    0.4313 O.2      1 ZINC000013755555   -0.5900
20     N20     0.9110   -6.1283    1.3361 N.pl3    1 ZINC000013755555   -0.6700
21     H21     1.0039    1.9031    0.0027 H        1 ZINC000013755555    0.0500
22     H22    -0.5459    1.8868   -0.8726 H        1 ZINC000013755555    0.0600
23     H23    -0.5289    1.8773    0.9072 H        1 ZINC000013755555    0.0500
24     H24    -1.0205   -0.3814    0.0098 H        1 ZINC000013755555    0.0700
25     H25     0.5123   -0.3556   -0.8948 H        1 ZINC000013755555    0.0700
26     H26     1.7647   -0.1336    1.2338 H        1 ZINC000013755555    0.0500
27     H27     0.2319   -0.1594    2.1383 H        1 ZINC000013755555    0.0500
28     H28     1.9146   -0.7207    3.2427 H        1 ZINC000013755555    0.1200
29     H29     3.0432   -1.8326    5.1217 H        1 ZINC000013755555    0.1200
30     H30     3.1586   -4.2868    5.2249 H        1 ZINC000013755555    0.1200
31     H31     2.1444   -5.6498    3.4497 H        1 ZINC000013755555    0.1500
32     H32    -1.9071   -5.7271   -3.4317 H        1 ZINC000013755555    0.2000
33     H33    -1.2121   -3.6112   -2.1697 H        1 ZINC000013755555    0.4100
@<TRIPOS>BOND
1     1     2     1
2     1     21    1
3     1     22    1
4     1     23    1
5     2     3     1
6     2     24    1
7     2     25    1
8     3     4     1
9     3     26    1
10    3     27    1
11    4     5     1
12    5     10    ar
13    5     6     ar
14    6     7     ar
15    6     28    1
16    7     8     ar
17    7     29    1
18    8     9     ar
19    8     30    1
20    9     10    ar
21    9     31    1
22    10    11    1
23    11    20    1
24    11    12    2
25    12    13    1
26    13    17    1
27    13    14    2
28    14    15    1
29    14    18    1
30    15    16    2
31    16    17    1
32    16    32    1
33    17    33    1
34    18    19    2
35    18    20    1
@<TRIPOS>SUBSTRUCTURE
1   ZINC000013755555 1     RESIDUE    1   A     ZIN   1
