@<TRIPOS>MOLECULE
ZINC000028257314
106   110   1     0     0
SMALL
USER_CHARGES
@<TRIPOS>ATOM
1      C1     -2.7218    5.2811    4.0726 C.3      1 ZINC000028257314   -0.1500
2      C2     -2.2621    3.8325    3.8966 C.3      1 ZINC000028257314   -0.1200
3      C3     -3.4793    2.9366    3.6585 C.3      1 ZINC000028257314   -0.1000
4      H4     -4.0506    3.3172    2.8118 H        1 ZINC000028257314    0.0800
5      C5     -4.3617    2.9322    4.9084 C.3      1 ZINC000028257314   -0.1500
6      C6     -3.0123    1.5107    3.3589 C.3      1 ZINC000028257314    0.1200
7      N7     -4.1689    0.6804    3.0140 N.am     1 ZINC000028257314   -0.7300
8      C8     -3.9972   -0.6214    2.7101 C.2      1 ZINC000028257314    0.5100
9      O9     -2.8853   -1.1054    2.7222 O.2      1 ZINC000028257314   -0.5200
10     C10    -5.1870   -1.4756    2.3552 C.3      1 ZINC000028257314   -0.1800
11     C11    -4.7200   -2.9014    2.0557 C.3      1 ZINC000028257314    0.1200
12     H12    -4.1487   -3.2821    2.9024 H        1 ZINC000028257314    0.1300
13     O13    -3.8959   -2.8974    0.8882 O.3      1 ZINC000028257314   -0.5300
14     C14    -5.9372   -3.7974    1.8176 C.3      1 ZINC000028257314    0.1100
15     H15    -6.5658   -3.8005    2.7081 H        1 ZINC000028257314    0.1100
16     C16    -5.4702   -5.2232    1.5180 C.3      1 ZINC000028257314   -0.1200
17     C17    -4.7987   -5.8116    2.7605 C.3      1 ZINC000028257314   -0.1000
18     C18    -5.8343   -5.9627    3.8766 C.3      1 ZINC000028257314   -0.1500
19     C19    -4.2106   -7.1827    2.4215 C.3      1 ZINC000028257314   -0.1500
20     N20    -6.7050   -3.2858    0.6796 N.am     1 ZINC000028257314   -0.7200
21     C21    -8.0319   -3.5103    0.6064 C.2      1 ZINC000028257314    0.5100
22     O22    -8.6062   -4.0556    1.5250 O.2      1 ZINC000028257314   -0.5000
23     C23    -8.8019   -3.0839   -0.6168 C.3      1 ZINC000028257314    0.1300
24     H24    -8.5567   -2.0497   -0.8583 H        1 ZINC000028257314    0.1200
25     C25    -8.4274   -3.9852   -1.7951 C.3      1 ZINC000028257314   -0.0700
26     C26    -9.1026   -3.4838   -3.0456 C.2      1 ZINC000028257314    0.0500
27     C27   -10.3567   -3.7764   -3.4395 C.2      1 ZINC000028257314    0.0300
28     N28   -10.5651   -3.1162   -4.6203 N.pl3    1 ZINC000028257314   -0.5000
29     C29    -9.4303   -2.4427   -4.9071 C.cat    1 ZINC000028257314    0.3100
30     N30    -8.5618   -2.6632   -3.9584 N.pl3    1 ZINC000028257314   -0.4700
31     H31    -7.6647   -2.2960   -3.9219 H        1 ZINC000028257314    0.4600
32     N32   -10.2386   -3.1965   -0.3533 N.am     1 ZINC000028257314   -0.7100
33     C33   -11.1022   -2.3552   -0.9557 C.2      1 ZINC000028257314    0.5300
34     O34   -10.7014   -1.5664   -1.7853 O.2      1 ZINC000028257314   -0.5500
35     C35   -12.5657   -2.3946   -0.5986 C.3      1 ZINC000028257314   -0.1000
36     C36   -13.3043   -1.2860   -1.3512 C.3      1 ZINC000028257314   -0.0600
37     C37   -14.7424   -1.2461   -0.9022 C.ar     1 ZINC000028257314   -0.0800
38     C38   -15.1049   -0.5161    0.2422 C.ar     1 ZINC000028257314   -0.0400
39     C39   -14.1478    0.1896    0.9913 C.ar     1 ZINC000028257314   -0.1200
40     C40   -14.5359    0.8862    2.0941 C.ar     1 ZINC000028257314   -0.1100
41     C41   -15.8708    0.9109    2.4944 C.ar     1 ZINC000028257314   -0.1100
42     C42   -16.8249    0.2393    1.7941 C.ar     1 ZINC000028257314   -0.1000
43     C43   -16.4625   -0.4905    0.6490 C.ar     1 ZINC000028257314   -0.0500
44     C44   -17.4194   -1.1959   -0.0999 C.ar     1 ZINC000028257314   -0.1000
45     C45   -17.0314   -1.8916   -1.2038 C.ar     1 ZINC000028257314   -0.1200
46     C46   -15.6977   -1.9126   -1.6066 C.ar     1 ZINC000028257314   -0.1100
47     C47   -13.1498   -3.7534   -0.9901 C.3      1 ZINC000028257314   -0.0800
48     C48   -12.5473   -4.8281   -0.1223 C.ar     1 ZINC000028257314   -0.0900
49     C49   -12.9678   -4.9782    1.2099 C.ar     1 ZINC000028257314   -0.0400
50     C50   -13.9511   -4.1406    1.7638 C.ar     1 ZINC000028257314   -0.1100
51     C51   -14.3337   -4.3158    3.0580 C.ar     1 ZINC000028257314   -0.1000
52     C52   -13.7646   -5.3150    3.8457 C.ar     1 ZINC000028257314   -0.1100
53     C53   -12.8097   -6.1445    3.3436 C.ar     1 ZINC000028257314   -0.1000
54     C54   -12.3894   -5.9947    2.0108 C.ar     1 ZINC000028257314   -0.0400
55     C55   -11.4065   -6.8322    1.4571 C.ar     1 ZINC000028257314   -0.0800
56     C56   -11.0247   -6.6578    0.1622 C.ar     1 ZINC000028257314   -0.1200
57     C57   -11.5969   -5.6619   -0.6266 C.ar     1 ZINC000028257314   -0.1200
58     H58    -1.8546    5.9194    4.2422 H        1 ZINC000028257314    0.0600
59     H59    -3.2436    5.6086    3.1734 H        1 ZINC000028257314    0.0500
60     H60    -3.3946    5.3475    4.9276 H        1 ZINC000028257314    0.0600
61     H61    -1.5893    3.7661    3.0416 H        1 ZINC000028257314    0.0700
62     H62    -1.7403    3.5051    4.7958 H        1 ZINC000028257314    0.0700
63     H63    -5.2288    2.2940    4.7388 H        1 ZINC000028257314    0.0500
64     H64    -3.7904    2.5516    5.7551 H        1 ZINC000028257314    0.0600
65     H65    -4.6944    3.9480    5.1219 H        1 ZINC000028257314    0.0600
66     H66    -2.3133    1.5255    2.5227 H        1 ZINC000028257314    0.0700
67     H67    -2.5180    1.0980    4.2384 H        1 ZINC000028257314    0.0700
68     H68    -5.0583    1.0675    3.0043 H        1 ZINC000028257314    0.4000
69     H69    -5.8860   -1.4904    3.1915 H        1 ZINC000028257314    0.1000
70     H70    -5.6813   -1.0628    1.4758 H        1 ZINC000028257314    0.0900
71     H71    -4.3403   -2.5699    0.0943 H        1 ZINC000028257314    0.3600
72     H72    -6.3285   -5.8366    1.2440 H        1 ZINC000028257314    0.0700
73     H73    -4.7575   -5.2064    0.6935 H        1 ZINC000028257314    0.0800
74     H74    -4.0015   -5.1463    3.0922 H        1 ZINC000028257314    0.0800
75     H75    -6.6789   -6.5473    3.5119 H        1 ZINC000028257314    0.0600
76     H76    -5.3804   -6.4715    4.7270 H        1 ZINC000028257314    0.0600
77     H77    -6.1814   -4.9768    4.1861 H        1 ZINC000028257314    0.0500
78     H78    -3.4728   -7.0751    1.6263 H        1 ZINC000028257314    0.0600
79     H79    -3.7322   -7.6019    3.3066 H        1 ZINC000028257314    0.0600
80     H80    -5.0078   -7.8480    2.0898 H        1 ZINC000028257314    0.0500
81     H81    -6.2584   -2.7854   -0.0211 H        1 ZINC000028257314    0.3900
82     H82    -7.3465   -3.9702   -1.9348 H        1 ZINC000028257314    0.1100
83     H83    -8.7531   -5.0051   -1.5903 H        1 ZINC000028257314    0.1200
84     H84   -11.0622   -4.4104   -2.9231 H        1 ZINC000028257314    0.2100
85     H85   -11.3764   -3.1297   -5.1518 H        1 ZINC000028257314    0.4700
86     H86    -9.2696   -1.8212   -5.7756 H        1 ZINC000028257314    0.2700
87     H87   -10.5683   -3.8765    0.2548 H        1 ZINC000028257314    0.4200
88     H88   -12.6819   -2.2448    0.4748 H        1 ZINC000028257314    0.1100
89     H89   -12.8314   -0.3267   -1.1410 H        1 ZINC000028257314    0.0900
90     H90   -13.2634   -1.4843   -2.4222 H        1 ZINC000028257314    0.0800
91     H91   -13.1097    0.1790    0.6935 H        1 ZINC000028257314    0.1200
92     H92   -13.7984    1.4277    2.6680 H        1 ZINC000028257314    0.1200
93     H93   -16.1520    1.4713    3.3738 H        1 ZINC000028257314    0.1300
94     H94   -17.8553    0.2670    2.1166 H        1 ZINC000028257314    0.1300
95     H95   -18.4572   -1.1865    0.1988 H        1 ZINC000028257314    0.1300
96     H96   -17.7689   -2.4333   -1.7775 H        1 ZINC000028257314    0.1300
97     H97   -15.4166   -2.4722   -2.4865 H        1 ZINC000028257314    0.1200
98     H98   -14.2308   -3.7378   -0.8513 H        1 ZINC000028257314    0.1000
99     H99   -12.9207   -3.9598   -2.0356 H        1 ZINC000028257314    0.0700
100    H100  -14.4003   -3.3616    1.1656 H        1 ZINC000028257314    0.1300
101    H101  -15.0895   -3.6707    3.4811 H        1 ZINC000028257314    0.1200
102    H102  -14.0861   -5.4324    4.8700 H        1 ZINC000028257314    0.1300
103    H103  -12.3771   -6.9138    3.9660 H        1 ZINC000028257314    0.1300
104    H104  -10.9561   -7.6101    2.0558 H        1 ZINC000028257314    0.1300
105    H105  -10.2687   -7.3028   -0.2609 H        1 ZINC000028257314    0.1200
106    H106  -11.2761   -5.5450   -1.6512 H        1 ZINC000028257314    0.1100
@<TRIPOS>BOND
1     1     2     1
2     1     58    1
3     1     59    1
4     1     60    1
5     2     3     1
6     2     61    1
7     2     62    1
8     3     4     1
9     3     5     1
10    3     6     1
11    5     63    1
12    5     64    1
13    5     65    1
14    6     7     1
15    6     66    1
16    6     67    1
17    7     8     am
18    7     68    1
19    8     9     2
20    8     10    1
21    10    11    1
22    10    69    1
23    10    70    1
24    11    12    1
25    11    13    1
26    11    14    1
27    13    71    1
28    14    15    1
29    14    16    1
30    14    20    1
31    16    17    1
32    16    72    1
33    16    73    1
34    17    18    1
35    17    19    1
36    17    74    1
37    18    75    1
38    18    76    1
39    18    77    1
40    19    78    1
41    19    79    1
42    19    80    1
43    20    21    am
44    20    81    1
45    21    22    2
46    21    23    1
47    23    24    1
48    23    25    1
49    23    32    1
50    25    26    1
51    25    82    1
52    25    83    1
53    26    30    1
54    26    27    2
55    27    28    1
56    27    84    1
57    28    29    ar
58    28    85    1
59    29    30    ar
60    29    86    1
61    30    31    1
62    32    33    am
63    32    87    1
64    33    34    2
65    33    35    1
66    35    36    1
67    35    47    1
68    35    88    1
69    36    37    1
70    36    89    1
71    36    90    1
72    37    46    ar
73    37    38    ar
74    38    43    ar
75    38    39    ar
76    39    40    ar
77    39    91    1
78    40    41    ar
79    40    92    1
80    41    42    ar
81    41    93    1
82    42    43    ar
83    42    94    1
84    43    44    ar
85    44    45    ar
86    44    95    1
87    45    46    ar
88    45    96    1
89    46    97    1
90    47    48    1
91    47    98    1
92    47    99    1
93    48    57    ar
94    48    49    ar
95    49    54    ar
96    49    50    ar
97    50    51    ar
98    50    100   1
99    51    52    ar
100   51    101   1
101   52    53    ar
102   52    102   1
103   53    54    ar
104   53    103   1
105   54    55    ar
106   55    56    ar
107   55    104   1
108   56    57    ar
109   56    105   1
110   57    106   1
@<TRIPOS>SUBSTRUCTURE
1   ZINC000028257314 1     RESIDUE    1   A     ZIN   1
