@<TRIPOS>MOLECULE
ZINC000003960633
  29   31    0    0    0
SMALL
USER_CHARGES
NO_NAME
@<TRIPOS>ATOM
    1 C1       -0.0178     1.4648     0.0101 C.3    1 <0>      -0.0500
    2 N2        0.0021    -0.0041     0.0020 N.4    1 <0>      -0.5000
    3 H3       -0.9445    -0.3533     0.0092 H      1 <0>       0.4400
    4 H4        0.4744    -0.3295    -0.8281 H      1 <0>       0.4300
    5 C5        0.7126    -0.4907     1.1921 C.3    1 <0>       0.0100
    6 H6        0.2481    -0.0615     2.0799 H      1 <0>       0.1500
    7 C7        2.1720    -0.0277     1.1226 C.3    1 <0>      -0.0900
    8 C8        2.9317    -0.5724     2.2958 C.ar   1 <0>      -0.0800
    9 C9        4.0333    -0.0205     2.9026 C.ar   1 <0>      -0.0900
   10 C10       4.6282    -0.6554     3.9866 C.ar   1 <0>      -0.1000
   11 C11       4.1666    -1.8555     4.5169 C.ar   1 <0>      -0.0900
   12 C12       3.0523    -2.4251     3.9141 C.ar   1 <0>       0.1200
   13 C13       2.4738    -1.7686     2.8308 C.ar   1 <0>       0.0500
   14 N14       1.3803    -2.5023     2.3907 N.am   1 <0>      -0.5400
   15 C15       0.5873    -2.0187     1.2553 C.3    1 <0>       0.1300
   16 C16       1.2953    -3.5789     3.1756 C.2    1 <0>       0.6900
   17 O17       0.4522    -4.4507     3.0755 O.2    1 <0>      -0.5400
   18 N18       2.2914    -3.5583     4.1047 N.am   1 <0>      -0.6400
   19 H19       1.0047     1.8421     0.0024 H      1 <0>       0.1300
   20 H20      -0.5450     1.8259    -0.8730 H      1 <0>       0.1300
   21 H21      -0.5280     1.8163     0.9069 H      1 <0>       0.1300
   22 H22       2.6235    -0.3893     0.1987 H      1 <0>       0.1100
   23 H23       2.2082     1.0615     1.1412 H      1 <0>       0.1100
   24 H24       4.4394     0.9105     2.5356 H      1 <0>       0.1400
   25 H25       5.4929    -0.1936     4.4399 H      1 <0>       0.1400
   26 H26       4.6532    -2.3238     5.3597 H      1 <0>       0.1500
   27 H27      -0.4583    -2.2932     1.3945 H      1 <0>       0.1200
   28 H28       0.9629    -2.4587     0.3314 H      1 <0>       0.1000
   29 H29       2.4403    -4.2304     4.7881 H      1 <0>       0.4400
@<TRIPOS>BOND
   1    1    2 1
   2    1   19 1
   3    1   20 1
   4    1   21 1
   5    2    3 1
   6    2    4 1
   7    2    5 1
   8    5    6 1
   9    5   15 1
  10    5    7 1
  11    7    8 1
  12    7   22 1
  13    7   23 1
  14    8   13 ar
  15    8    9 ar
  16    9   10 ar
  17    9   24 1
  18   10   11 ar
  19   10   25 1
  20   11   12 ar
  21   11   26 1
  22   12   18 1
  23   12   13 ar
  24   13   14 1
  25   14   15 1
  26   14   16 am
  27   15   27 1
  28   15   28 1
  29   16   17 2
  30   16   18 am
  31   18   29 1
