@<TRIPOS>MOLECULE
ZINC000004422978
68    68    1     0     0
SMALL
USER_CHARGES
@<TRIPOS>ATOM
1      C1      0.5439    1.3616   -2.6072 C.3      1 ZINC000004422978   -0.1700
2      C2      0.6404   -0.1243   -2.3751 C.2      1 ZINC000004422978    0.5200
3      O3      1.3604   -0.8022   -3.0771 O.2      1 ZINC000004422978   -0.5400
4      N4     -0.0734   -0.6997   -1.3872 N.am     1 ZINC000004422978   -0.7100
5      C5     -0.0586   -2.1557   -1.2254 C.3      1 ZINC000004422978    0.1500
6      H6      0.0504   -2.6287   -2.2013 H        1 ZINC000004422978    0.1200
7      C7      1.0976   -2.5514   -0.3435 C.2      1 ZINC000004422978    0.5200
8      O8      1.6094   -1.7318    0.3894 O.2      1 ZINC000004422978   -0.4900
9      N9      1.5627   -3.8161   -0.3693 N.am     1 ZINC000004422978   -0.7200
10     C10     2.6867   -4.2008    0.4880 C.3      1 ZINC000004422978    0.1300
11     H11     3.3806   -3.3647    0.5759 H        1 ZINC000004422978    0.1300
12     C12     3.4098   -5.4039   -0.1251 C.3      1 ZINC000004422978    0.0900
13     H13     2.7041   -6.2235   -0.2600 H        1 ZINC000004422978    0.1100
14     O14     3.9712   -5.0296   -1.4109 O.3      1 ZINC000004422978   -0.3400
15     C15     4.0767   -5.9976   -2.3347 C.2      1 ZINC000004422978    0.4600
16     C16     4.6499   -5.6839   -3.6927 C.3      1 ZINC000004422978   -0.1500
17     O17     3.7121   -7.1205   -2.0776 O.2      1 ZINC000004422978   -0.4900
18     C18     4.5335   -5.8451    0.8178 C.3      1 ZINC000004422978    0.0500
19     H19     5.2650   -5.0427    0.9134 H        1 ZINC000004422978    0.1200
20     O20     5.1799   -7.0295    0.2814 O.3      1 ZINC000004422978   -0.3300
21     C21     6.4799   -7.1978    0.5702 C.2      1 ZINC000004422978    0.4500
22     C22     7.2177   -8.4037    0.0482 C.3      1 ZINC000004422978   -0.1500
23     O23     7.0586   -6.3825    1.2486 O.2      1 ZINC000004422978   -0.5000
24     C24     3.9400   -6.1628    2.1927 C.3      1 ZINC000004422978    0.0900
25     H25     3.2386   -6.9924    2.1030 H        1 ZINC000004422978    0.1000
26     C26     5.0639   -6.5470    3.1572 C.3      1 ZINC000004422978    0.0800
27     O27     4.4924   -6.9620    4.4258 O.3      1 ZINC000004422978   -0.3500
28     C28     5.3508   -7.3339    5.3884 C.2      1 ZINC000004422978    0.4600
29     C29     4.8308   -7.7771    6.7316 C.3      1 ZINC000004422978   -0.1500
30     O30     6.5404   -7.3132    5.1779 O.2      1 ZINC000004422978   -0.5100
31     O31     3.2557   -5.0120    2.6922 O.3      1 ZINC000004422978   -0.3600
32     C32     2.1647   -4.5805    1.8762 C.3      1 ZINC000004422978    0.2600
33     H33     1.4395   -5.3887    1.7818 H        1 ZINC000004422978    0.0800
34     O34     1.5283   -3.4280    2.4886 O.3      1 ZINC000004422978   -0.3200
35     C35     0.9246   -3.6222    3.6717 C.2      1 ZINC000004422978    0.4600
36     C36     0.2427   -2.4725    4.3674 C.3      1 ZINC000004422978   -0.1500
37     O37     0.9279   -4.7190    4.1787 O.2      1 ZINC000004422978   -0.4900
38     C38    -1.3700   -2.6106   -0.5818 C.3      1 ZINC000004422978   -0.0700
39     C39    -1.3629   -4.1332   -0.4311 C.3      1 ZINC000004422978   -0.1600
40     C40    -1.5134   -1.9623    0.7967 C.3      1 ZINC000004422978   -0.1500
41     S41    -2.7602   -2.1145   -1.6293 S.3      1 ZINC000004422978    0.1400
42     N42    -3.9477   -2.6736   -0.7863 N.2      1 ZINC000004422978   -0.3700
43     O43    -5.0923   -2.5316   -1.1776 O.2      1 ZINC000004422978    0.1100
44     H44    -0.2588    1.5674   -3.3153 H        1 ZINC000004422978    0.1000
45     H45     0.3332    1.8639   -1.6631 H        1 ZINC000004422978    0.0800
46     H46     1.4876    1.7283   -3.0112 H        1 ZINC000004422978    0.1000
47     H47    -0.5969   -0.1499   -0.7834 H        1 ZINC000004422978    0.4100
48     H48     1.1534   -4.4716   -0.9555 H        1 ZINC000004422978    0.4000
49     H49     4.9205   -4.6290   -3.7380 H        1 ZINC000004422978    0.0900
50     H50     5.5370   -6.2942   -3.8624 H        1 ZINC000004422978    0.1100
51     H51     3.9069   -5.9016   -4.4599 H        1 ZINC000004422978    0.1100
52     H52     7.6514   -8.1714   -0.9245 H        1 ZINC000004422978    0.1100
53     H53     8.0114   -8.6737    0.7447 H        1 ZINC000004422978    0.1100
54     H54     6.5240   -9.2383   -0.0533 H        1 ZINC000004422978    0.1000
55     H55     5.6418   -7.3681    2.7331 H        1 ZINC000004422978    0.0900
56     H56     5.7158   -5.6880    3.3161 H        1 ZINC000004422978    0.0900
57     H57     3.7418   -7.7297    6.7333 H        1 ZINC000004422978    0.0900
58     H58     5.1502   -8.8011    6.9250 H        1 ZINC000004422978    0.1100
59     H59     5.2242   -7.1210    7.5080 H        1 ZINC000004422978    0.1100
60     H60     0.3436   -1.5708    3.7633 H        1 ZINC000004422978    0.0900
61     H61    -0.8140   -2.7039    4.5012 H        1 ZINC000004422978    0.1100
62     H62     0.7055   -2.3110    5.3411 H        1 ZINC000004422978    0.1100
63     H63    -0.5257   -4.4319    0.1998 H        1 ZINC000004422978    0.0800
64     H64    -2.2971   -4.4572    0.0275 H        1 ZINC000004422978    0.0800
65     H65    -1.2608   -4.5950   -1.4131 H        1 ZINC000004422978    0.0800
66     H66    -1.4499   -0.8788    0.6970 H        1 ZINC000004422978    0.0700
67     H67    -2.4782   -2.2318    1.2264 H        1 ZINC000004422978    0.0800
68     H68    -0.7141   -2.3146    1.4488 H        1 ZINC000004422978    0.0900
@<TRIPOS>BOND
1     1     2     1
2     1     44    1
3     1     45    1
4     1     46    1
5     2     3     2
6     2     4     am
7     4     5     1
8     4     47    1
9     5     6     1
10    5     7     1
11    5     38    1
12    7     8     2
13    7     9     am
14    9     10    1
15    9     48    1
16    10    11    1
17    10    32    1
18    10    12    1
19    12    13    1
20    12    14    1
21    12    18    1
22    14    15    1
23    15    16    1
24    15    17    2
25    16    49    1
26    16    50    1
27    16    51    1
28    18    19    1
29    18    20    1
30    18    24    1
31    20    21    1
32    21    22    1
33    21    23    2
34    22    52    1
35    22    53    1
36    22    54    1
37    24    25    1
38    24    26    1
39    24    31    1
40    26    27    1
41    26    55    1
42    26    56    1
43    27    28    1
44    28    29    1
45    28    30    2
46    29    57    1
47    29    58    1
48    29    59    1
49    31    32    1
50    32    33    1
51    32    34    1
52    34    35    1
53    35    36    1
54    35    37    2
55    36    60    1
56    36    61    1
57    36    62    1
58    38    39    1
59    38    40    1
60    38    41    1
61    39    63    1
62    39    64    1
63    39    65    1
64    40    66    1
65    40    67    1
66    40    68    1
67    41    42    1
68    42    43    2
@<TRIPOS>SUBSTRUCTURE
1   ZINC000004422978 1     RESIDUE    1   A     ZIN   1
