@<TRIPOS>MOLECULE
ZINC000002586028
47    50    1     0     0
SMALL
USER_CHARGES
@<TRIPOS>ATOM
1      C1     -0.0178    1.4648    0.0101 C.3      1 ZINC000002586028    0.0200
2      N2      0.0021   -0.0041    0.0020 N.3      1 ZINC000002586028   -0.5400
3      C3     -1.3588   -0.5483   -0.0886 C.3      1 ZINC000002586028    0.0500
4      C4     -1.2921   -2.0696   -0.2410 C.3      1 ZINC000002586028   -0.1100
5      C5     -0.5626   -2.6671    0.9654 C.3      1 ZINC000002586028   -0.0400
6      H6     -1.1233   -2.4496    1.8745 H        1 ZINC000002586028    0.0800
7      C7     -0.4423   -4.1594    0.7928 C.ar     1 ZINC000002586028   -0.0900
8      C8      0.2396   -4.6763   -0.2929 C.ar     1 ZINC000002586028   -0.0800
9      C9      0.3506   -6.0446   -0.4522 C.ar     1 ZINC000002586028   -0.1500
10     C10    -0.2212   -6.8978    0.4763 C.ar     1 ZINC000002586028    0.1000
11     F11    -0.1130   -8.2355    0.3219 F        1 ZINC000002586028   -0.1400
12     C12    -0.9036   -6.3788    1.5636 C.ar     1 ZINC000002586028   -0.1500
13     C13    -1.0091   -5.0102    1.7234 C.ar     1 ZINC000002586028   -0.0900
14     C14     0.8343   -2.0480    1.0652 C.3      1 ZINC000002586028   -0.0700
15     H15     1.4080   -2.2985    0.1729 H        1 ZINC000002586028    0.1000
16     C16     1.5486   -2.5958    2.3024 C.3      1 ZINC000002586028    0.0600
17     O17     2.8916   -2.1085    2.3318 O.3      1 ZINC000002586028   -0.3000
18     C18     3.6692   -2.5042    3.3748 C.ar     1 ZINC000002586028    0.1500
19     C19     3.1503   -3.3481    4.3449 C.ar     1 ZINC000002586028   -0.2000
20     C20     3.9390   -3.7514    5.4065 C.ar     1 ZINC000002586028   -0.0600
21     C21     5.2494   -3.3140    5.5037 C.ar     1 ZINC000002586028   -0.0100
22     O22     6.2188   -3.5607    6.4339 O.3      1 ZINC000002586028   -0.3100
23     C23     7.4589   -3.1872    5.8046 C.3      1 ZINC000002586028    0.2100
24     O24     7.0692   -2.1824    4.8500 O.3      1 ZINC000002586028   -0.3100
25     C25     5.7729   -2.4665    4.5300 C.ar     1 ZINC000002586028    0.0700
26     C26     4.9827   -2.0681    3.4647 C.ar     1 ZINC000002586028   -0.1400
27     C27     0.7059   -0.5273    1.1798 C.3      1 ZINC000002586028    0.0600
28     H28     1.0047    1.8421    0.0024 H        1 ZINC000002586028    0.0700
29     H29    -0.5450    1.8259   -0.8730 H        1 ZINC000002586028    0.0700
30     H30    -0.5280    1.8163    0.9069 H        1 ZINC000002586028    0.0300
31     H31    -1.9111   -0.2980    0.8172 H        1 ZINC000002586028    0.0300
32     H32    -1.8650   -0.1186   -0.9529 H        1 ZINC000002586028    0.0800
33     H33    -2.3027   -2.4749   -0.2925 H        1 ZINC000002586028    0.0700
34     H34    -0.7518   -2.3205   -1.1539 H        1 ZINC000002586028    0.0800
35     H35     0.6856   -4.0107   -1.0171 H        1 ZINC000002586028    0.1300
36     H36     0.8828   -6.4483   -1.3009 H        1 ZINC000002586028    0.1400
37     H37    -1.3503   -7.0434    2.2884 H        1 ZINC000002586028    0.1400
38     H38    -1.5411   -4.6052    2.5716 H        1 ZINC000002586028    0.1300
39     H39     1.0236   -2.2685    3.1998 H        1 ZINC000002586028    0.0600
40     H40     1.5580   -3.6851    2.2639 H        1 ZINC000002586028    0.0700
41     H41     2.1287   -3.6906    4.2714 H        1 ZINC000002586028    0.1400
42     H42     3.5324   -4.4083    6.1613 H        1 ZINC000002586028    0.1400
43     H43     8.1503   -2.7715    6.5376 H        1 ZINC000002586028    0.1300
44     H44     7.9048   -4.0436    5.2988 H        1 ZINC000002586028    0.0900
45     H45     5.3884   -1.4158    2.7056 H        1 ZINC000002586028    0.1400
46     H46     1.6993   -0.0823    1.2367 H        1 ZINC000002586028    0.0900
47     H47     0.1439   -0.2771    2.0796 H        1 ZINC000002586028    0.0300
@<TRIPOS>BOND
1     1     2     1
2     1     28    1
3     1     29    1
4     1     30    1
5     2     27    1
6     2     3     1
7     3     4     1
8     3     31    1
9     3     32    1
10    4     5     1
11    4     33    1
12    4     34    1
13    5     6     1
14    5     7     1
15    5     14    1
16    7     13    ar
17    7     8     ar
18    8     9     ar
19    8     35    1
20    9     10    ar
21    9     36    1
22    10    11    1
23    10    12    ar
24    12    13    ar
25    12    37    1
26    13    38    1
27    14    15    1
28    14    16    1
29    14    27    1
30    16    17    1
31    16    39    1
32    16    40    1
33    17    18    1
34    18    26    ar
35    18    19    ar
36    19    20    ar
37    19    41    1
38    20    21    ar
39    20    42    1
40    21    25    ar
41    21    22    1
42    22    23    1
43    23    24    1
44    23    43    1
45    23    44    1
46    24    25    1
47    25    26    ar
48    26    45    1
49    27    46    1
50    27    47    1
@<TRIPOS>SUBSTRUCTURE
1   ZINC000002586028 1     RESIDUE    1   A     ZIN   1
