@<TRIPOS>MOLECULE
ZINC000049650290
65    68    1     0     0
SMALL
USER_CHARGES
@<TRIPOS>ATOM
1      C1      0.4501    0.5895    1.1417 C.3      1 ZINC000049650290    0.0300
2      O2     -0.0021    0.0014   -0.0796 O.3      1 ZINC000049650290   -0.3200
3      C3     -1.2041   -0.6334   -0.0511 C.ar     1 ZINC000049650290    0.1200
4      C4     -1.9344   -0.6833    1.1271 C.ar     1 ZINC000049650290   -0.2000
5      C5     -3.1554   -1.3282    1.1561 C.ar     1 ZINC000049650290   -0.0800
6      C6     -3.6511   -1.9264    0.0071 C.ar     1 ZINC000049650290    0.0800
7      O7     -4.8532   -2.5618    0.0357 O.3      1 ZINC000049650290   -0.3000
8      C8     -4.8379   -3.9042   -0.0701 C.2      1 ZINC000049650290    0.6600
9      O9     -3.7794   -4.5011   -0.0758 O.2      1 ZINC000049650290   -0.5800
10     N10    -5.9964   -4.5856   -0.1695 N.am     1 ZINC000049650290   -0.5500
11     C11    -7.2724   -3.8660   -0.1626 C.3      1 ZINC000049650290    0.0400
12     C12    -7.6544   -3.5071   -1.5755 C.2      1 ZINC000049650290    0.4800
13     O13    -6.9281   -3.8231   -2.5024 O.co2    1 ZINC000049650290   -0.6800
14     O14    -8.6898   -2.9007   -1.7917 O.co2    1 ZINC000049650290   -0.7000
15     C15    -5.9796   -6.0460   -0.2846 C.3      1 ZINC000049650290    0.1800
16     C16    -6.0294   -6.6589    1.0913 C.ar     1 ZINC000049650290   -0.1400
17     C17    -4.8553   -6.9244    1.7714 C.ar     1 ZINC000049650290   -0.0500
18     C18    -4.8983   -7.4862    3.0328 C.ar     1 ZINC000049650290   -0.1600
19     C19    -6.1209   -7.7836    3.6171 C.ar     1 ZINC000049650290    0.1300
20     O20    -6.1658   -8.3359    4.8580 O.3      1 ZINC000049650290   -0.3200
21     C21    -7.4593   -8.6155    5.3972 C.3      1 ZINC000049650290    0.0700
22     C22    -7.3091   -9.2294    6.7906 C.3      1 ZINC000049650290   -0.0300
23     C23    -8.6732   -9.5243    7.3592 C.2      1 ZINC000049650290   -0.0100
24     C24    -9.4236   -8.6839    8.0948 C.2      1 ZINC000049650290   -0.0300
25     C25    -9.0557   -7.2800    8.5006 C.3      1 ZINC000049650290   -0.0700
26     O26   -10.5655   -9.3310    8.4011 O.3      1 ZINC000049650290   -0.1900
27     C27   -10.5010  -10.5560    7.8513 C.2      1 ZINC000049650290    0.2300
28     C28   -11.5454  -11.5984    7.9407 C.ar     1 ZINC000049650290   -0.0200
29     C29   -11.3537  -12.8371    7.3270 C.ar     1 ZINC000049650290   -0.0700
30     C30   -12.3322  -13.8057    7.4147 C.ar     1 ZINC000049650290   -0.1200
31     C31   -13.5014  -13.5513    8.1091 C.ar     1 ZINC000049650290   -0.1000
32     C32   -13.6978  -12.3254    8.7198 C.ar     1 ZINC000049650290   -0.1200
33     C33   -12.7250  -11.3500    8.6442 C.ar     1 ZINC000049650290   -0.0900
34     N34    -9.3577  -10.6693    7.2172 N.2      1 ZINC000049650290   -0.4600
35     C35    -7.2975   -7.5159    2.9327 C.ar     1 ZINC000049650290   -0.2100
36     C36    -7.2493   -6.9496    1.6736 C.ar     1 ZINC000049650290   -0.0600
37     C37    -2.9212   -1.8761   -1.1713 C.ar     1 ZINC000049650290   -0.0800
38     C38    -1.7028   -1.2263   -1.2017 C.ar     1 ZINC000049650290   -0.1300
39     H39     1.4190    1.0621    0.9806 H        1 ZINC000049650290    0.1000
40     H40    -0.2691    1.3389    1.4723 H        1 ZINC000049650290    0.0500
41     H41     0.5453   -0.1838    1.9039 H        1 ZINC000049650290    0.0500
42     H42    -1.5480   -0.2181    2.0220 H        1 ZINC000049650290    0.1300
43     H43    -3.7239   -1.3670    2.0734 H        1 ZINC000049650290    0.1300
44     H44    -8.0448   -4.5001    0.2727 H        1 ZINC000049650290    0.0800
45     H45    -7.1732   -2.9561    0.4292 H        1 ZINC000049650290    0.0800
46     H46    -6.8446   -6.3751   -0.8604 H        1 ZINC000049650290    0.0900
47     H47    -5.0662   -6.3603   -0.7895 H        1 ZINC000049650290    0.0900
48     H48    -3.9038   -6.6926    1.3161 H        1 ZINC000049650290    0.1400
49     H49    -3.9808   -7.6940    3.5634 H        1 ZINC000049650290    0.1300
50     H50    -8.0313   -7.6904    5.4675 H        1 ZINC000049650290    0.0600
51     H51    -7.9808   -9.3166    4.7456 H        1 ZINC000049650290    0.0700
52     H52    -6.7370  -10.1545    6.7203 H        1 ZINC000049650290    0.0900
53     H53    -6.7876   -8.5283    7.4422 H        1 ZINC000049650290    0.0900
54     H54    -9.4022   -6.5795    7.7408 H        1 ZINC000049650290    0.0900
55     H55    -9.5258   -7.0428    9.4550 H        1 ZINC000049650290    0.0800
56     H56    -7.9730   -7.2024    8.5997 H        1 ZINC000049650290    0.1000
57     H57   -10.4415  -13.0368    6.7843 H        1 ZINC000049650290    0.1400
58     H58   -12.1852  -14.7646    6.9399 H        1 ZINC000049650290    0.1300
59     H59   -14.2645  -14.3128    8.1745 H        1 ZINC000049650290    0.1300
60     H60   -14.6129  -12.1330    9.2600 H        1 ZINC000049650290    0.1300
61     H61   -12.8793  -10.3937    9.1216 H        1 ZINC000049650290    0.1300
62     H62    -8.2505   -7.7468    3.3853 H        1 ZINC000049650290    0.1200
63     H63    -8.1651   -6.7406    1.1405 H        1 ZINC000049650290    0.1300
64     H64    -3.3074   -2.3416   -2.0660 H        1 ZINC000049650290    0.1400
65     H65    -1.1344   -1.1872   -2.1192 H        1 ZINC000049650290    0.1400
@<TRIPOS>BOND
1     1     2     1
2     1     39    1
3     1     40    1
4     1     41    1
5     2     3     1
6     3     38    ar
7     3     4     ar
8     4     5     ar
9     4     42    1
10    5     6     ar
11    5     43    1
12    6     7     1
13    6     37    ar
14    7     8     1
15    8     9     2
16    8     10    am
17    10    11    1
18    10    15    1
19    11    12    1
20    11    44    1
21    11    45    1
22    12    13    ar
23    12    14    ar
24    15    16    1
25    15    46    1
26    15    47    1
27    16    36    ar
28    16    17    ar
29    17    18    ar
30    17    48    1
31    18    19    ar
32    18    49    1
33    19    20    1
34    19    35    ar
35    20    21    1
36    21    22    1
37    21    50    1
38    21    51    1
39    22    23    1
40    22    52    1
41    22    53    1
42    23    34    1
43    23    24    2
44    24    25    1
45    24    26    1
46    25    54    1
47    25    55    1
48    25    56    1
49    26    27    1
50    27    28    1
51    27    34    2
52    28    33    ar
53    28    29    ar
54    29    30    ar
55    29    57    1
56    30    31    ar
57    30    58    1
58    31    32    ar
59    31    59    1
60    32    33    ar
61    32    60    1
62    33    61    1
63    35    36    ar
64    35    62    1
65    36    63    1
66    37    38    ar
67    37    64    1
68    38    65    1
@<TRIPOS>SUBSTRUCTURE
1   ZINC000049650290 1     RESIDUE    1   A     ZIN   1
