@<TRIPOS>MOLECULE
ZINC000002016001
50    54    1     0     0
SMALL
USER_CHARGES
@<TRIPOS>ATOM
1      O1      0.2517    0.6306   -0.7107 O.2      1 ZINC000002016001   -0.5300
2      C2      0.4345    1.8326   -0.7482 C.2      1 ZINC000002016001    0.5900
3      N3      1.6751    2.3311   -0.5783 N.am     1 ZINC000002016001   -0.6700
4      C4      2.7358    1.4751   -0.2631 C.ar     1 ZINC000002016001    0.1400
5      C5      2.7817    0.2003   -0.8045 C.ar     1 ZINC000002016001   -0.0800
6      C6      3.8425   -0.6497   -0.4870 C.ar     1 ZINC000002016001   -0.1400
7      C7      3.8994   -2.0104   -1.0603 C.2      1 ZINC000002016001    0.4400
8      O8      4.5033   -2.8903   -0.4784 O.2      1 ZINC000002016001   -0.4500
9      C9      3.2223   -2.3015   -2.3407 C.ar     1 ZINC000002016001   -0.1600
10     C10     2.8788   -1.2596   -3.2055 C.ar     1 ZINC000002016001   -0.0800
11     C11     2.2468   -1.5386   -4.3992 C.ar     1 ZINC000002016001   -0.1300
12     C12     1.9530   -2.8471   -4.7410 C.ar     1 ZINC000002016001   -0.0900
13     C13     2.2905   -3.8841   -3.8891 C.ar     1 ZINC000002016001   -0.1300
14     C14     2.9279   -3.6202   -2.6949 C.ar     1 ZINC000002016001   -0.0600
15     C15     4.8503   -0.2092    0.3741 C.ar     1 ZINC000002016001   -0.0800
16     C16     4.7947    1.0622    0.9075 C.ar     1 ZINC000002016001   -0.1100
17     C17     3.7468    1.9056    0.5888 C.ar     1 ZINC000002016001   -0.1200
18     C18    -0.6984    2.7426   -0.9853 C.2      1 ZINC000002016001   -0.2100
19     C19    -2.0214    2.3890   -1.1769 C.2      1 ZINC000002016001    0.1000
20     C20    -2.7937    1.0734   -1.2168 C.3      1 ZINC000002016001   -0.0200
21     S21    -4.5291    1.6277   -1.0029 S.3      1 ZINC000002016001   -0.2000
22     C22    -4.1960    3.3308   -1.5927 C.3      1 ZINC000002016001    0.2200
23     H23    -4.7635    4.0565   -1.0101 H        1 ZINC000002016001    0.1400
24     C24    -4.5226    3.4580   -3.0584 C.ar     1 ZINC000002016001   -0.1600
25     C25    -5.4536    4.3892   -3.4919 C.ar     1 ZINC000002016001   -0.0500
26     C26    -5.7220    4.4711   -4.8499 C.ar     1 ZINC000002016001   -0.1700
27     C27    -5.0574    3.6279   -5.7198 C.ar     1 ZINC000002016001    0.1100
28     N28    -4.1775    2.7536   -5.2717 N.ar     1 ZINC000002016001   -0.4800
29     C29    -3.8934    2.6515   -3.9882 C.ar     1 ZINC000002016001    0.1400
30     N30    -2.7376    3.5001   -1.3618 N.pl3    1 ZINC000002016001   -0.4500
31     C31    -1.9059    4.6055   -1.2919 C.2      1 ZINC000002016001    0.0100
32     C32    -0.6517    4.2018   -1.0592 C.2      1 ZINC000002016001   -0.1500
33     H33     1.8326    3.2834   -0.6746 H        1 ZINC000002016001    0.4100
34     H34     1.9992   -0.1345   -1.4693 H        1 ZINC000002016001    0.1600
35     H35     3.1072   -0.2381   -2.9397 H        1 ZINC000002016001    0.1300
36     H36     1.9803   -0.7341   -5.0686 H        1 ZINC000002016001    0.1300
37     H37     1.4577   -3.0598   -5.6769 H        1 ZINC000002016001    0.1300
38     H38     2.0582   -4.9029   -4.1622 H        1 ZINC000002016001    0.1300
39     H39     3.1907   -4.4305   -2.0310 H        1 ZINC000002016001    0.1300
40     H40     5.6727   -0.8637    0.6226 H        1 ZINC000002016001    0.1300
41     H41     5.5748    1.4011    1.5731 H        1 ZINC000002016001    0.1400
42     H42     3.7092    2.8997    1.0092 H        1 ZINC000002016001    0.1300
43     H43    -2.6617    0.5757   -2.1775 H        1 ZINC000002016001    0.1200
44     H44    -2.4915    0.4217   -0.3969 H        1 ZINC000002016001    0.1400
45     H45    -5.9580    5.0352   -2.7887 H        1 ZINC000002016001    0.1400
46     H46    -6.4417    5.1847   -5.2230 H        1 ZINC000002016001    0.1400
47     H47    -5.2611    3.6852   -6.7789 H        1 ZINC000002016001    0.1600
48     H48    -3.1670    1.9234   -3.6586 H        1 ZINC000002016001    0.1500
49     H49    -2.2210    5.6324   -1.4040 H        1 ZINC000002016001    0.1700
50     H50     0.2216    4.8284   -0.9534 H        1 ZINC000002016001    0.1600
@<TRIPOS>BOND
1     1     2     2
2     2     3     am
3     2     18    1
4     3     4     1
5     3     33    1
6     4     17    ar
7     4     5     ar
8     5     6     ar
9     5     34    1
10    6     7     1
11    6     15    ar
12    7     8     2
13    7     9     1
14    9     14    ar
15    9     10    ar
16    10    11    ar
17    10    35    1
18    11    12    ar
19    11    36    1
20    12    13    ar
21    12    37    1
22    13    14    ar
23    13    38    1
24    14    39    1
25    15    16    ar
26    15    40    1
27    16    17    ar
28    16    41    1
29    17    42    1
30    18    32    1
31    18    19    2
32    19    30    1
33    19    20    1
34    20    21    1
35    20    43    1
36    20    44    1
37    21    22    1
38    22    23    1
39    22    24    1
40    22    30    1
41    24    29    ar
42    24    25    ar
43    25    26    ar
44    25    45    1
45    26    27    ar
46    26    46    1
47    27    28    ar
48    27    47    1
49    28    29    ar
50    29    48    1
51    30    31    1
52    31    32    2
53    31    49    1
54    32    50    1
@<TRIPOS>SUBSTRUCTURE
1   ZINC000002016001 1     RESIDUE    1   A     ZIN   1
