@<TRIPOS>MOLECULE
ZINC000000007943
42    45    1     0     0
SMALL
USER_CHARGES
@<TRIPOS>ATOM
1      C1      0.5983    1.5815   -0.7235 C.ar     1 ZINC000000007943   -0.1100
2      C2      1.8635    2.1366   -0.6805 C.ar     1 ZINC000000007943   -0.1200
3      C3      2.9677    1.3265   -0.4919 C.ar     1 ZINC000000007943   -0.1000
4      C4      2.8065   -0.0387   -0.3460 C.ar     1 ZINC000000007943   -0.1200
5      C5      4.0102   -0.9219   -0.1410 C.3      1 ZINC000000007943    0.1600
6      N6      4.2846   -1.0483    1.2925 N.pl3    1 ZINC000000007943   -0.4700
7      C7      5.0983   -0.2210    2.0493 C.ar     1 ZINC000000007943    0.0600
8      C8      5.8634    0.8987    1.7625 C.ar     1 ZINC000000007943   -0.1100
9      C9      6.5828    1.5147    2.7662 C.ar     1 ZINC000000007943   -0.1000
10     C10     6.5462    1.0206    4.0613 C.ar     1 ZINC000000007943   -0.1300
11     C11     5.7917   -0.0911    4.3642 C.ar     1 ZINC000000007943   -0.0700
12     C12     5.0572   -0.7255    3.3599 C.ar     1 ZINC000000007943    0.0500
13     N13     4.2400   -1.8114    3.3448 N.2      1 ZINC000000007943   -0.5100
14     C14     3.7814   -1.9999    2.1325 C.2      1 ZINC000000007943    0.4500
15     N15     2.9238   -3.0130    1.7587 N.3      1 ZINC000000007943   -0.4700
16     C16     3.5848   -4.3225    1.8486 C.3      1 ZINC000000007943    0.0700
17     C17     2.6285   -5.4089    1.3511 C.3      1 ZINC000000007943    0.0600
18     N18     1.4011   -5.3850    2.1590 N.3      1 ZINC000000007943   -0.6900
19     C19     0.7402   -4.0756    2.0690 C.3      1 ZINC000000007943    0.0600
20     C20     1.6965   -2.9892    2.5666 C.3      1 ZINC000000007943    0.0700
21     C21     1.5411   -0.5936   -0.3877 C.ar     1 ZINC000000007943   -0.0900
22     C22     0.4371    0.2163   -0.5781 C.ar     1 ZINC000000007943   -0.1200
23     H23    -0.2647    2.2149   -0.8663 H        1 ZINC000000007943    0.1200
24     H24     1.9895    3.2031   -0.7945 H        1 ZINC000000007943    0.1200
25     H25     3.9563    1.7601   -0.4590 H        1 ZINC000000007943    0.1200
26     H26     3.8132   -1.9080   -0.5615 H        1 ZINC000000007943    0.1100
27     H27     4.8737   -0.4805   -0.6387 H        1 ZINC000000007943    0.0900
28     H28     5.8967    1.2880    0.7556 H        1 ZINC000000007943    0.1200
29     H29     7.1786    2.3870    2.5415 H        1 ZINC000000007943    0.1300
30     H30     7.1137    1.5111    4.8383 H        1 ZINC000000007943    0.1300
31     H31     5.7676   -0.4707    5.3750 H        1 ZINC000000007943    0.1300
32     H32     4.4838   -4.3192    1.2323 H        1 ZINC000000007943    0.0800
33     H33     3.8550   -4.5230    2.8854 H        1 ZINC000000007943    0.0600
34     H34     2.3796   -5.2236    0.3061 H        1 ZINC000000007943    0.0400
35     H35     3.1061   -6.3843    1.4440 H        1 ZINC000000007943    0.0900
36     H36     0.7737   -6.1264    1.8854 H        1 ZINC000000007943    0.3500
37     H37     0.4699   -3.8751    1.0322 H        1 ZINC000000007943    0.0400
38     H38    -0.1588   -4.0789    2.6853 H        1 ZINC000000007943    0.0900
39     H39     1.9453   -3.1745    3.6115 H        1 ZINC000000007943    0.0700
40     H40     1.2189   -2.0138    2.4736 H        1 ZINC000000007943    0.0800
41     H41     1.4152   -1.6602   -0.2737 H        1 ZINC000000007943    0.1300
42     H42    -0.5515   -0.2173   -0.6110 H        1 ZINC000000007943    0.1200
@<TRIPOS>BOND
1     1     22    ar
2     1     2     ar
3     1     23    1
4     2     3     ar
5     2     24    1
6     3     4     ar
7     3     25    1
8     4     5     1
9     4     21    ar
10    5     6     1
11    5     26    1
12    5     27    1
13    6     14    1
14    6     7     1
15    7     12    ar
16    7     8     ar
17    8     9     ar
18    8     28    1
19    9     10    ar
20    9     29    1
21    10    11    ar
22    10    30    1
23    11    12    ar
24    11    31    1
25    12    13    1
26    13    14    2
27    14    15    1
28    15    20    1
29    15    16    1
30    16    17    1
31    16    32    1
32    16    33    1
33    17    18    1
34    17    34    1
35    17    35    1
36    18    19    1
37    18    36    1
38    19    20    1
39    19    37    1
40    19    38    1
41    20    39    1
42    20    40    1
43    21    22    ar
44    21    41    1
45    22    42    1
@<TRIPOS>SUBSTRUCTURE
1   ZINC000000007943 1     RESIDUE    1   A     ZIN   1
