@<TRIPOS>MOLECULE
ZINC000000006302
29    30    1     0     0
SMALL
USER_CHARGES
@<TRIPOS>ATOM
1      C1     -0.0187    1.5258    0.0104 C.3      1 ZINC000000006302   -0.1700
2      C2      0.0021   -0.0041    0.0020 C.3      1 ZINC000000006302    0.1200
3      N3     -1.3723   -0.5112    0.0124 N.pl3    1 ZINC000000006302   -0.1400
4      N4     -2.0624   -0.7692    1.0679 N.2      1 ZINC000000006302   -0.0600
5      N5     -3.2264   -1.1974    0.7139 N.2      1 ZINC000000006302   -0.2800
6      C6     -3.2569   -1.2044   -0.6275 C.2      1 ZINC000000006302    0.2100
7      C7     -4.3894   -1.6190   -1.4837 C.2      1 ZINC000000006302   -0.0500
8      C8     -4.2408   -1.5652   -2.7883 C.2      1 ZINC000000006302   -0.0900
9      C9     -5.3310   -1.9569   -3.7464 C.3      1 ZINC000000006302   -0.0900
10     C10    -6.3951   -2.7753   -3.0108 C.3      1 ZINC000000006302    0.0400
11     N11    -6.7677   -2.0592   -1.7797 N.3      1 ZINC000000006302   -0.5400
12     C12    -7.9848   -2.6294   -1.1868 C.3      1 ZINC000000006302    0.0200
13     C13    -5.6532   -2.0874   -0.8216 C.3      1 ZINC000000006302    0.1000
14     N14    -2.0814   -0.7634   -1.0337 N.2      1 ZINC000000006302   -0.3100
15     H15     1.0039    1.9031    0.0027 H        1 ZINC000000006302    0.0900
16     H16    -0.5459    1.8868   -0.8726 H        1 ZINC000000006302    0.0700
17     H17    -0.5289    1.8773    0.9072 H        1 ZINC000000006302    0.0700
18     H18     0.5123   -0.3556   -0.8948 H        1 ZINC000000006302    0.1200
19     H19     0.5293   -0.3651    0.8851 H        1 ZINC000000006302    0.1200
20     H20    -3.2970   -1.2255   -3.1885 H        1 ZINC000000006302    0.1200
21     H21    -5.7877   -1.0590   -4.1628 H        1 ZINC000000006302    0.0900
22     H22    -4.9071   -2.5549   -4.5532 H        1 ZINC000000006302    0.0900
23     H23    -7.2726   -2.8909   -3.6470 H        1 ZINC000000006302    0.0800
24     H24    -5.9921   -3.7556   -2.7565 H        1 ZINC000000006302    0.0400
25     H25    -7.8134   -3.6778   -0.9430 H        1 ZINC000000006302    0.0300
26     H26    -8.2376   -2.0818   -0.2789 H        1 ZINC000000006302    0.0700
27     H27    -8.8066   -2.5515   -1.8987 H        1 ZINC000000006302    0.0700
28     H28    -5.5193   -3.1046   -0.4535 H        1 ZINC000000006302    0.0500
29     H29    -5.8814   -1.4297    0.0171 H        1 ZINC000000006302    0.0900
@<TRIPOS>BOND
1     1     2     1
2     1     15    1
3     1     16    1
4     1     17    1
5     2     3     1
6     2     18    1
7     2     19    1
8     3     14    1
9     3     4     1
10    4     5     2
11    5     6     1
12    6     7     1
13    6     14    2
14    7     13    1
15    7     8     2
16    8     9     1
17    8     20    1
18    9     10    1
19    9     21    1
20    9     22    1
21    10    11    1
22    10    23    1
23    10    24    1
24    11    12    1
25    11    13    1
26    12    25    1
27    12    26    1
28    12    27    1
29    13    28    1
30    13    29    1
@<TRIPOS>SUBSTRUCTURE
1   ZINC000000006302 1     RESIDUE    1   A     ZIN   1
