@<TRIPOS>MOLECULE
ZINC000003825544
49    52    1     0     0
SMALL
USER_CHARGES
@<TRIPOS>ATOM
1      C1     -0.0187    1.5258    0.0104 C.3      1 ZINC000003825544   -0.1400
2      C2      0.0021   -0.0041    0.0020 C.3      1 ZINC000003825544   -0.0600
3      C3     -1.4143   -0.5426    0.0483 C.3      1 ZINC000003825544   -0.1000
4      C4     -2.0972    0.0441    1.2983 C.3      1 ZINC000003825544   -0.1100
5      C5     -1.3127   -0.3075    2.5539 C.3      1 ZINC000003825544   -0.0500
6      H6     -1.3076   -1.3930    2.6527 H        1 ZINC000003825544    0.0900
7      C7     -1.9429    0.2647    3.7897 C.ar     1 ZINC000003825544   -0.0500
8      C8     -3.3275    0.3468    3.8442 C.ar     1 ZINC000003825544   -0.1000
9      C9     -3.9582    0.8545    4.9604 C.ar     1 ZINC000003825544   -0.0900
10     C10    -3.2013    1.2865    6.0396 C.ar     1 ZINC000003825544    0.0600
11     O11    -3.8126    1.7840    7.1466 O.3      1 ZINC000003825544   -0.6700
12     S12    -4.1411    0.7331    8.1974 S.o2     1 ZINC000003825544    2.7800
13     N13    -2.7212    0.3301    8.9483 N.am     1 ZINC000003825544   -1.2600
14     O14    -4.9427    1.3808    9.1758 O.2      1 ZINC000003825544   -0.9500
15     O15    -4.5631   -0.4243    7.4892 O.2      1 ZINC000003825544   -0.9700
16     C16    -1.8202    1.2081    5.9838 C.ar     1 ZINC000003825544   -0.1300
17     C17    -1.1861    0.7012    4.8580 C.ar     1 ZINC000003825544   -0.0500
18     C18     0.3196    0.6670    4.8604 C.3      1 ZINC000003825544   -0.0800
19     C19     0.8556   -0.2332    3.7478 C.3      1 ZINC000003825544   -0.1200
20     C20     0.1443    0.1629    2.4540 C.3      1 ZINC000003825544   -0.0800
21     H21     0.1919    1.2441    2.3243 H        1 ZINC000003825544    0.0900
22     C22     0.7512   -0.5345    1.2564 C.3      1 ZINC000003825544   -0.0800
23     H23     0.6025   -1.6110    1.3412 H        1 ZINC000003825544    0.0800
24     C24     2.2157   -0.2374    0.9541 C.3      1 ZINC000003825544   -0.1100
25     C25     2.3338   -0.2868   -0.5898 C.3      1 ZINC000003825544   -0.1600
26     C26     0.8996   -0.5108   -1.1315 C.3      1 ZINC000003825544    0.1100
27     H27     0.7111   -1.5715   -1.2973 H        1 ZINC000003825544    0.0600
28     O28     0.6918    0.2320   -2.3346 O.3      1 ZINC000003825544   -0.5600
29     H29     1.0039    1.9031    0.0027 H        1 ZINC000003825544    0.0500
30     H30    -0.5459    1.8868   -0.8726 H        1 ZINC000003825544    0.0600
31     H31    -0.5289    1.8773    0.9072 H        1 ZINC000003825544    0.0600
32     H32    -1.9557   -0.2361   -0.8467 H        1 ZINC000003825544    0.0700
33     H33    -1.3941   -1.6304    0.1145 H        1 ZINC000003825544    0.0600
34     H34    -2.1530    1.1284    1.2015 H        1 ZINC000003825544    0.0700
35     H35    -3.1059   -0.3608    1.3799 H        1 ZINC000003825544    0.0700
36     H36    -3.9166    0.0102    3.0039 H        1 ZINC000003825544    0.1400
37     H37    -5.0359    0.9158    4.9940 H        1 ZINC000003825544    0.1400
38     H38    -2.7269    0.0444    9.8753 H        1 ZINC000003825544    0.4300
39     H39    -1.8839    0.3798    8.4612 H        1 ZINC000003825544    0.4100
40     H40    -1.2309    1.5444    6.8241 H        1 ZINC000003825544    0.1400
41     H41     0.6998    1.6782    4.7159 H        1 ZINC000003825544    0.0800
42     H42     0.6665    0.2904    5.8226 H        1 ZINC000003825544    0.0800
43     H43     1.9300   -0.0844    3.6399 H        1 ZINC000003825544    0.0800
44     H44     0.6505   -1.2764    3.9879 H        1 ZINC000003825544    0.0700
45     H45     2.4838    0.7531    1.3218 H        1 ZINC000003825544    0.0700
46     H46     2.8558   -0.9949    1.4062 H        1 ZINC000003825544    0.0700
47     H47     2.7245    0.6588   -0.9656 H        1 ZINC000003825544    0.0700
48     H48     2.9863   -1.1071   -0.8889 H        1 ZINC000003825544    0.0700
49     H49     1.2809   -0.0198   -3.0589 H        1 ZINC000003825544    0.3800
@<TRIPOS>BOND
1     1     2     1
2     1     29    1
3     1     30    1
4     1     31    1
5     2     22    1
6     2     26    1
7     2     3     1
8     3     4     1
9     3     32    1
10    3     33    1
11    4     5     1
12    4     34    1
13    4     35    1
14    5     6     1
15    5     20    1
16    5     7     1
17    7     17    ar
18    7     8     ar
19    8     9     ar
20    8     36    1
21    9     10    ar
22    9     37    1
23    10    11    1
24    10    16    ar
25    11    12    1
26    12    13    am
27    12    14    2
28    12    15    2
29    13    38    1
30    13    39    1
31    16    17    ar
32    16    40    1
33    17    18    1
34    18    19    1
35    18    41    1
36    18    42    1
37    19    20    1
38    19    43    1
39    19    44    1
40    20    21    1
41    20    22    1
42    22    23    1
43    22    24    1
44    24    25    1
45    24    45    1
46    24    46    1
47    25    26    1
48    25    47    1
49    25    48    1
50    26    27    1
51    26    28    1
52    28    49    1
@<TRIPOS>SUBSTRUCTURE
1   ZINC000003825544 1     RESIDUE    1   A     ZIN   1
