@<TRIPOS>MOLECULE
ZINC000090636091
  50   53    0    0    0
SMALL
USER_CHARGES
NO_NAME
@<TRIPOS>ATOM
    1 O1        0.0024    -0.0037    -0.0126 O.2    1 <0>      -0.5100
    2 C2       -0.0142     1.2089     0.0052 C.2    1 <0>       0.5100
    3 C3        1.2803     1.9804     0.0068 C.3    1 <0>       0.1100
    4 N4        2.4068     1.0440    -0.0151 N.pl3  1 <0>      -0.7400
    5 C5        3.7170     1.5277    -0.0178 C.ar   1 <0>       0.2500
    6 C6        3.9533     2.8966     0.0062 C.ar   1 <0>      -0.2300
    7 C7        5.2494     3.3748     0.0041 C.ar   1 <0>      -0.0300
    8 C8        6.3136     2.4939    -0.0223 C.ar   1 <0>      -0.2600
    9 C9        6.0837     1.1251    -0.0464 C.ar   1 <0>       0.1800
   10 O10       7.1316     0.2601    -0.0719 O.3    1 <0>      -0.3100
   11 C11       8.4425     0.8289    -0.0724 C.3    1 <0>       0.1000
   12 C12       9.4687    -0.2743    -0.1023 C.ar   1 <0>      -0.1000
   13 C13       9.9455    -0.8070     1.0808 C.ar   1 <0>      -0.1000
   14 C14      10.8868    -1.8189     1.0534 C.ar   1 <0>      -0.1200
   15 C15      11.3510    -2.2986    -0.1571 C.ar   1 <0>      -0.1100
   16 C16      10.8735    -1.7666    -1.3403 C.ar   1 <0>      -0.1200
   17 C17       9.9290    -0.7575    -1.3129 C.ar   1 <0>      -0.1000
   18 C18       4.7853     0.6412    -0.0386 C.ar   1 <0>      -0.2200
   19 N19      -1.1906     1.8666     0.0178 N.am   1 <0>      -0.6700
   20 C20      -2.3895     1.1561    -0.0858 C.ar   1 <0>       0.1700
   21 C21      -2.5011    -0.1047     0.5122 C.ar   1 <0>      -0.1200
   22 C22      -3.6546    -0.8202     0.4287 C.ar   1 <0>      -0.0700
   23 C23      -4.7539    -0.2915    -0.2666 C.ar   1 <0>      -0.1300
   24 C24      -5.9661    -0.9902    -0.3807 C.ar   1 <0>       0.1500
   25 N25      -6.9690    -0.4584    -1.0399 N.ar   1 <0>      -0.4900
   26 C26      -6.8973     0.7331    -1.6182 C.ar   1 <0>       0.0800
   27 C27      -5.7672     1.4903    -1.5661 C.ar   1 <0>      -0.1600
   28 C28      -4.6482     0.9869    -0.8759 C.ar   1 <0>       0.0000
   29 C29      -3.4518     1.7069    -0.7714 C.ar   1 <0>      -0.1500
   30 H30       1.3229     2.6206    -0.8742 H      1 <0>       0.1000
   31 H31       1.3360     2.5947     0.9055 H      1 <0>       0.1000
   32 H32       2.2427     0.0880    -0.0278 H      1 <0>       0.4100
   33 H33       3.1232     3.5872     0.0262 H      1 <0>       0.1200
   34 H34       5.4312     4.4392     0.0228 H      1 <0>       0.1300
   35 H35       7.3257     2.8708    -0.0247 H      1 <0>       0.1200
   36 H36       8.5636     1.4617    -0.9516 H      1 <0>       0.0700
   37 H37       8.5790     1.4278     0.8279 H      1 <0>       0.0700
   38 H38       9.5829    -0.4322     2.0266 H      1 <0>       0.1200
   39 H39      11.2599    -2.2346     1.9778 H      1 <0>       0.1300
   40 H40      12.0869    -3.0887    -0.1785 H      1 <0>       0.1200
   41 H41      11.2364    -2.1411    -2.2860 H      1 <0>       0.1300
   42 H42       9.5559    -0.3419    -2.2373 H      1 <0>       0.1200
   43 H43       4.6046    -0.4235    -0.0569 H      1 <0>       0.1300
   44 H44      -1.2051     2.8331     0.0989 H      1 <0>       0.4200
   45 H45      -1.6581    -0.5157     1.0478 H      1 <0>       0.1400
   46 H46      -3.7247    -1.7917     0.8953 H      1 <0>       0.1400
   47 H47      -6.0733    -1.9645     0.0729 H      1 <0>       0.1600
   48 H48      -7.7597     1.1131    -2.1457 H      1 <0>       0.1500
   49 H49      -5.7298     2.4577    -2.0446 H      1 <0>       0.1400
   50 H50      -3.3604     2.6819    -1.2268 H      1 <0>       0.1400
@<TRIPOS>BOND
   1    1    2 2
   2    2    3 1
   3    2   19 am
   4    3    4 1
   5    3   30 1
   6    3   31 1
   7    4    5 1
   8    4   32 1
   9    5   18 ar
  10    5    6 ar
  11    6    7 ar
  12    6   33 1
  13    7    8 ar
  14    7   34 1
  15    8    9 ar
  16    8   35 1
  17    9   10 1
  18    9   18 ar
  19   10   11 1
  20   11   12 1
  21   11   36 1
  22   11   37 1
  23   12   17 ar
  24   12   13 ar
  25   13   14 ar
  26   13   38 1
  27   14   15 ar
  28   14   39 1
  29   15   16 ar
  30   15   40 1
  31   16   17 ar
  32   16   41 1
  33   17   42 1
  34   18   43 1
  35   19   20 1
  36   19   44 1
  37   20   29 ar
  38   20   21 ar
  39   21   22 ar
  40   21   45 1
  41   22   23 ar
  42   22   46 1
  43   23   28 ar
  44   23   24 ar
  45   24   25 ar
  46   24   47 1
  47   25   26 ar
  48   26   27 ar
  49   26   48 1
  50   27   28 ar
  51   27   49 1
  52   28   29 ar
  53   29   50 1
