@<TRIPOS>MOLECULE
ZINC000014261842
86    86    1     0     0
SMALL
USER_CHARGES
@<TRIPOS>ATOM
1      C1     -3.0531   -1.4528   -1.8641 C.3      1 ZINC000014261842   -0.1500
2      C2     -2.8667   -2.9605   -1.6826 C.3      1 ZINC000014261842   -0.1300
3      C3     -2.0048   -3.2226   -0.4460 C.3      1 ZINC000014261842   -0.1200
4      C4     -1.8185   -4.7304   -0.2644 C.3      1 ZINC000014261842   -0.1200
5      C5     -0.9566   -4.9925    0.9722 C.3      1 ZINC000014261842   -0.1200
6      C6     -0.7702   -6.5002    1.1538 C.3      1 ZINC000014261842   -0.1200
7      C7      0.0917   -6.7623    2.3904 C.3      1 ZINC000014261842   -0.1200
8      C8      0.2781   -8.2700    2.5719 C.3      1 ZINC000014261842   -0.1200
9      C9      1.1400   -8.5321    3.8086 C.3      1 ZINC000014261842   -0.1200
10     C10     1.3264  -10.0399    3.9901 C.3      1 ZINC000014261842   -0.1200
11     C11     2.1883  -10.3020    5.2268 C.3      1 ZINC000014261842   -0.1200
12     C12     2.3746  -11.8097    5.4083 C.3      1 ZINC000014261842   -0.1200
13     C13     3.2365  -12.0718    6.6450 C.3      1 ZINC000014261842   -0.1200
14     C14     3.4229  -13.5795    6.8265 C.3      1 ZINC000014261842   -0.1200
15     C15     4.2848  -13.8416    8.0631 C.3      1 ZINC000014261842   -0.1200
16     C16     4.4712  -15.3493    8.2447 C.3      1 ZINC000014261842   -0.1200
17     C17     5.3331  -15.6114    9.4813 C.3      1 ZINC000014261842   -0.1200
18     C18     5.5194  -17.1192    9.6628 C.3      1 ZINC000014261842    0.1300
19     O19     6.3245  -17.3640   10.8179 O.3      1 ZINC000014261842   -0.7700
20     P20     6.7239  -18.8437   11.3107 P.3      1 ZINC000014261842    2.2100
21     O21     7.4075  -19.6051   10.1530 O.co2    1 ZINC000014261842   -1.0900
22     O22     5.4506  -19.6030   11.7455 O.co2    1 ZINC000014261842   -1.0900
23     O23     7.7381  -18.7389   12.5567 O.3      1 ZINC000014261842   -0.7600
24     C24     8.3577  -19.8796   13.1541 C.3      1 ZINC000014261842    0.1000
25     C25     9.2560  -19.4269   14.3068 C.3      1 ZINC000014261842   -0.0100
26     N26     8.4245  -18.9074   15.4007 N.4      1 ZINC000014261842   -0.2600
27     C27     9.2751  -18.6066   16.5600 C.3      1 ZINC000014261842   -0.0500
28     C28     7.7504  -17.6801   14.9606 C.3      1 ZINC000014261842   -0.0100
29     C29     6.9469  -17.0904   16.1216 C.3      1 ZINC000014261842   -0.1500
30     C30     5.9024  -18.1111   16.5826 C.3      1 ZINC000014261842   -0.1400
31     C31     6.6107  -19.4127   16.9690 C.3      1 ZINC000014261842   -0.1400
32     C32     7.4267  -19.9163   15.7765 C.3      1 ZINC000014261842   -0.0200
33     H33    -2.0798   -0.9793   -1.9926 H        1 ZINC000014261842    0.0500
34     H34    -3.6671   -1.2661   -2.7451 H        1 ZINC000014261842    0.0500
35     H35    -3.5451   -1.0390   -0.9840 H        1 ZINC000014261842    0.0500
36     H36    -3.8401   -3.4341   -1.5541 H        1 ZINC000014261842    0.0600
37     H37    -2.3747   -3.3744   -2.5628 H        1 ZINC000014261842    0.0600
38     H38    -1.0315   -2.7491   -0.5744 H        1 ZINC000014261842    0.0600
39     H39    -2.4969   -2.8088    0.4342 H        1 ZINC000014261842    0.0600
40     H40    -2.7918   -5.2039   -0.1359 H        1 ZINC000014261842    0.0600
41     H41    -1.3264   -5.1442   -1.1446 H        1 ZINC000014261842    0.0600
42     H42     0.0168   -4.5189    0.8437 H        1 ZINC000014261842    0.0600
43     H43    -1.4486   -4.5786    1.8524 H        1 ZINC000014261842    0.0600
44     H44    -1.7435   -6.9737    1.2822 H        1 ZINC000014261842    0.0600
45     H45    -0.2781   -6.9141    0.2736 H        1 ZINC000014261842    0.0600
46     H46     1.0650   -6.2888    2.2619 H        1 ZINC000014261842    0.0600
47     H47    -0.4003   -6.3484    3.2706 H        1 ZINC000014261842    0.0600
48     H48    -0.6952   -8.7436    2.7004 H        1 ZINC000014261842    0.0600
49     H49     0.7701   -8.6839    1.6918 H        1 ZINC000014261842    0.0600
50     H50     2.1133   -8.0586    3.6801 H        1 ZINC000014261842    0.0600
51     H51     0.6479   -8.1183    4.6888 H        1 ZINC000014261842    0.0600
52     H52     0.3530  -10.5134    4.1186 H        1 ZINC000014261842    0.0600
53     H53     1.8184  -10.4537    3.1099 H        1 ZINC000014261842    0.0600
54     H54     3.1616   -9.8284    5.0983 H        1 ZINC000014261842    0.0600
55     H55     1.6962   -9.8881    6.1069 H        1 ZINC000014261842    0.0600
56     H56     1.4013  -12.2832    5.5368 H        1 ZINC000014261842    0.0600
57     H57     2.8667  -12.2235    4.5281 H        1 ZINC000014261842    0.0600
58     H58     4.2099  -11.5982    6.5165 H        1 ZINC000014261842    0.0600
59     H59     2.7445  -11.6579    7.5251 H        1 ZINC000014261842    0.0600
60     H60     2.4496  -14.0530    6.9550 H        1 ZINC000014261842    0.0600
61     H61     3.9149  -13.9934    5.9463 H        1 ZINC000014261842    0.0600
62     H62     5.2581  -13.3681    7.9346 H        1 ZINC000014261842    0.0600
63     H63     3.7928  -13.4278    8.9433 H        1 ZINC000014261842    0.0600
64     H64     3.4978  -15.8229    8.3731 H        1 ZINC000014261842    0.0700
65     H65     4.9632  -15.7632    7.3645 H        1 ZINC000014261842    0.0700
66     H66     6.3064  -15.1379    9.3528 H        1 ZINC000014261842    0.0700
67     H67     4.8410  -15.1976   10.3615 H        1 ZINC000014261842    0.0700
68     H68     4.5461  -17.5927    9.7913 H        1 ZINC000014261842    0.0500
69     H69     6.0115  -17.5330    8.7827 H        1 ZINC000014261842    0.0600
70     H70     7.5894  -20.5526   13.5348 H        1 ZINC000014261842    0.0800
71     H71     8.9585  -20.3993   12.4077 H        1 ZINC000014261842    0.1000
72     H72     9.8410  -20.2737   14.6657 H        1 ZINC000014261842    0.1400
73     H73     9.9281  -18.6430   13.9575 H        1 ZINC000014261842    0.1300
74     H74    10.0298  -17.8730   16.2764 H        1 ZINC000014261842    0.1200
75     H75     8.6617  -18.2037   17.3660 H        1 ZINC000014261842    0.1200
76     H76     9.7650  -19.5198   16.8980 H        1 ZINC000014261842    0.1200
77     H77     8.4949  -16.9559   14.6298 H        1 ZINC000014261842    0.1200
78     H78     7.0780  -17.9116   14.1345 H        1 ZINC000014261842    0.1500
79     H79     7.6184  -16.8583   16.9482 H        1 ZINC000014261842    0.0800
80     H80     6.4457  -16.1802   15.7923 H        1 ZINC000014261842    0.1100
81     H81     5.3652  -17.7183   17.4459 H        1 ZINC000014261842    0.0900
82     H82     5.1999  -18.3051   15.7721 H        1 ZINC000014261842    0.0900
83     H83     7.2753  -19.2287   17.8131 H        1 ZINC000014261842    0.0800
84     H84     5.8693  -20.1624   17.2453 H        1 ZINC000014261842    0.1100
85     H85     6.7612  -20.1002   14.9331 H        1 ZINC000014261842    0.1400
86     H86     7.9322  -20.8430   16.0481 H        1 ZINC000014261842    0.1300
@<TRIPOS>BOND
1     1     2     1
2     1     33    1
3     1     34    1
4     1     35    1
5     2     3     1
6     2     36    1
7     2     37    1
8     3     4     1
9     3     38    1
10    3     39    1
11    4     5     1
12    4     40    1
13    4     41    1
14    5     6     1
15    5     42    1
16    5     43    1
17    6     7     1
18    6     44    1
19    6     45    1
20    7     8     1
21    7     46    1
22    7     47    1
23    8     9     1
24    8     48    1
25    8     49    1
26    9     10    1
27    9     50    1
28    9     51    1
29    10    11    1
30    10    52    1
31    10    53    1
32    11    12    1
33    11    54    1
34    11    55    1
35    12    13    1
36    12    56    1
37    12    57    1
38    13    14    1
39    13    58    1
40    13    59    1
41    14    15    1
42    14    60    1
43    14    61    1
44    15    16    1
45    15    62    1
46    15    63    1
47    16    17    1
48    16    64    1
49    16    65    1
50    17    18    1
51    17    66    1
52    17    67    1
53    18    19    1
54    18    68    1
55    18    69    1
56    19    20    1
57    20    21    ar
58    20    22    ar
59    20    23    1
60    23    24    1
61    24    25    1
62    24    70    1
63    24    71    1
64    25    26    1
65    25    72    1
66    25    73    1
67    26    32    1
68    26    27    1
69    26    28    1
70    27    74    1
71    27    75    1
72    27    76    1
73    28    29    1
74    28    77    1
75    28    78    1
76    29    30    1
77    29    79    1
78    29    80    1
79    30    31    1
80    30    81    1
81    30    82    1
82    31    32    1
83    31    83    1
84    31    84    1
85    32    85    1
86    32    86    1
@<TRIPOS>SUBSTRUCTURE
1   ZINC000014261842 1     RESIDUE    1   A     ZIN   1
