@<TRIPOS>MOLECULE
ZINC000059697694
51    54    1     0     0
SMALL
USER_CHARGES
@<TRIPOS>ATOM
1      N1      0.0077    1.3592    0.3023 N.pl3    1 ZINC000059697694   -0.8200
2      C2      0.0112   -0.0120    0.1090 C.2      1 ZINC000059697694    0.3400
3      N3     -1.0325   -0.7784    0.1693 N.2      1 ZINC000059697694   -0.4900
4      C4     -0.8378   -2.0801   -0.0449 C.2      1 ZINC000059697694    0.1200
5      C5     -1.9415   -3.0635   -0.0060 C.2      1 ZINC000059697694    0.1500
6      N6     -1.6841   -4.3361   -0.1129 N.2      1 ZINC000059697694   -0.2400
7      O7     -0.3425   -4.7888   -0.1219 O.3      1 ZINC000059697694   -0.1800
8      C8     -0.2081   -6.2062   -0.2445 C.3      1 ZINC000059697694    0.0500
9      H9     -0.9981   -6.5917   -0.8890 H        1 ZINC000059697694    0.0900
10     C10    -0.3168   -6.8408    1.1180 C.2      1 ZINC000059697694    0.4900
11     O11    -0.4931   -6.1439    2.1028 O.co2    1 ZINC000059697694   -0.6600
12     O12    -0.2286   -8.0511    1.2356 O.co2    1 ZINC000059697694   -0.6900
13     C13     1.1347   -6.5334   -0.8453 C.ar     1 ZINC000059697694   -0.0300
14     C14     2.2553   -5.8237   -0.4568 C.ar     1 ZINC000059697694   -0.1000
15     C15     3.4896   -6.1198   -1.0055 C.ar     1 ZINC000059697694   -0.1300
16     C16     3.6050   -7.1299   -1.9464 C.ar     1 ZINC000059697694    0.0600
17     O17     4.8182   -7.4227   -2.4866 O.3      1 ZINC000059697694   -0.4900
18     C18     2.4765   -7.8449   -2.3373 C.ar     1 ZINC000059697694    0.0800
19     O19     2.5847   -8.8378   -3.2603 O.3      1 ZINC000059697694   -0.4900
20     C20     1.2439   -7.5467   -1.7799 C.ar     1 ZINC000059697694   -0.1100
21     C21    -3.3403   -2.6014    0.1547 C.2      1 ZINC000059697694    0.5900
22     O22    -3.5804   -1.4144    0.2544 O.2      1 ZINC000059697694   -0.4900
23     N23    -4.3462   -3.4976    0.1902 N.am     1 ZINC000059697694   -0.6900
24     C24    -5.7291   -3.0408    0.3490 C.3      1 ZINC000059697694    0.1300
25     H25    -5.8814   -2.0204   -0.0028 H        1 ZINC000059697694    0.1500
26     C26    -6.3021   -3.3008    1.7318 C.2      1 ZINC000059697694    0.5300
27     O27    -6.1546   -2.7870    2.8206 O.2      1 ZINC000059697694   -0.4400
28     N28    -7.0377   -4.3263    1.2692 N.am     1 ZINC000059697694   -0.5600
29     C29    -7.7102   -5.4509    1.7780 C.2      1 ZINC000059697694    0.0900
30     C30    -8.2810   -5.4166    3.1342 C.2      1 ZINC000059697694    0.5200
31     O31    -8.8662   -6.3958    3.5765 O.co2    1 ZINC000059697694   -0.6800
32     O32    -8.1703   -4.4090    3.8193 O.co2    1 ZINC000059697694   -0.6600
33     C33    -7.8302   -6.5427    1.0346 C.2      1 ZINC000059697694   -0.2300
34     C34    -7.3718   -6.7622   -0.3696 C.3      1 ZINC000059697694   -0.0200
35     S35    -6.0871   -5.5754   -0.8681 S.3      1 ZINC000059697694   -0.2400
36     C36    -6.7646   -4.0301   -0.1757 C.3      1 ZINC000059697694    0.1300
37     H37    -7.5912   -3.6038   -0.7442 H        1 ZINC000059697694    0.1400
38     C38     0.4369   -2.4349   -0.2999 C.2      1 ZINC000059697694   -0.2200
39     S39     1.4327   -0.9818   -0.2638 S.3      1 ZINC000059697694    0.0300
40     H40     0.8354    1.8605    0.2353 H        1 ZINC000059697694    0.4100
41     H41    -0.8230    1.8189    0.5006 H        1 ZINC000059697694    0.4100
42     H42     2.1667   -5.0360    0.2767 H        1 ZINC000059697694    0.1300
43     H43     4.3636   -5.5633   -0.7007 H        1 ZINC000059697694    0.1300
44     H44     5.3155   -8.0921   -1.9971 H        1 ZINC000059697694    0.3800
45     H45     2.7626   -9.7094   -2.8813 H        1 ZINC000059697694    0.3800
46     H46     0.3667   -8.0999   -2.0815 H        1 ZINC000059697694    0.1300
47     H47    -4.1546   -4.4452    0.1106 H        1 ZINC000059697694    0.4200
48     H48    -8.3223   -7.3808    1.5055 H        1 ZINC000059697694    0.1400
49     H49    -6.9728   -7.7728   -0.4573 H        1 ZINC000059697694    0.1100
50     H50    -8.2254   -6.6616   -1.0399 H        1 ZINC000059697694    0.0900
51     H51     0.7873   -3.4372   -0.4972 H        1 ZINC000059697694    0.2000
@<TRIPOS>BOND
1     1     2     1
2     1     40    1
3     1     41    1
4     2     39    1
5     2     3     2
6     3     4     1
7     4     5     1
8     4     38    2
9     5     6     2
10    5     21    1
11    6     7     1
12    7     8     1
13    8     9     1
14    8     10    1
15    8     13    1
16    10    11    ar
17    10    12    ar
18    13    20    ar
19    13    14    ar
20    14    15    ar
21    14    42    1
22    15    16    ar
23    15    43    1
24    16    17    1
25    16    18    ar
26    17    44    1
27    18    19    1
28    18    20    ar
29    19    45    1
30    20    46    1
31    21    22    2
32    21    23    am
33    23    24    1
34    23    47    1
35    24    25    1
36    24    36    1
37    24    26    1
38    26    27    2
39    26    28    am
40    28    36    1
41    28    29    1
42    29    30    1
43    29    33    2
44    30    31    ar
45    30    32    ar
46    33    34    1
47    33    48    1
48    34    35    1
49    34    49    1
50    34    50    1
51    35    36    1
52    36    37    1
53    38    39    1
54    38    51    1
@<TRIPOS>SUBSTRUCTURE
1   ZINC000059697694 1     RESIDUE    1   A     ZIN   1
