@<TRIPOS>MOLECULE
ZINC000026247473
44    47    1     0     0
SMALL
USER_CHARGES
@<TRIPOS>ATOM
1      C1     -2.8023   -1.2357    0.4173 C.3      1 ZINC000026247473   -0.0500
2      N2     -1.3517   -1.3171    0.2000 N.4      1 ZINC000026247473   -0.3900
3      H3     -0.9880   -0.3939    0.0170 H        1 ZINC000026247473    0.4300
4      C4     -1.0791   -2.1858   -0.9519 C.3      1 ZINC000026247473   -0.0200
5      C5      0.4238   -2.1803   -1.2503 C.3      1 ZINC000026247473    0.0900
6      N6      1.1441   -2.5548   -0.0235 N.pl3    1 ZINC000026247473   -0.6200
7      C7      2.1014   -3.5441   -0.0386 C.2      1 ZINC000026247473    0.5000
8      N8      2.5820   -3.8991    1.0946 N.2      1 ZINC000026247473   -0.5800
9      C9      3.5432   -4.8236    1.3440 C.ar     1 ZINC000026247473    0.1800
10     C10     4.5247   -4.5271    2.3007 C.ar     1 ZINC000026247473   -0.1500
11     C11     5.5111   -5.4470    2.5905 C.ar     1 ZINC000026247473    0.1200
12     F12     6.4549   -5.1569    3.5126 F        1 ZINC000026247473   -0.1300
13     C13     5.5340   -6.6686    1.9367 C.ar     1 ZINC000026247473   -0.1600
14     C14     4.5721   -6.9653    0.9898 C.ar     1 ZINC000026247473   -0.0700
15     C15     3.5812   -6.0493    0.6861 C.ar     1 ZINC000026247473   -0.1400
16     C16     2.5689   -6.3996   -0.3691 C.3      1 ZINC000026247473   -0.0400
17     C17     2.6874   -5.4525   -1.5305 C.ar     1 ZINC000026247473   -0.0300
18     C18     3.0146   -5.9417   -2.7797 C.ar     1 ZINC000026247473   -0.1100
19     C19     3.1322   -5.0812   -3.8563 C.ar     1 ZINC000026247473   -0.0800
20     C20     2.9234   -3.7241   -3.6873 C.ar     1 ZINC000026247473   -0.1200
21     C21     2.5938   -3.2238   -2.4458 C.ar     1 ZINC000026247473   -0.1000
22     C22     2.4657   -4.0915   -1.3518 C.ar     1 ZINC000026247473   -0.1300
23     C23     0.8128   -1.8418    1.2199 C.3      1 ZINC000026247473    0.1000
24     C24    -0.7087   -1.8653    1.4009 C.3      1 ZINC000026247473   -0.0200
25     H25    -3.1965   -2.2325    0.6152 H        1 ZINC000026247473    0.1200
26     H26    -3.0062   -0.5885    1.2703 H        1 ZINC000026247473    0.1300
27     H27    -3.2805   -0.8259   -0.4723 H        1 ZINC000026247473    0.1300
28     H28    -1.4009   -3.2022   -0.7248 H        1 ZINC000026247473    0.1300
29     H29    -1.6236   -1.8179   -1.8216 H        1 ZINC000026247473    0.1400
30     H30     0.6434   -2.9006   -2.0383 H        1 ZINC000026247473    0.1400
31     H31     0.7310   -1.1831   -1.5654 H        1 ZINC000026247473    0.1000
32     H32     4.5086   -3.5758    2.8118 H        1 ZINC000026247473    0.1400
33     H33     6.3046   -7.3894    2.1671 H        1 ZINC000026247473    0.1400
34     H34     4.5942   -7.9189    0.4834 H        1 ZINC000026247473    0.1400
35     H35     2.7440   -7.4186   -0.7141 H        1 ZINC000026247473    0.1000
36     H36     1.5667   -6.3298    0.0538 H        1 ZINC000026247473    0.0800
37     H37     3.1797   -7.0002   -2.9166 H        1 ZINC000026247473    0.1400
38     H38     3.3881   -5.4696   -4.8311 H        1 ZINC000026247473    0.1400
39     H39     3.0191   -3.0552   -4.5297 H        1 ZINC000026247473    0.1300
40     H40     2.4316   -2.1638   -2.3169 H        1 ZINC000026247473    0.1300
41     H41     1.2897   -2.3383    2.0650 H        1 ZINC000026247473    0.1400
42     H42     1.1593   -0.8104    1.1542 H        1 ZINC000026247473    0.0900
43     H43    -0.9813   -1.2599    2.2653 H        1 ZINC000026247473    0.1400
44     H44    -1.0403   -2.8918    1.5567 H        1 ZINC000026247473    0.1300
@<TRIPOS>BOND
1     1     2     1
2     1     25    1
3     1     26    1
4     1     27    1
5     2     3     1
6     2     24    1
7     2     4     1
8     4     5     1
9     4     28    1
10    4     29    1
11    5     6     1
12    5     30    1
13    5     31    1
14    6     7     1
15    6     23    1
16    7     22    1
17    7     8     2
18    8     9     1
19    9     15    ar
20    9     10    ar
21    10    11    ar
22    10    32    1
23    11    12    1
24    11    13    ar
25    13    14    ar
26    13    33    1
27    14    15    ar
28    14    34    1
29    15    16    1
30    16    17    1
31    16    35    1
32    16    36    1
33    17    22    ar
34    17    18    ar
35    18    19    ar
36    18    37    1
37    19    20    ar
38    19    38    1
39    20    21    ar
40    20    39    1
41    21    22    ar
42    21    40    1
43    23    24    1
44    23    41    1
45    23    42    1
46    24    43    1
47    24    44    1
@<TRIPOS>SUBSTRUCTURE
1   ZINC000026247473 1     RESIDUE    1   A     ZIN   1
