@<TRIPOS>MOLECULE
ZINC000003924156
  31   32    0    0    0
SMALL
USER_CHARGES
NO_NAME
@<TRIPOS>ATOM
    1 O1        0.0021    -0.0041     0.0020 O.2    1 <0>      -0.4700
    2 C2       -0.0144     1.2104     0.0087 C.2    1 <0>       0.5200
    3 N3       -1.1873     1.8755     0.0291 N.am   1 <0>      -0.6300
    4 C4       -1.2002     3.2675     0.0366 C.ar   1 <0>       0.1100
    5 C5       -2.4141     3.9449     0.0577 C.ar   1 <0>      -0.0600
    6 C6       -2.4350     5.3248     0.0652 C.ar   1 <0>      -0.0500
    7 N7       -3.7293     6.0426     0.0882 N.pl3  1 <0>       0.0400
    8 O8       -4.7734     5.4154     0.1004 O.2    1 <0>      -0.1800
    9 O9       -3.7504     7.2604     0.0949 O.2    1 <0>      -0.1600
   10 C10      -1.2498     6.0403     0.0519 C.ar   1 <0>      -0.0200
   11 C11      -0.0387     5.3789     0.0310 C.ar   1 <0>      -0.0700
   12 C12       1.2478     6.1635     0.0165 C.3    1 <0>       0.0700
   13 N13       1.7714     6.2203    -1.3548 N.3    1 <0>      -0.6600
   14 C14       3.0280     6.9793    -1.4076 C.3    1 <0>      -0.5600
   15 P15       4.4379     5.8287    -1.3001 P.3    1 <0>       2.1700
   16 O16       4.2947     4.9461    -0.0136 O.co2  1 <0>      -1.1600
   17 O17       4.4572     4.9066    -2.5665 O.co2  1 <0>      -1.1700
   18 O18       5.7734     6.6445    -1.2277 O.co2  1 <0>      -1.1700
   19 C19      -0.0050     3.9891     0.0236 C.ar   1 <0>       0.2000
   20 N20       1.2205     3.3290     0.0025 N.am   1 <0>      -0.6300
   21 C21       1.2625     1.9812     0.0006 C.2    1 <0>       0.5000
   22 O22       2.3293     1.4007    -0.0177 O.2    1 <0>      -0.4200
   23 H23      -2.0231     1.3833     0.0382 H      1 <0>       0.4200
   24 H24      -3.3412     3.3910     0.0678 H      1 <0>       0.1600
   25 H25      -1.2731     7.1200     0.0575 H      1 <0>       0.1600
   26 H26       1.0603     7.1753     0.3761 H      1 <0>       0.0800
   27 H27       1.9773     5.6772     0.6641 H      1 <0>       0.0800
   28 H28       1.8927     5.2933    -1.7343 H      1 <0>       0.3300
   29 H29       3.0801     7.5311    -2.3462 H      1 <0>       0.0600
   30 H30       3.0653     7.6788    -0.5724 H      1 <0>       0.0500
   31 H31       2.0453     3.8393    -0.0073 H      1 <0>       0.4600
@<TRIPOS>BOND
   1    1    2 2
   2    2   21 1
   3    2    3 am
   4    3    4 1
   5    3   23 1
   6    4   19 ar
   7    4    5 ar
   8    5    6 ar
   9    5   24 1
  10    6    7 1
  11    6   10 ar
  12    7    8 2
  13    7    9 2
  14   10   11 ar
  15   10   25 1
  16   11   12 1
  17   11   19 ar
  18   12   13 1
  19   12   26 1
  20   12   27 1
  21   13   14 1
  22   13   28 1
  23   14   15 1
  24   14   29 1
  25   14   30 1
  26   15   16 ar
  27   15   17 ar
  28   15   18 ar
  29   19   20 1
  30   20   21 am
  31   20   31 1
  32   21   22 2
