@<TRIPOS>MOLECULE
ZINC000100018451
40    42    1     0     0
SMALL
USER_CHARGES
@<TRIPOS>ATOM
1      C1      0.3030    2.0524    0.9332 C.3      1 ZINC000100018451   -0.6700
2      S2      0.2739    0.2741    0.5765 S.o2     1 ZINC000100018451    2.6000
3      O3      1.2665   -0.4030    1.3351 O.2      1 ZINC000100018451   -0.9400
4      O4     -1.0638   -0.2031    0.5286 O.2      1 ZINC000100018451   -0.9400
5      N5      0.8053    0.1576   -0.9876 N.am     1 ZINC000100018451   -1.0400
6      C6      2.0706    0.6299   -1.3306 C.ar     1 ZINC000100018451    0.2000
7      C7      3.1168    0.5069   -0.4317 C.ar     1 ZINC000100018451   -0.1700
8      C8      4.3788    0.9759   -0.7689 C.ar     1 ZINC000100018451    0.1400
9      C9      4.5816    1.5734   -2.0254 C.ar     1 ZINC000100018451   -0.1900
10     C10     3.5226    1.6955   -2.9285 C.ar     1 ZINC000100018451   -0.0800
11     C11     2.2757    1.2201   -2.5837 C.ar     1 ZINC000100018451    0.0800
12     O12     1.2399    1.3349   -3.4578 O.3      1 ZINC000100018451   -0.2500
13     C13     1.5031    1.8228   -4.6983 C.ar     1 ZINC000100018451    0.0700
14     C14     2.2509    1.0736   -5.5956 C.ar     1 ZINC000100018451   -0.1400
15     C15     2.5166    1.5717   -6.8562 C.ar     1 ZINC000100018451   -0.1000
16     C16     2.0386    2.8159   -7.2243 C.ar     1 ZINC000100018451   -0.1100
17     C17     1.2932    3.5645   -6.3321 C.ar     1 ZINC000100018451   -0.1000
18     C18     1.0197    3.0686   -5.0721 C.ar     1 ZINC000100018451   -0.1200
19     C19     5.9301    2.0623   -2.3573 C.2      1 ZINC000100018451    0.4200
20     O20     6.1680    2.5898   -3.4311 O.2      1 ZINC000100018451   -0.4400
21     C21     6.9456    1.8940   -1.3722 C.2      1 ZINC000100018451   -0.0600
22     N22     8.2549    2.3380   -1.6226 N.am     1 ZINC000100018451   -0.6700
23     C23     8.9454    1.8441   -2.6694 C.2      1 ZINC000100018451    0.4900
24     O24     8.4072    1.0840   -3.4466 O.2      1 ZINC000100018451   -0.5200
25     C25     6.6406    1.3056   -0.1969 C.2      1 ZINC000100018451    0.1200
26     O26     5.4100    0.8651    0.0940 O.3      1 ZINC000100018451   -0.2100
27     H27     1.3195    2.4292    0.8196 H        1 ZINC000100018451    0.1300
28     H28    -0.3571    2.5730    0.2393 H        1 ZINC000100018451    0.1400
29     H29    -0.0360    2.2236    1.9549 H        1 ZINC000100018451    0.1400
30     H30     0.2357   -0.2394   -1.6651 H        1 ZINC000100018451    0.4400
31     H31     2.9507    0.0467    0.5311 H        1 ZINC000100018451    0.1900
32     H32     3.6813    2.1549   -3.8930 H        1 ZINC000100018451    0.1600
33     H33     2.6251    0.1020   -5.3084 H        1 ZINC000100018451    0.1300
34     H34     3.0986    0.9891   -7.5550 H        1 ZINC000100018451    0.1300
35     H35     2.2481    3.2039   -8.2102 H        1 ZINC000100018451    0.1300
36     H36     0.9213    4.5362   -6.6219 H        1 ZINC000100018451    0.1300
37     H37     0.4372    3.6536   -4.3758 H        1 ZINC000100018451    0.1300
38     H38     8.6619    3.0000   -1.0421 H        1 ZINC000100018451    0.4100
39     H39     9.9778    2.1250   -2.8162 H        1 ZINC000100018451    0.1500
40     H40     7.4212    1.1852    0.5397 H        1 ZINC000100018451    0.2100
@<TRIPOS>BOND
1     1     2     1
2     1     27    1
3     1     28    1
4     1     29    1
5     2     3     2
6     2     4     2
7     2     5     am
8     5     6     1
9     5     30    1
10    6     11    ar
11    6     7     ar
12    7     8     ar
13    7     31    1
14    8     26    1
15    8     9     ar
16    9     10    ar
17    9     19    1
18    10    11    ar
19    10    32    1
20    11    12    1
21    12    13    1
22    13    18    ar
23    13    14    ar
24    14    15    ar
25    14    33    1
26    15    16    ar
27    15    34    1
28    16    17    ar
29    16    35    1
30    17    18    ar
31    17    36    1
32    18    37    1
33    19    20    2
34    19    21    1
35    21    22    1
36    21    25    2
37    22    23    am
38    22    38    1
39    23    24    2
40    23    39    1
41    25    26    1
42    25    40    1
@<TRIPOS>SUBSTRUCTURE
1   ZINC000100018451 1     RESIDUE    1   A     ZIN   1
