@<TRIPOS>MOLECULE
ZINC000009230249
  29   30    0    0    0
SMALL
NO_CHARGES


@<TRIPOS>ATOM
   1 C1            -0.0173     1.4248     0.0099 C.3     
   2 O2             0.0021    -0.0041     0.0020 O.3     
   3 C3             0.6062    -0.6075    -1.0564 C.ar    
   4 C4             1.1712     0.1586    -2.0594 C.ar    
   5 C5             1.7899    -0.4631    -3.1433 C.ar    
   6 C6             2.3976     0.3549    -4.2210 C.2     
   7 N7             2.3566     1.6647    -4.1496 N.2     
   8 N8             2.8678     2.4173    -5.0554 N.am    
   9 C9             3.4800     1.9059    -6.1398 C.2     
  10 O10            3.9564     2.6478    -6.9838 O.2     
  11 C11            3.5675     0.5044    -6.2934 C.2     
  12 C12            3.0243    -0.2796    -5.3191 C.2     
  13 C13            1.8367    -1.8540    -3.2123 C.ar    
  14 C14            1.2710    -2.6148    -2.2091 C.ar    
  15 C15            0.6611    -1.9976    -1.1278 C.ar    
  16 O16            0.1050    -2.7504    -0.1417 O.3     
  17 C17            0.1860    -4.1698    -0.2851 C.3     
  18 F18           -0.4607    -4.5572    -1.4636 F       
  19 F19            1.5292    -4.5569    -0.3413 F       
  20 H20            1.0053     1.8021     0.0021 H       
  21 H21           -0.5445     1.7859    -0.8732 H       
  22 H22           -0.5275     1.7763     0.9067 H       
  23 H23            1.1331     1.2365    -2.0034 H       
  24 H24            2.8112     3.3805    -4.9558 H       
  25 H25            4.0528     0.0677    -7.1538 H       
  26 H26            3.0641    -1.3567    -5.3880 H       
  27 H27            2.3155    -2.3370    -4.0513 H       
  28 H28            1.3078    -3.6927    -2.2642 H       
  29 H29           -0.2949    -4.6492     0.5676 H       
@<TRIPOS>BOND
   1    1    2 1
   2    1   20 1
   3    1   21 1
   4    1   22 1
   5    2    3 1
   6    3   15 ar
   7    3    4 ar
   8    4    5 ar
   9    4   23 1
  10    5    6 1
  11    5   13 ar
  12    6   12 1
  13    6    7 2
  14    7    8 1
  15    8    9 am
  16    8   24 1
  17    9   10 2
  18    9   11 1
  19   11   12 2
  20   11   25 1
  21   12   26 1
  22   13   14 ar
  23   13   27 1
  24   14   15 ar
  25   14   28 1
  26   15   16 1
  27   16   17 1
  28   17   18 1
  29   17   19 1
  30   17   29 1


