@<TRIPOS>MOLECULE
ZINC000003807687
51    53    1     0     0
SMALL
USER_CHARGES
@<TRIPOS>ATOM
1      O1      0.0021   -0.0041    0.0020 O.2      1 ZINC000003807687   -0.4100
2      C2     -0.0143    1.2034    0.0087 C.2      1 ZINC000003807687    0.3500
3      C3      1.2804    1.9746    0.0004 C.3      1 ZINC000003807687    0.0300
4      O4      2.3790    1.0609   -0.0150 O.3      1 ZINC000003807687   -0.5500
5      C5     -1.3295    1.9391    0.0189 C.3      1 ZINC000003807687    0.1000
6      H6     -1.2981    2.7641   -0.6927 H        1 ZINC000003807687    0.1100
7      C7     -1.6180    2.4786    1.4357 C.3      1 ZINC000003807687   -0.1200
8      C8     -3.1480    2.2668    1.5833 C.3      1 ZINC000003807687   -0.1300
9      C9     -3.3541    0.9398    0.8109 C.3      1 ZINC000003807687    0.1000
10     N10    -2.4204    1.0179   -0.3314 N.am     1 ZINC000003807687   -0.6100
11     C11    -2.5483    0.3537   -1.4972 C.2      1 ZINC000003807687    0.5300
12     O12    -1.7178    0.4947   -2.3697 O.2      1 ZINC000003807687   -0.5200
13     C13    -3.7233   -0.5641   -1.7166 C.3      1 ZINC000003807687    0.1500
14     H14    -4.6281   -0.1110   -1.3116 H        1 ZINC000003807687    0.1000
15     C15    -3.4639   -1.9219   -1.0304 C.3      1 ZINC000003807687   -0.1200
16     C16    -4.0619   -2.9398   -2.0371 C.3      1 ZINC000003807687   -0.1300
17     C17    -3.7242   -2.2712   -3.3931 C.3      1 ZINC000003807687    0.1000
18     N18    -3.8939   -0.8232   -3.1537 N.am     1 ZINC000003807687   -0.6200
19     C19    -4.1586    0.1031   -4.0962 C.2      1 ZINC000003807687    0.7300
20     O20    -4.2790    1.2718   -3.7832 O.2      1 ZINC000003807687   -0.5800
21     N21    -4.2900   -0.2661   -5.3857 N.am     1 ZINC000003807687   -0.7400
22     C22    -4.5778    0.7408   -6.4103 C.3      1 ZINC000003807687    0.1800
23     C23    -4.6753    0.0728   -7.7576 C.ar     1 ZINC000003807687   -0.1100
24     C24    -3.5451   -0.0730   -8.5401 C.ar     1 ZINC000003807687   -0.1000
25     C25    -3.6345   -0.6857   -9.7761 C.ar     1 ZINC000003807687   -0.1200
26     C26    -4.8540   -1.1530  -10.2293 C.ar     1 ZINC000003807687   -0.1100
27     C27    -5.9840   -1.0080   -9.4463 C.ar     1 ZINC000003807687   -0.1200
28     C28    -5.8938   -0.3991   -8.2086 C.ar     1 ZINC000003807687   -0.1000
29     H29     1.3211    2.6067   -0.8866 H        1 ZINC000003807687    0.0800
30     H30     1.3381    2.5972    0.8933 H        1 ZINC000003807687    0.0800
31     H31     3.2462    1.4886   -0.0209 H        1 ZINC000003807687    0.3900
32     H32    -1.0749    1.9033    2.1854 H        1 ZINC000003807687    0.0800
33     H33    -1.3670    3.5371    1.5038 H        1 ZINC000003807687    0.1000
34     H34    -3.4278    2.1566    2.6309 H        1 ZINC000003807687    0.0900
35     H35    -3.7020    3.0809    1.1160 H        1 ZINC000003807687    0.0800
36     H36    -3.1080    0.0890    1.4462 H        1 ZINC000003807687    0.0700
37     H37    -4.3815    0.8638    0.4549 H        1 ZINC000003807687    0.0800
38     H38    -2.3948   -2.0904   -0.9007 H        1 ZINC000003807687    0.0900
39     H39    -3.9828   -1.9757   -0.0734 H        1 ZINC000003807687    0.0900
40     H40    -3.5738   -3.9104   -1.9478 H        1 ZINC000003807687    0.0900
41     H41    -5.1398   -3.0328   -1.9050 H        1 ZINC000003807687    0.0800
42     H42    -2.6958   -2.4917   -3.6791 H        1 ZINC000003807687    0.0700
43     H43    -4.4147   -2.6101   -4.1655 H        1 ZINC000003807687    0.0800
44     H44    -4.1941   -1.1985   -5.6355 H        1 ZINC000003807687    0.4000
45     H45    -5.5223    1.2338   -6.1800 H        1 ZINC000003807687    0.0800
46     H46    -3.7770    1.4800   -6.4283 H        1 ZINC000003807687    0.0800
47     H47    -2.5924    0.2920   -8.1861 H        1 ZINC000003807687    0.1200
48     H48    -2.7517   -0.7990  -10.3877 H        1 ZINC000003807687    0.1200
49     H49    -4.9240   -1.6311  -11.1952 H        1 ZINC000003807687    0.1200
50     H50    -6.9369   -1.3727   -9.8006 H        1 ZINC000003807687    0.1200
51     H51    -6.7767   -0.2858   -7.5969 H        1 ZINC000003807687    0.1200
@<TRIPOS>BOND
1     1     2     2
2     2     3     1
3     2     5     1
4     3     4     1
5     3     29    1
6     3     30    1
7     4     31    1
8     5     6     1
9     5     10    1
10    5     7     1
11    7     8     1
12    7     32    1
13    7     33    1
14    8     9     1
15    8     34    1
16    8     35    1
17    9     10    1
18    9     36    1
19    9     37    1
20    10    11    am
21    11    12    2
22    11    13    1
23    13    14    1
24    13    18    1
25    13    15    1
26    15    16    1
27    15    38    1
28    15    39    1
29    16    17    1
30    16    40    1
31    16    41    1
32    17    18    1
33    17    42    1
34    17    43    1
35    18    19    am
36    19    20    2
37    19    21    am
38    21    22    1
39    21    44    1
40    22    23    1
41    22    45    1
42    22    46    1
43    23    28    ar
44    23    24    ar
45    24    25    ar
46    24    47    1
47    25    26    ar
48    25    48    1
49    26    27    ar
50    26    49    1
51    27    28    ar
52    27    50    1
53    28    51    1
@<TRIPOS>SUBSTRUCTURE
1   ZINC000003807687 1     RESIDUE    1   A     ZIN   1
