@<TRIPOS>MOLECULE
ZINC000034509627
56    58    1     0     0
SMALL
USER_CHARGES
@<TRIPOS>ATOM
1      C1     -0.6555    1.4271   -0.5165 C.3      1 ZINC000034509627   -0.1500
2      C2     -0.7414   -0.1001   -0.5531 C.3      1 ZINC000034509627   -0.1200
3      C3     -2.1767   -0.5374   -0.2535 C.3      1 ZINC000034509627    0.0600
4      N4     -2.2590   -1.9997   -0.2885 N.2      1 ZINC000034509627   -0.4900
5      C5     -2.5415   -2.6631    0.7983 C.2      1 ZINC000034509627    0.3600
6      S6     -2.8639   -1.9801    2.4013 S.3      1 ZINC000034509627   -0.0100
7      C7     -3.1299   -3.5514    3.1807 C.2      1 ZINC000034509627   -0.2200
8      C8     -3.4372   -3.7915    4.4802 C.2      1 ZINC000034509627    0.0600
9      C9     -3.7455   -2.6729    5.3807 C.ar     1 ZINC000034509627   -0.1200
10     C10    -3.6007   -2.8250    6.7648 C.ar     1 ZINC000034509627   -0.0300
11     C11    -3.8912   -1.7731    7.6051 C.ar     1 ZINC000034509627   -0.2000
12     C12    -4.3277   -0.5624    7.0818 C.ar     1 ZINC000034509627    0.1600
13     O13    -4.6127    0.4714    7.9151 O.3      1 ZINC000034509627   -0.2800
14     C14    -4.4409    0.2425    9.3151 C.3      1 ZINC000034509627    0.0300
15     C15    -4.8076    1.5110   10.0881 C.3      1 ZINC000034509627    0.1100
16     H16    -5.8173    1.8212    9.8191 H        1 ZINC000034509627    0.1200
17     O17    -3.8859    2.5523    9.7594 O.3      1 ZINC000034509627   -0.5400
18     C18    -4.7439    1.2290   11.5905 C.3      1 ZINC000034509627    0.0500
19     O19    -5.1981    2.3769   12.3103 O.3      1 ZINC000034509627   -0.5600
20     C20    -4.4736   -0.4051    5.7072 C.ar     1 ZINC000034509627   -0.0700
21     Cl21   -5.0190    1.1112    5.0614 Cl       1 ZINC000034509627   -0.0400
22     C22    -4.1799   -1.4487    4.8574 C.ar     1 ZINC000034509627   -0.0500
23     C23    -2.9441   -4.5324    2.1074 C.2      1 ZINC000034509627    0.5600
24     O24    -3.0549   -5.7301    2.2939 O.2      1 ZINC000034509627   -0.4700
25     N25    -2.6528   -4.0254    0.9212 N.am     1 ZINC000034509627   -0.4900
26     C26    -2.4520   -4.8620   -0.1845 C.ar     1 ZINC000034509627    0.1200
27     C27    -3.5226   -5.2099   -0.9971 C.ar     1 ZINC000034509627   -0.0900
28     C28    -3.3214   -6.0350   -2.0865 C.ar     1 ZINC000034509627   -0.1200
29     C29    -2.0555   -6.5143   -2.3681 C.ar     1 ZINC000034509627   -0.1000
30     C30    -0.9871   -6.1699   -1.5603 C.ar     1 ZINC000034509627   -0.1100
31     C31    -1.1807   -5.3404   -0.4733 C.ar     1 ZINC000034509627   -0.0600
32     C32    -0.0159   -4.9656    0.4064 C.3      1 ZINC000034509627   -0.1100
33     H33     0.3670    1.7386   -0.7299 H        1 ZINC000034509627    0.0600
34     H34    -1.3270    1.8468   -1.2655 H        1 ZINC000034509627    0.0600
35     H35    -0.9452    1.7837    0.4719 H        1 ZINC000034509627    0.0600
36     H36    -0.4517   -0.4567   -1.5415 H        1 ZINC000034509627    0.0700
37     H37    -0.0699   -0.5198    0.1959 H        1 ZINC000034509627    0.0600
38     H38    -2.4664   -0.1807    0.7349 H        1 ZINC000034509627    0.0500
39     H39    -2.8482   -0.1177   -1.0025 H        1 ZINC000034509627    0.1000
40     H40    -3.4550   -4.8052    4.8525 H        1 ZINC000034509627    0.1600
41     H41    -3.2621   -3.7658    7.1731 H        1 ZINC000034509627    0.1400
42     H42    -3.7797   -1.8898    8.6729 H        1 ZINC000034509627    0.1400
43     H43    -5.0878   -0.5756    9.6316 H        1 ZINC000034509627    0.0800
44     H44    -3.4016   -0.0176    9.5159 H        1 ZINC000034509627    0.0700
45     H45    -2.9657    2.3446    9.9720 H        1 ZINC000034509627    0.3700
46     H46    -5.3803    0.3764   11.8275 H        1 ZINC000034509627    0.0600
47     H47    -3.7158    1.0051   11.8749 H        1 ZINC000034509627    0.0500
48     H48    -5.1848    2.2693   13.2712 H        1 ZINC000034509627    0.3900
49     H49    -4.2933   -1.3261    3.7904 H        1 ZINC000034509627    0.1500
50     H50    -4.5118   -4.8361   -0.7774 H        1 ZINC000034509627    0.1200
51     H51    -4.1540   -6.3063   -2.7188 H        1 ZINC000034509627    0.1300
52     H52    -1.9008   -7.1592   -3.2205 H        1 ZINC000034509627    0.1300
53     H53     0.0005   -6.5464   -1.7824 H        1 ZINC000034509627    0.1300
54     H54     0.4488   -4.0560    0.0260 H        1 ZINC000034509627    0.0800
55     H55    -0.3688   -4.7954    1.4235 H        1 ZINC000034509627    0.0600
56     H56     0.7148   -5.7744    0.4059 H        1 ZINC000034509627    0.0700
@<TRIPOS>BOND
1     1     2     1
2     1     33    1
3     1     34    1
4     1     35    1
5     2     3     1
6     2     36    1
7     2     37    1
8     3     4     1
9     3     38    1
10    3     39    1
11    4     5     2
12    5     25    1
13    5     6     1
14    6     7     1
15    7     8     2
16    7     23    1
17    8     9     1
18    8     40    1
19    9     22    ar
20    9     10    ar
21    10    11    ar
22    10    41    1
23    11    12    ar
24    11    42    1
25    12    13    1
26    12    20    ar
27    13    14    1
28    14    15    1
29    14    43    1
30    14    44    1
31    15    16    1
32    15    17    1
33    15    18    1
34    17    45    1
35    18    19    1
36    18    46    1
37    18    47    1
38    19    48    1
39    20    21    1
40    20    22    ar
41    22    49    1
42    23    24    2
43    23    25    am
44    25    26    1
45    26    31    ar
46    26    27    ar
47    27    28    ar
48    27    50    1
49    28    29    ar
50    28    51    1
51    29    30    ar
52    29    52    1
53    30    31    ar
54    30    53    1
55    31    32    1
56    32    54    1
57    32    55    1
58    32    56    1
@<TRIPOS>SUBSTRUCTURE
1   ZINC000034509627 1     RESIDUE    1   A     ZIN   1
