@<TRIPOS>MOLECULE
ZINC000033980648
42    44    1     0     0
SMALL
USER_CHARGES
@<TRIPOS>ATOM
1      C1      0.8669    1.4708    0.2011 C.3      1 ZINC000033980648   -0.0500
2      N2      0.8894    0.0021    0.1875 N.4      1 ZINC000033980648   -0.5100
3      H3      1.7826   -0.3238    0.5252 H        1 ZINC000033980648    0.4300
4      H4      0.1555   -0.3511    0.7830 H        1 ZINC000033980648    0.4300
5      C5      0.6800   -0.4781   -1.1849 C.3      1 ZINC000033980648    0.0500
6      C6      0.7031   -1.9849   -1.1990 C.ar     1 ZINC000033980648   -0.2000
7      C7      1.8981   -2.6548   -1.3873 C.ar     1 ZINC000033980648   -0.0700
8      C8      1.9226   -4.0356   -1.4011 C.ar     1 ZINC000033980648   -0.1500
9      C9      0.7454   -4.7514   -1.2252 C.ar     1 ZINC000033980648    0.2000
10     N10     0.7668   -6.1497   -1.2382 N.am     1 ZINC000033980648   -0.6800
11     C11    -0.2841   -6.8352   -1.7302 C.2      1 ZINC000033980648    0.5800
12     O12    -1.2089   -6.2401   -2.2501 O.2      1 ZINC000033980648   -0.4800
13     C13    -0.3129   -8.3034   -1.6384 C.2      1 ZINC000033980648   -0.1700
14     C14     0.6361   -9.1179   -1.0833 C.2      1 ZINC000033980648    0.0300
15     N15     0.2292  -10.4092   -1.2015 N.pl3    1 ZINC000033980648   -0.5200
16     C16    -0.9601  -10.4804   -1.8162 C.2      1 ZINC000033980648    0.0800
17     C17    -1.3645   -9.2002   -2.1154 C.2      1 ZINC000033980648   -0.2000
18     C18    -2.6298   -8.9198   -2.7992 C.2      1 ZINC000033980648    0.4100
19     O19    -3.0857   -7.7988   -2.8904 O.2      1 ZINC000033980648   -0.4200
20     C20    -3.3307  -10.1360   -3.3872 C.3      1 ZINC000033980648   -0.1600
21     C21    -3.2398  -11.2802   -2.3721 C.3      1 ZINC000033980648   -0.1100
22     C22    -1.7848  -11.6973   -2.1529 C.3      1 ZINC000033980648   -0.0600
23     C23    -0.4530   -4.0754   -1.0358 C.ar     1 ZINC000033980648   -0.1200
24     C24    -0.4699   -2.6945   -1.0179 C.ar     1 ZINC000033980648   -0.0700
25     H25     1.6598    1.8523   -0.4422 H        1 ZINC000033980648    0.1200
26     H26    -0.0980    1.8228   -0.1637 H        1 ZINC000033980648    0.1200
27     H27     1.0223    1.8271    1.2195 H        1 ZINC000033980648    0.1300
28     H28    -0.2849   -0.1261   -1.5498 H        1 ZINC000033980648    0.1400
29     H29     1.4729   -0.0966   -1.8283 H        1 ZINC000033980648    0.1400
30     H30     2.8131   -2.0977   -1.5240 H        1 ZINC000033980648    0.1300
31     H31     2.8561   -4.5583   -1.5489 H        1 ZINC000033980648    0.1400
32     H32     1.5381   -6.6262   -0.8931 H        1 ZINC000033980648    0.4100
33     H33     1.5576   -8.7886   -0.6264 H        1 ZINC000033980648    0.1800
34     H34     0.7316  -11.1759   -0.8842 H        1 ZINC000033980648    0.4300
35     H35    -4.3768   -9.8992   -3.5814 H        1 ZINC000033980648    0.1000
36     H36    -2.8411  -10.4290   -4.3160 H        1 ZINC000033980648    0.1000
37     H37    -3.6627  -10.9523   -1.4225 H        1 ZINC000033980648    0.0700
38     H38    -3.8075  -12.1342   -2.7416 H        1 ZINC000033980648    0.0900
39     H39    -1.3957  -12.1525   -3.0636 H        1 ZINC000033980648    0.0900
40     H40    -1.7315  -12.4157   -1.3349 H        1 ZINC000033980648    0.0900
41     H41    -1.3702   -4.6290   -0.8991 H        1 ZINC000033980648    0.1500
42     H42    -1.4014   -2.1683   -0.8704 H        1 ZINC000033980648    0.1300
@<TRIPOS>BOND
1     1     2     1
2     1     25    1
3     1     26    1
4     1     27    1
5     2     3     1
6     2     4     1
7     2     5     1
8     5     6     1
9     5     28    1
10    5     29    1
11    6     24    ar
12    6     7     ar
13    7     8     ar
14    7     30    1
15    8     9     ar
16    8     31    1
17    9     10    1
18    9     23    ar
19    10    11    am
20    10    32    1
21    11    12    2
22    11    13    1
23    13    17    1
24    13    14    2
25    14    15    1
26    14    33    1
27    15    16    1
28    15    34    1
29    16    22    1
30    16    17    2
31    17    18    1
32    18    19    2
33    18    20    1
34    20    21    1
35    20    35    1
36    20    36    1
37    21    22    1
38    21    37    1
39    21    38    1
40    22    39    1
41    22    40    1
42    23    24    ar
43    23    41    1
44    24    42    1
@<TRIPOS>SUBSTRUCTURE
1   ZINC000033980648 1     RESIDUE    1   A     ZIN   1
