@<TRIPOS>MOLECULE
ZINC000003875333
61    64    1     0     0
SMALL
USER_CHARGES
@<TRIPOS>ATOM
1      C1      2.5435    1.8215   -0.1981 C.3      1 ZINC000003875333   -0.1500
2      C2      2.4984    0.3153   -0.1770 C.2      1 ZINC000003875333    0.4600
3      O3      2.8499   -0.2859    0.8104 O.2      1 ZINC000003875333   -0.5100
4      O4      2.0677   -0.3584   -1.2551 O.3      1 ZINC000003875333   -0.3400
5      C5      2.0511   -1.8074   -1.1637 C.3      1 ZINC000003875333    0.0100
6      C6      1.5420   -2.3866   -2.4585 C.2      1 ZINC000003875333    0.3300
7      O7      1.2258   -1.6538   -3.3647 O.2      1 ZINC000003875333   -0.4000
8      C8      1.4275   -3.8803   -2.6223 C.3      1 ZINC000003875333    0.1100
9      O9      2.3002   -4.5463   -1.7074 O.3      1 ZINC000003875333   -0.5400
10     C10    -0.0364   -4.3342   -2.3976 C.3      1 ZINC000003875333   -0.1400
11     C11    -0.4715   -5.0677   -3.6956 C.3      1 ZINC000003875333   -0.1100
12     C12     0.8629   -5.5266   -4.2941 C.3      1 ZINC000003875333   -0.0800
13     H13     1.2498   -6.3850   -3.7449 H        1 ZINC000003875333    0.0800
14     C14     0.8533   -5.8148   -5.7843 C.3      1 ZINC000003875333   -0.0800
15     H15     0.5176   -4.9342   -6.3320 H        1 ZINC000003875333    0.1000
16     C16    -0.0743   -6.9979   -6.0765 C.3      1 ZINC000003875333   -0.1100
17     C17    -0.1284   -7.2321   -7.5876 C.3      1 ZINC000003875333   -0.1000
18     C18     1.2862   -7.4220   -8.1038 C.2      1 ZINC000003875333   -0.0200
19     C19     1.5197   -8.4642   -8.9011 C.2      1 ZINC000003875333   -0.2500
20     C20     2.8644   -8.6879   -9.4426 C.2      1 ZINC000003875333    0.3900
21     O21     3.2201   -9.7780   -9.8392 O.2      1 ZINC000003875333   -0.4600
22     C22     3.7863   -7.4848   -9.4810 C.3      1 ZINC000003875333   -0.1700
23     C23     3.7477   -6.8347   -8.0988 C.3      1 ZINC000003875333   -0.1000
24     C24     2.3369   -6.4316   -7.7067 C.3      1 ZINC000003875333   -0.0300
25     C25     2.0173   -5.1012   -8.3912 C.3      1 ZINC000003875333   -0.1400
26     C26     2.2884   -6.1738   -6.1962 C.3      1 ZINC000003875333   -0.0600
27     H27     2.5703   -7.0866   -5.6716 H        1 ZINC000003875333    0.0800
28     C28     3.2840   -5.0718   -5.8454 C.3      1 ZINC000003875333    0.1100
29     H29     4.2930   -5.4221   -6.0629 H        1 ZINC000003875333    0.0600
30     O30     3.0074   -3.9216   -6.6470 O.3      1 ZINC000003875333   -0.5400
31     C31     3.1985   -4.6794   -4.3620 C.3      1 ZINC000003875333   -0.1300
32     C32     1.7591   -4.2816   -4.0560 C.3      1 ZINC000003875333   -0.0400
33     C33     1.3046   -3.1911   -5.0281 C.3      1 ZINC000003875333   -0.1400
34     H34     3.5153    2.1507   -0.5659 H        1 ZINC000003875333    0.1100
35     H35     1.7596    2.1993   -0.8544 H        1 ZINC000003875333    0.1000
36     H36     2.3883    2.2038    0.8108 H        1 ZINC000003875333    0.1100
37     H37     3.0612   -2.1712   -0.9753 H        1 ZINC000003875333    0.1100
38     H38     1.3968   -2.1125   -0.3471 H        1 ZINC000003875333    0.1000
39     H39     2.1237   -4.3450   -0.7782 H        1 ZINC000003875333    0.3800
40     H40    -0.0910   -5.0141   -1.5474 H        1 ZINC000003875333    0.0900
41     H41    -0.6746   -3.4675   -2.2258 H        1 ZINC000003875333    0.0700
42     H42    -1.1039   -5.9240   -3.4612 H        1 ZINC000003875333    0.0700
43     H43    -0.9827   -4.3832   -4.3726 H        1 ZINC000003875333    0.0800
44     H44     0.3082   -7.8912   -5.5828 H        1 ZINC000003875333    0.0700
45     H45    -1.0752   -6.7761   -5.7061 H        1 ZINC000003875333    0.0700
46     H46    -0.7171   -8.1250   -7.7981 H        1 ZINC000003875333    0.0800
47     H47    -0.5825   -6.3693   -8.0750 H        1 ZINC000003875333    0.0900
48     H48     0.7182   -9.1443   -9.1489 H        1 ZINC000003875333    0.1300
49     H49     4.8026   -7.8041   -9.7120 H        1 ZINC000003875333    0.0900
50     H50     3.4396   -6.7764  -10.2334 H        1 ZINC000003875333    0.1000
51     H51     4.1334   -7.5406   -7.3632 H        1 ZINC000003875333    0.0600
52     H52     4.3817   -5.9481   -8.1052 H        1 ZINC000003875333    0.0800
53     H53     1.7201   -5.2858   -9.4235 H        1 ZINC000003875333    0.0400
54     H54     1.2030   -4.6065   -7.8617 H        1 ZINC000003875333    0.0700
55     H55     2.9010   -4.4632   -8.3760 H        1 ZINC000003875333    0.1000
56     H56     3.6000   -3.1754   -6.4818 H        1 ZINC000003875333    0.3700
57     H57     3.4507   -5.5356   -3.7363 H        1 ZINC000003875333    0.0800
58     H58     3.8804   -3.8543   -4.1563 H        1 ZINC000003875333    0.0700
59     H59     1.2183   -3.6107   -6.0304 H        1 ZINC000003875333    0.1000
60     H60     0.3363   -2.8031   -4.7120 H        1 ZINC000003875333    0.0600
61     H61     2.0355   -2.3824   -5.0345 H        1 ZINC000003875333    0.0600
@<TRIPOS>BOND
1     1     2     1
2     1     34    1
3     1     35    1
4     1     36    1
5     2     3     2
6     2     4     1
7     4     5     1
8     5     6     1
9     5     37    1
10    5     38    1
11    6     7     2
12    6     8     1
13    8     32    1
14    8     9     1
15    8     10    1
16    9     39    1
17    10    11    1
18    10    40    1
19    10    41    1
20    11    12    1
21    11    42    1
22    11    43    1
23    12    13    1
24    12    32    1
25    12    14    1
26    14    15    1
27    14    26    1
28    14    16    1
29    16    17    1
30    16    44    1
31    16    45    1
32    17    18    1
33    17    46    1
34    17    47    1
35    18    24    1
36    18    19    2
37    19    20    1
38    19    48    1
39    20    21    2
40    20    22    1
41    22    23    1
42    22    49    1
43    22    50    1
44    23    24    1
45    23    51    1
46    23    52    1
47    24    25    1
48    24    26    1
49    25    53    1
50    25    54    1
51    25    55    1
52    26    27    1
53    26    28    1
54    28    29    1
55    28    30    1
56    28    31    1
57    30    56    1
58    31    32    1
59    31    57    1
60    31    58    1
61    32    33    1
62    33    59    1
63    33    60    1
64    33    61    1
@<TRIPOS>SUBSTRUCTURE
1   ZINC000003875333 1     RESIDUE    1   A     ZIN   1
