@<TRIPOS>MOLECULE
ZINC000000602818
  54   57    0    0    0
SMALL
USER_CHARGES
NO_NAME
@<TRIPOS>ATOM
    1 C1       -0.0173     1.4248     0.0099 C.3    1 <0>       0.0300
    2 O2        0.0021    -0.0041     0.0020 O.3    1 <0>      -0.3000
    3 C3       -1.2010    -0.6379     0.0101 C.ar   1 <0>       0.0900
    4 C4       -2.3738     0.0991     0.0195 C.ar   1 <0>      -0.1800
    5 C5       -3.5965    -0.5469     0.0272 C.ar   1 <0>      -0.1300
    6 C6       -3.6521    -1.9280     0.0256 C.ar   1 <0>      -0.1200
    7 C7       -2.4854    -2.6700     0.0167 C.ar   1 <0>      -0.1500
    8 C8       -1.2569    -2.0291     0.0032 C.ar   1 <0>       0.1300
    9 O9       -0.1087    -2.7570    -0.0060 O.3    1 <0>      -0.2000
   10 C10      -0.2124    -4.1134    -0.0015 C.ar   1 <0>      -0.0900
   11 C11      -0.2612    -4.8237     1.2010 C.ar   1 <0>       0.4900
   12 N12      -0.2045    -4.1551     2.4168 N.pl3  1 <0>      -1.0300
   13 S13      -0.2633    -5.0087     3.8347 S.o2   1 <0>       2.6400
   14 O14      -1.5605    -5.5849     3.9026 O.2    1 <0>      -0.9900
   15 O15       0.9317    -5.7755     3.8913 O.2    1 <0>      -1.0000
   16 C16      -0.1680    -3.8410     5.1507 C.ar   1 <0>      -0.4000
   17 C17       1.0670    -3.4757     5.6515 C.ar   1 <0>      -0.0800
   18 C18       1.1311    -2.5556     6.6870 C.ar   1 <0>      -0.1000
   19 C19      -0.0549    -2.0355     7.1818 C.ar   1 <0>      -0.1100
   20 C20      -0.0377    -1.0322     8.3062 C.3    1 <0>      -0.1100
   21 C21      -1.2533    -2.4483     6.6304 C.ar   1 <0>       0.0700
   22 N22      -1.2760    -3.3216     5.6428 N.ar   1 <0>      -0.3900
   23 N23      -0.3631    -6.1481     1.1642 N.ar   1 <0>      -0.6100
   24 C24      -0.4181    -6.7928     0.0076 C.ar   1 <0>       0.4200
   25 C25      -0.5317    -8.2720     0.0108 C.ar   1 <0>       0.0100
   26 C26      -0.5867    -8.9852     1.2116 C.ar   1 <0>      -0.1200
   27 C27      -0.6928   -10.3607     1.1691 C.ar   1 <0>       0.0900
   28 N28      -0.7422   -11.0007     0.0169 N.ar   1 <0>      -0.4800
   29 C29      -0.6933   -10.3658    -1.1382 C.ar   1 <0>       0.0800
   30 C30      -0.5926    -8.9901    -1.1867 C.ar   1 <0>      -0.1300
   31 N31      -0.3749    -6.1523    -1.1521 N.ar   1 <0>      -0.6100
   32 C32      -0.2784    -4.8289    -1.1963 C.ar   1 <0>       0.3700
   33 O33      -0.2349    -4.1823    -2.3880 O.3    1 <0>      -0.3000
   34 C34      -0.2973    -4.9885    -3.5662 C.3    1 <0>       0.0400
   35 H35       1.0053     1.8021     0.0021 H      1 <0>       0.0900
   36 H36      -0.5445     1.7859    -0.8732 H      1 <0>       0.0500
   37 H37      -0.5275     1.7763     0.9067 H      1 <0>       0.0500
   38 H38      -2.3334     1.1784     0.0211 H      1 <0>       0.1300
   39 H39      -4.5101     0.0290     0.0349 H      1 <0>       0.1200
   40 H40      -4.6090    -2.4287     0.0317 H      1 <0>       0.1200
   41 H41      -2.5316    -3.7490     0.0163 H      1 <0>       0.1200
   42 H42       1.9709    -3.9017     5.2419 H      1 <0>       0.1500
   43 H43       2.0822    -2.2518     7.0985 H      1 <0>       0.1400
   44 H44       0.0169    -0.0249     7.8935 H      1 <0>       0.0800
   45 H45      -0.9477    -1.1337     8.8976 H      1 <0>       0.0700
   46 H46       0.8300    -1.2125     8.9407 H      1 <0>       0.0700
   47 H47      -2.1816    -2.0481     7.0104 H      1 <0>       0.1600
   48 H48      -0.5464    -8.4677     2.1587 H      1 <0>       0.1500
   49 H49      -0.7356   -10.9205     2.0917 H      1 <0>       0.1600
   50 H50      -0.7368   -10.9296    -2.0583 H      1 <0>       0.1600
   51 H51      -0.5533    -8.4767    -2.1361 H      1 <0>       0.1500
   52 H52      -1.2308    -5.5513    -3.5723 H      1 <0>       0.0600
   53 H53      -0.2533    -4.3483    -4.4473 H      1 <0>       0.0900
   54 H54       0.5445    -5.6809    -3.5777 H      1 <0>       0.0600
@<TRIPOS>BOND
   1    1    2 1
   2    1   35 1
   3    1   36 1
   4    1   37 1
   5    2    3 1
   6    3    8 ar
   7    3    4 ar
   8    4    5 ar
   9    4   38 1
  10    5    6 ar
  11    5   39 1
  12    6    7 ar
  13    6   40 1
  14    7    8 ar
  15    7   41 1
  16    8    9 1
  17    9   10 1
  18   10   32 ar
  19   10   11 ar
  20   11   12 1
  21   11   23 ar
  22   12   13 1
  23   13   14 2
  24   13   15 2
  25   13   16 1
  26   16   22 ar
  27   16   17 ar
  28   17   18 ar
  29   17   42 1
  30   18   19 ar
  31   18   43 1
  32   19   20 1
  33   19   21 ar
  34   20   44 1
  35   20   45 1
  36   20   46 1
  37   21   22 ar
  38   21   47 1
  39   23   24 ar
  40   24   25 1
  41   24   31 ar
  42   25   30 ar
  43   25   26 ar
  44   26   27 ar
  45   26   48 1
  46   27   28 ar
  47   27   49 1
  48   28   29 ar
  49   29   30 ar
  50   29   50 1
  51   30   51 1
  52   31   32 ar
  53   32   33 1
  54   33   34 1
  55   34   52 1
  56   34   53 1
  57   34   54 1
