@<TRIPOS>MOLECULE
ZINC000003831241
46    49    1     0     0
SMALL
USER_CHARGES
@<TRIPOS>ATOM
1      C1     -1.5682    1.9040   -0.8819 C.3      1 ZINC000003831241   -0.0900
2      C2     -1.6565    0.4726   -1.3448 C.2      1 ZINC000003831241    0.0300
3      C3     -2.7513   -0.3503   -1.2621 C.2      1 ZINC000003831241   -0.2400
4      C4     -4.0855   -0.0516   -0.7145 C.2      1 ZINC000003831241    0.6000
5      O5     -4.9531    0.3983   -1.4384 O.2      1 ZINC000003831241   -0.5100
6      N6     -4.3450   -0.2769    0.5887 N.am     1 ZINC000003831241   -0.6900
7      C7     -5.6721    0.0201    1.1334 C.3      1 ZINC000003831241    0.0700
8      H8     -6.4762   -0.1828    0.4260 H        1 ZINC000003831241    0.1300
9      C9     -5.7693    1.3811    1.7911 C.2      1 ZINC000003831241    0.4900
10     O10    -5.7209    2.5216    1.3813 O.2      1 ZINC000003831241   -0.3800
11     N11    -5.9320    0.8233    3.0220 N.am     1 ZINC000003831241   -0.5100
12     C12    -5.9134   -0.5738    2.5283 C.3      1 ZINC000003831241    0.1100
13     H13    -6.8326   -1.1462    2.6524 H        1 ZINC000003831241    0.1600
14     S14    -4.4241   -1.3265    3.2893 S.3      1 ZINC000003831241   -0.3000
15     C15    -3.6594    0.2772    3.7759 C.3      1 ZINC000003831241    0.0000
16     C16    -2.7978    0.1262    5.0312 C.3      1 ZINC000003831241   -0.1200
17     C17    -2.8566    0.8846    2.6237 C.3      1 ZINC000003831241   -0.1600
18     C18    -4.9333    1.1090    4.0540 C.3      1 ZINC000003831241    0.0200
19     H19    -5.3475    0.8314    5.0232 H        1 ZINC000003831241    0.1000
20     C20    -4.5904    2.5764    4.0515 C.2      1 ZINC000003831241    0.5000
21     O21    -5.2508    3.3557    3.3859 O.co2    1 ZINC000003831241   -0.6400
22     O22    -3.6525    2.9844    4.7151 O.co2    1 ZINC000003831241   -0.6800
23     C23    -2.2610   -1.6102   -1.8593 C.2      1 ZINC000003831241    0.1000
24     C24    -3.0147   -2.8746   -2.0424 C.ar     1 ZINC000003831241   -0.0200
25     C25    -3.9627   -3.2667   -1.0992 C.ar     1 ZINC000003831241   -0.0900
26     C26    -4.6613   -4.4438   -1.2750 C.ar     1 ZINC000003831241   -0.1200
27     C27    -4.4217   -5.2342   -2.3846 C.ar     1 ZINC000003831241   -0.1100
28     C28    -3.4819   -4.8500   -3.3240 C.ar     1 ZINC000003831241   -0.1200
29     C29    -2.7815   -3.6720   -3.1614 C.ar     1 ZINC000003831241   -0.0900
30     N30    -1.0183   -1.3693   -2.1915 N.2      1 ZINC000003831241   -0.3400
31     O31    -0.6866   -0.2413   -1.9208 O.3      1 ZINC000003831241    0.1000
32     H32    -0.5704    2.2915   -1.0876 H        1 ZINC000003831241    0.0900
33     H33    -2.3075    2.5038   -1.4127 H        1 ZINC000003831241    0.1000
34     H34    -1.7628    1.9521    0.1895 H        1 ZINC000003831241    0.1000
35     H35    -3.6530   -0.6358    1.1660 H        1 ZINC000003831241    0.4200
36     H36    -1.9862   -0.5738    4.8328 H        1 ZINC000003831241    0.0600
37     H37    -2.3824    1.0958    5.3056 H        1 ZINC000003831241    0.1000
38     H38    -3.4111   -0.2511    5.8495 H        1 ZINC000003831241    0.0600
39     H39    -3.5380    1.2079    1.8368 H        1 ZINC000003831241    0.0700
40     H40    -2.2896    1.7413    2.9880 H        1 ZINC000003831241    0.0900
41     H41    -2.1702    0.1373    2.2255 H        1 ZINC000003831241    0.0600
42     H42    -4.1501   -2.6507   -0.2321 H        1 ZINC000003831241    0.1300
43     H43    -5.3962   -4.7487   -0.5446 H        1 ZINC000003831241    0.1300
44     H44    -4.9702   -6.1550   -2.5178 H        1 ZINC000003831241    0.1300
45     H45    -3.2986   -5.4711   -4.1883 H        1 ZINC000003831241    0.1300
46     H46    -2.0482   -3.3728   -3.8957 H        1 ZINC000003831241    0.1300
@<TRIPOS>BOND
1     1     2     1
2     1     32    1
3     1     33    1
4     1     34    1
5     2     31    1
6     2     3     2
7     3     4     1
8     3     23    1
9     4     5     2
10    4     6     am
11    6     7     1
12    6     35    1
13    7     8     1
14    7     12    1
15    7     9     1
16    9     10    2
17    9     11    am
18    11    18    1
19    11    12    1
20    12    13    1
21    12    14    1
22    14    15    1
23    15    16    1
24    15    17    1
25    15    18    1
26    16    36    1
27    16    37    1
28    16    38    1
29    17    39    1
30    17    40    1
31    17    41    1
32    18    19    1
33    18    20    1
34    20    21    ar
35    20    22    ar
36    23    24    1
37    23    30    2
38    24    29    ar
39    24    25    ar
40    25    26    ar
41    25    42    1
42    26    27    ar
43    26    43    1
44    27    28    ar
45    27    44    1
46    28    29    ar
47    28    45    1
48    29    46    1
49    30    31    1
@<TRIPOS>SUBSTRUCTURE
1   ZINC000003831241 1     RESIDUE    1   A     ZIN   1
