@<TRIPOS>MOLECULE
ZINC000003786319
62    65    1     0     0
SMALL
USER_CHARGES
@<TRIPOS>ATOM
1      C1     -1.0602    1.4184    0.5215 C.3      1 ZINC000003786319   -0.1500
2      C2     -1.0716   -0.1080    0.6249 C.3      1 ZINC000003786319    0.0600
3      O3     -0.0459   -0.5321    1.5250 O.3      1 ZINC000003786319   -0.3600
4      C4      0.0792   -1.8601    1.7294 C.2      1 ZINC000003786319    0.5200
5      O5     -0.6635   -2.6361    1.1580 O.2      1 ZINC000003786319   -0.5300
6      C6      1.0742   -2.3501    2.6084 C.2      1 ZINC000003786319   -0.3100
7      C7      1.2865   -3.6764    2.7132 C.2      1 ZINC000003786319    0.2700
8      C8      0.7085   -4.6333    1.6943 C.3      1 ZINC000003786319   -0.1100
9      C9      1.7988   -5.6566    1.3462 C.3      1 ZINC000003786319   -0.0700
10     C10     3.0231   -4.9312    0.7843 C.3      1 ZINC000003786319   -0.1500
11     C11     1.2640   -6.6426    0.3056 C.3      1 ZINC000003786319   -0.1100
12     C12     2.3527   -7.6608   -0.0391 C.3      1 ZINC000003786319   -0.1600
13     C13     2.1881   -6.4099    2.6194 C.3      1 ZINC000003786319   -0.1300
14     C14     2.4873   -5.4467    3.7313 C.2      1 ZINC000003786319    0.5300
15     O15     3.1728   -5.8263    4.6566 O.2      1 ZINC000003786319   -0.5100
16     N16     2.0372   -4.1867    3.7447 N.am     1 ZINC000003786319   -0.5300
17     C17     2.3421   -3.3316    4.8946 C.3      1 ZINC000003786319    0.1400
18     C18     1.1865   -3.3591    5.8615 C.ar     1 ZINC000003786319   -0.1100
19     C19     0.1966   -2.3963    5.7795 C.ar     1 ZINC000003786319   -0.1200
20     C20    -0.8640   -2.4164    6.6622 C.ar     1 ZINC000003786319   -0.1100
21     C21    -0.9367   -3.4098    7.6376 C.ar     1 ZINC000003786319   -0.0400
22     C22    -2.0738   -3.4370    8.5884 C.ar     1 ZINC000003786319   -0.0400
23     C23    -2.4384   -2.2833    9.2766 C.ar     1 ZINC000003786319   -0.1100
24     C24    -3.4983   -2.3131   10.1609 C.ar     1 ZINC000003786319   -0.1400
25     C25    -4.2033   -3.4858   10.3688 C.ar     1 ZINC000003786319   -0.1200
26     C26    -3.8545   -4.6390    9.6941 C.ar     1 ZINC000003786319   -0.1000
27     C27    -2.7923   -4.6250    8.7954 C.ar     1 ZINC000003786319    0.0500
28     C28    -2.4144   -5.8614    8.0681 C.2      1 ZINC000003786319    0.0700
29     N29    -1.4252   -5.9951    7.1908 N.2      1 ZINC000003786319   -0.3500
30     N30    -1.4267   -7.2195    6.7869 N.pl3    1 ZINC000003786319   -0.1900
31     N31    -2.3772   -7.8568    7.3765 N.2      1 ZINC000003786319   -0.1900
32     N32    -2.9957   -7.0520    8.1715 N.2      1 ZINC000003786319   -0.3700
33     C33     0.0636   -4.3776    7.7151 C.ar     1 ZINC000003786319    0.0100
34     C34     1.1169   -4.3502    6.8239 C.ar     1 ZINC000003786319   -0.1100
35     H35    -0.0907    1.7501    0.1498 H        1 ZINC000003786319    0.0600
36     H36    -1.8425    1.7419   -0.1651 H        1 ZINC000003786319    0.0800
37     H37    -1.2392    1.8507    1.5059 H        1 ZINC000003786319    0.0700
38     H38    -2.0411   -0.4398    0.9966 H        1 ZINC000003786319    0.0700
39     H39    -0.8926   -0.5403   -0.3595 H        1 ZINC000003786319    0.0600
40     H40     1.6633   -1.6608    3.1951 H        1 ZINC000003786319    0.1400
41     H41    -0.1569   -5.1442    2.1163 H        1 ZINC000003786319    0.1000
42     H42     0.4151   -4.0863    0.7982 H        1 ZINC000003786319    0.1300
43     H43     3.4057   -4.2336    1.5293 H        1 ZINC000003786319    0.0500
44     H44     3.7956   -5.6596    0.5379 H        1 ZINC000003786319    0.0700
45     H45     2.7401   -4.3835   -0.1147 H        1 ZINC000003786319    0.0600
46     H46     0.3954   -7.1622    0.7101 H        1 ZINC000003786319    0.0700
47     H47     0.9759   -6.0999   -0.5948 H        1 ZINC000003786319    0.0700
48     H48     1.9717   -8.3632   -0.7804 H        1 ZINC000003786319    0.0600
49     H49     3.2212   -7.1411   -0.4436 H        1 ZINC000003786319    0.0600
50     H50     2.6408   -8.2035    0.8613 H        1 ZINC000003786319    0.0600
51     H51     1.3656   -7.0598    2.9183 H        1 ZINC000003786319    0.1100
52     H52     3.0716   -7.0169    2.4220 H        1 ZINC000003786319    0.1100
53     H53     3.2405   -3.6977    5.3915 H        1 ZINC000003786319    0.1000
54     H54     2.5065   -2.3094    4.5537 H        1 ZINC000003786319    0.0900
55     H55     0.2540   -1.6273    5.0234 H        1 ZINC000003786319    0.1100
56     H56    -1.6359   -1.6639    6.5977 H        1 ZINC000003786319    0.1100
57     H57    -1.8921   -1.3651    9.1191 H        1 ZINC000003786319    0.1200
58     H58    -3.7786   -1.4164   10.6936 H        1 ZINC000003786319    0.1200
59     H59    -5.0307   -3.4992   11.0628 H        1 ZINC000003786319    0.1200
60     H60    -4.4085   -5.5509    9.8611 H        1 ZINC000003786319    0.1300
61     H61     0.0125   -5.1493    8.4689 H        1 ZINC000003786319    0.1100
62     H62     1.8923   -5.0997    6.8828 H        1 ZINC000003786319    0.1200
@<TRIPOS>BOND
1     1     2     1
2     1     35    1
3     1     36    1
4     1     37    1
5     2     3     1
6     2     38    1
7     2     39    1
8     3     4     1
9     4     5     2
10    4     6     1
11    6     7     2
12    6     40    1
13    7     16    1
14    7     8     1
15    8     9     1
16    8     41    1
17    8     42    1
18    9     10    1
19    9     11    1
20    9     13    1
21    10    43    1
22    10    44    1
23    10    45    1
24    11    12    1
25    11    46    1
26    11    47    1
27    12    48    1
28    12    49    1
29    12    50    1
30    13    14    1
31    13    51    1
32    13    52    1
33    14    15    2
34    14    16    am
35    16    17    1
36    17    18    1
37    17    53    1
38    17    54    1
39    18    34    ar
40    18    19    ar
41    19    20    ar
42    19    55    1
43    20    21    ar
44    20    56    1
45    21    22    1
46    21    33    ar
47    22    27    ar
48    22    23    ar
49    23    24    ar
50    23    57    1
51    24    25    ar
52    24    58    1
53    25    26    ar
54    25    59    1
55    26    27    ar
56    26    60    1
57    27    28    1
58    28    32    1
59    28    29    2
60    29    30    1
61    30    31    1
62    31    32    2
63    33    34    ar
64    33    61    1
65    34    62    1
@<TRIPOS>SUBSTRUCTURE
1   ZINC000003786319 1     RESIDUE    1   A     ZIN   1
