@<TRIPOS>MOLECULE
ZINC000002528474
44    47    1     0     0
SMALL
USER_CHARGES
@<TRIPOS>ATOM
1      C1     -0.0178    1.4608    0.0101 C.3      1 ZINC000002528474    0.0700
2      N2      0.0021   -0.0041    0.0020 N.am     1 ZINC000002528474   -0.5500
3      C3      0.0059   -0.6837   -1.1655 C.2      1 ZINC000002528474    0.4900
4      O4      0.0239   -0.0835   -2.2194 O.2      1 ZINC000002528474   -0.5000
5      C5     -0.0117   -2.1911   -1.1530 C.3      1 ZINC000002528474    0.0500
6      O6      0.6708   -2.6699    0.0088 O.3      1 ZINC000002528474   -0.2700
7      C7      0.3608   -2.0739    1.1880 C.ar     1 ZINC000002528474    0.1400
8      C8      0.3820   -2.8004    2.3819 C.ar     1 ZINC000002528474   -0.1200
9      C9      0.7443   -4.2307    2.3747 C.2      1 ZINC000002528474    0.5600
10     O10     1.0256   -4.7813    1.3278 O.2      1 ZINC000002528474   -0.5000
11     N11     0.7633   -4.9268    3.5286 N.am     1 ZINC000002528474   -0.7200
12     C12     1.1230   -6.3470    3.5215 C.3      1 ZINC000002528474    0.1200
13     H13     1.8844   -6.5271    2.7626 H        1 ZINC000002528474    0.1000
14     C14    -0.1183   -7.1892    3.2130 C.3      1 ZINC000002528474    0.0400
15     N15    -0.3812   -8.0990    4.3361 N.3      1 ZINC000002528474   -0.5300
16     C16     0.7365   -9.0325    4.5321 C.3      1 ZINC000002528474    0.0500
17     C17     2.0024   -8.2430    4.8772 C.3      1 ZINC000002528474   -0.1500
18     C18     1.6658   -6.7466    4.8993 C.3      1 ZINC000002528474   -0.1000
19     C19     0.5661   -6.5078    5.9418 C.3      1 ZINC000002528474   -0.1500
20     C20    -0.6625   -7.3493    5.5682 C.3      1 ZINC000002528474    0.0500
21     C21     0.0580   -2.1620    3.5837 C.ar     1 ZINC000002528474   -0.0700
22     C22    -0.2798   -0.8252    3.5869 C.ar     1 ZINC000002528474   -0.0300
23     Cl23   -0.6810   -0.0402    5.0823 Cl       1 ZINC000002528474   -0.0500
24     C24    -0.3004   -0.1040    2.4026 C.ar     1 ZINC000002528474   -0.0900
25     C25     0.0233   -0.7227    1.2063 C.ar     1 ZINC000002528474    0.1000
26     H26     1.0048    1.8381    0.0023 H        1 ZINC000002528474    0.0700
27     H27    -0.5450    1.8219   -0.8730 H        1 ZINC000002528474    0.0900
28     H28    -0.5280    1.8123    0.9069 H        1 ZINC000002528474    0.0800
29     H29    -1.0436   -2.5418   -1.1380 H        1 ZINC000002528474    0.1100
30     H30     0.4859   -2.5672   -2.0469 H        1 ZINC000002528474    0.1500
31     H31     0.5388   -4.4875    4.3638 H        1 ZINC000002528474    0.4000
32     H32    -0.9764   -6.5327    3.0683 H        1 ZINC000002528474    0.0800
33     H33     0.0525   -7.7701    2.3067 H        1 ZINC000002528474    0.0900
34     H34     0.5006   -9.7162    5.3475 H        1 ZINC000002528474    0.0800
35     H35     0.9006   -9.6007    3.6165 H        1 ZINC000002528474    0.0800
36     H36     2.3682   -8.5496    5.8571 H        1 ZINC000002528474    0.0700
37     H37     2.7674   -8.4322    4.1242 H        1 ZINC000002528474    0.0700
38     H38     2.5567   -6.1655    5.1374 H        1 ZINC000002528474    0.0900
39     H39     0.9249   -6.8078    6.9263 H        1 ZINC000002528474    0.0700
40     H40     0.2985   -5.4513    5.9548 H        1 ZINC000002528474    0.0600
41     H41    -1.5171   -6.6927    5.4050 H        1 ZINC000002528474    0.0800
42     H42    -0.8868   -8.0445    6.3772 H        1 ZINC000002528474    0.0800
43     H43     0.0720   -2.7170    4.5101 H        1 ZINC000002528474    0.1500
44     H44    -0.5658    0.9428    2.4138 H        1 ZINC000002528474    0.1500
@<TRIPOS>BOND
1     1     2     1
2     1     26    1
3     1     27    1
4     1     28    1
5     2     25    1
6     2     3     am
7     3     4     2
8     3     5     1
9     5     6     1
10    5     29    1
11    5     30    1
12    6     7     1
13    7     25    ar
14    7     8     ar
15    8     9     1
16    8     21    ar
17    9     10    2
18    9     11    am
19    11    12    1
20    11    31    1
21    12    13    1
22    12    18    1
23    12    14    1
24    14    15    1
25    14    32    1
26    14    33    1
27    15    20    1
28    15    16    1
29    16    17    1
30    16    34    1
31    16    35    1
32    17    18    1
33    17    36    1
34    17    37    1
35    18    19    1
36    18    38    1
37    19    20    1
38    19    39    1
39    19    40    1
40    20    41    1
41    20    42    1
42    21    22    ar
43    21    43    1
44    22    23    1
45    22    24    ar
46    24    25    ar
47    24    44    1
@<TRIPOS>SUBSTRUCTURE
1   ZINC000002528474 1     RESIDUE    1   A     ZIN   1
