@<TRIPOS>MOLECULE
ZINC000003811810
48    51    1     0     0
SMALL
USER_CHARGES
@<TRIPOS>ATOM
1      C1     -0.0178    1.4608    0.0101 C.3      1 ZINC000003811810    0.0900
2      N2      0.0021   -0.0041    0.0020 N.am     1 ZINC000003811810   -0.7300
3      C3      0.5851   -0.6645   -1.0180 C.2      1 ZINC000003811810    0.5200
4      O4      1.0933   -0.0461   -1.9292 O.2      1 ZINC000003811810   -0.5000
5      C5      0.6055   -2.1713   -1.0263 C.3      1 ZINC000003811810    0.0300
6      H6     -0.4077   -2.5643   -0.9421 H        1 ZINC000003811810    0.1200
7      O7      1.2354   -2.6590   -2.2309 O.3      1 ZINC000003811810   -0.3300
8      C8      1.6454   -4.0098   -1.9259 C.3      1 ZINC000003811810    0.3100
9      H9      0.7924   -4.6863   -1.9787 H        1 ZINC000003811810    0.1300
10     N10     2.6973   -4.4441   -2.8484 N.pl3    1 ZINC000003811810   -0.4700
11     C11     3.5491   -3.6345   -3.5393 C.2      1 ZINC000003811810    0.2700
12     N12     4.3554   -4.3534   -4.2650 N.2      1 ZINC000003811810   -0.4600
13     C13     4.0732   -5.6663   -4.0866 C.ar     1 ZINC000003811810   -0.1100
14     C14     4.5969   -6.8674   -4.5940 C.ar     1 ZINC000003811810    0.5100
15     N15     5.6482   -6.8572   -5.4939 N.pl3    1 ZINC000003811810   -0.6900
16     C16     6.1810   -8.1197   -6.0121 C.3      1 ZINC000003811810    0.1700
17     C17     7.3117   -7.8336   -6.9664 C.ar     1 ZINC000003811810   -0.1100
18     C18     7.0514   -7.6522   -8.3117 C.ar     1 ZINC000003811810   -0.0800
19     C19     8.0885   -7.3897   -9.1876 C.ar     1 ZINC000003811810   -0.1200
20     C20     9.3858   -7.3087   -8.7182 C.ar     1 ZINC000003811810   -0.0800
21     C21     9.6466   -7.4897   -7.3719 C.ar     1 ZINC000003811810   -0.1000
22     I22    11.6130   -7.3669   -6.6599 I        1 ZINC000003811810   -0.0400
23     C23     8.6086   -7.7470   -6.4954 C.ar     1 ZINC000003811810   -0.0600
24     N24     4.0593   -8.0136   -4.1892 N.ar     1 ZINC000003811810   -0.5900
25     C25     3.0563   -8.0329   -3.3306 C.ar     1 ZINC000003811810    0.3600
26     N26     2.5337   -6.9334   -2.8296 N.ar     1 ZINC000003811810   -0.5500
27     C27     3.0098   -5.7406   -3.1710 C.ar     1 ZINC000003811810    0.3100
28     C28     2.1884   -3.9408   -0.4814 C.3      1 ZINC000003811810    0.0800
29     H29     3.2698   -3.8039   -0.4860 H        1 ZINC000003811810    0.0900
30     O30     1.8377   -5.1220    0.2424 O.3      1 ZINC000003811810   -0.5200
31     C31     1.4862   -2.7036    0.1259 C.3      1 ZINC000003811810    0.0500
32     H32     2.2206   -1.9541    0.4210 H        1 ZINC000003811810    0.0900
33     O33     0.6824   -3.0830    1.2449 O.3      1 ZINC000003811810   -0.5300
34     H34     1.0048    1.8381    0.0023 H        1 ZINC000003811810    0.0600
35     H35    -0.5450    1.8219   -0.8730 H        1 ZINC000003811810    0.0700
36     H36    -0.5280    1.8123    0.9069 H        1 ZINC000003811810    0.0800
37     H37    -0.4044   -0.4986    0.7308 H        1 ZINC000003811810    0.4000
38     H38     3.5537   -2.5555   -3.4918 H        1 ZINC000003811810    0.2300
39     H39     6.0323   -6.0142   -5.7815 H        1 ZINC000003811810    0.4200
40     H40     6.5489   -8.7259   -5.1843 H        1 ZINC000003811810    0.0800
41     H41     5.3918   -8.6596   -6.5353 H        1 ZINC000003811810    0.0800
42     H42     6.0377   -7.7159   -8.6788 H        1 ZINC000003811810    0.1300
43     H43     7.8848   -7.2484  -10.2387 H        1 ZINC000003811810    0.1300
44     H44    10.1960   -7.1043   -9.4025 H        1 ZINC000003811810    0.1300
45     H45     8.8118   -7.8880   -5.4441 H        1 ZINC000003811810    0.1300
46     H46     2.6493   -8.9865   -3.0282 H        1 ZINC000003811810    0.2100
47     H47     2.1538   -5.1318    1.1562 H        1 ZINC000003811810    0.3900
48     H48     0.2189   -2.3452    1.6644 H        1 ZINC000003811810    0.3800
@<TRIPOS>BOND
1     1     2     1
2     1     34    1
3     1     35    1
4     1     36    1
5     2     3     am
6     2     37    1
7     3     4     2
8     3     5     1
9     5     6     1
10    5     31    1
11    5     7     1
12    7     8     1
13    8     9     1
14    8     10    1
15    8     28    1
16    10    27    1
17    10    11    1
18    11    12    2
19    11    38    1
20    12    13    1
21    13    27    ar
22    13    14    ar
23    14    15    1
24    14    24    ar
25    15    16    1
26    15    39    1
27    16    17    1
28    16    40    1
29    16    41    1
30    17    23    ar
31    17    18    ar
32    18    19    ar
33    18    42    1
34    19    20    ar
35    19    43    1
36    20    21    ar
37    20    44    1
38    21    22    1
39    21    23    ar
40    23    45    1
41    24    25    ar
42    25    26    ar
43    25    46    1
44    26    27    ar
45    28    29    1
46    28    30    1
47    28    31    1
48    30    47    1
49    31    32    1
50    31    33    1
51    33    48    1
@<TRIPOS>SUBSTRUCTURE
1   ZINC000003811810 1     RESIDUE    1   A     ZIN   1
