@<TRIPOS>MOLECULE
ZINC000038665623
  50   54    0    0    0
SMALL
USER_CHARGES
NO_NAME
@<TRIPOS>ATOM
    1 O1        0.0021    -0.0041     0.0020 O.2    1 <0>      -0.5100
    2 C2       -0.0144     1.2124     0.0087 C.2    1 <0>       0.6000
    3 N3        1.1435     1.9020     0.0014 N.am   1 <0>      -0.7100
    4 C4        2.4220     1.1869    -0.0147 C.3    1 <0>       0.1200
    5 H5        2.3356     0.2712     0.5703 H      1 <0>       0.1000
    6 C6        2.7985     0.8396    -1.4605 C.3    1 <0>      -0.1000
    7 C7        2.9411     2.1435    -2.2556 C.3    1 <0>      -0.1500
    8 C8        4.0213     3.0077    -1.5988 C.3    1 <0>       0.0400
    9 N9        4.5611     2.3049    -0.4267 N.3    1 <0>      -0.5200
   10 C10       5.1992     1.0407    -0.8193 C.3    1 <0>       0.0500
   11 C11       4.1531     0.1199    -1.4538 C.3    1 <0>      -0.1500
   12 C12       3.5153     2.0768     0.5835 C.3    1 <0>       0.0900
   13 H13       3.9512     1.5865     1.4539 H      1 <0>       0.1000
   14 C14       2.9098     3.4179     1.0030 C.3    1 <0>      -0.0800
   15 C15       3.9593     4.2479     1.6963 C.ar   1 <0>      -0.1200
   16 C16       4.1322     4.1573     3.0687 C.ar   1 <0>      -0.0800
   17 C17       5.1105     4.9397     3.6638 C.ar   1 <0>      -0.1700
   18 C18       5.8749     5.7776     2.8745 C.ar   1 <0>       0.0900
   19 N19       5.6826     5.8380     1.5712 N.ar   1 <0>      -0.4800
   20 C20       4.7655     5.1050     0.9709 C.ar   1 <0>       0.1200
   21 C21      -1.2971     1.9299     0.0187 C.2    1 <0>      -0.0300
   22 C22      -2.5213     1.3420     0.0267 C.2    1 <0>      -0.1000
   23 C23      -3.4948     2.4334     0.0349 C.ar   1 <0>      -0.1500
   24 C24      -4.8901     2.4933     0.0449 C.ar   1 <0>      -0.0600
   25 C25      -5.5158     3.7083     0.0508 C.ar   1 <0>      -0.1400
   26 C26      -4.7740     4.8813     0.0464 C.ar   1 <0>      -0.0800
   27 C27      -3.3962     4.8437     0.0361 C.ar   1 <0>      -0.1100
   28 C28      -2.7375     3.6199     0.0309 C.ar   1 <0>       0.0700
   29 O29      -1.4359     3.2721     0.0271 O.3    1 <0>      -0.1900
   30 H30       1.1303     2.8719     0.0067 H      1 <0>       0.4100
   31 H31       2.0358     0.1987    -1.9028 H      1 <0>       0.0900
   32 H32       3.2295     1.9158    -3.2818 H      1 <0>       0.0700
   33 H33       1.9920     2.6795    -2.2514 H      1 <0>       0.0600
   34 H34       4.8234     3.1926    -2.3134 H      1 <0>       0.0800
   35 H35       3.5869     3.9570    -1.2855 H      1 <0>       0.0800
   36 H36       5.9917     1.2419    -1.5402 H      1 <0>       0.0800
   37 H37       5.6223     0.5580     0.0616 H      1 <0>       0.0800
   38 H38       4.0755    -0.7993    -0.8731 H      1 <0>       0.0700
   39 H39       4.4465    -0.1158    -2.4767 H      1 <0>       0.0700
   40 H40       2.5527     3.9474     0.1198 H      1 <0>       0.0800
   41 H41       2.0766     3.2432     1.6836 H      1 <0>       0.0900
   42 H42       3.5194     3.4935     3.6605 H      1 <0>       0.1300
   43 H43       5.2725     4.8949     4.7306 H      1 <0>       0.1300
   44 H44       6.6386     6.3904     3.3303 H      1 <0>       0.1500
   45 H45       4.6370     5.1816    -0.0986 H      1 <0>       0.1500
   46 H46      -2.7331     0.2829     0.0264 H      1 <0>       0.1700
   47 H47      -5.4721     1.5835     0.0476 H      1 <0>       0.1300
   48 H48      -6.5947     3.7559     0.0585 H      1 <0>       0.1300
   49 H49      -5.2821     5.8343     0.0508 H      1 <0>       0.1400
   50 H50      -2.8297     5.7632     0.0321 H      1 <0>       0.1400
@<TRIPOS>BOND
   1    1    2 2
   2    2    3 am
   3    2   21 1
   4    3    4 1
   5    3   30 1
   6    4    5 1
   7    4   12 1
   8    4    6 1
   9    6   11 1
  10    6    7 1
  11    6   31 1
  12    7    8 1
  13    7   32 1
  14    7   33 1
  15    8    9 1
  16    8   34 1
  17    8   35 1
  18    9   10 1
  19    9   12 1
  20   10   11 1
  21   10   36 1
  22   10   37 1
  23   11   38 1
  24   11   39 1
  25   12   13 1
  26   12   14 1
  27   14   15 1
  28   14   40 1
  29   14   41 1
  30   15   20 ar
  31   15   16 ar
  32   16   17 ar
  33   16   42 1
  34   17   18 ar
  35   17   43 1
  36   18   19 ar
  37   18   44 1
  38   19   20 ar
  39   20   45 1
  40   21   29 1
  41   21   22 2
  42   22   23 1
  43   22   46 1
  44   23   28 ar
  45   23   24 ar
  46   24   25 ar
  47   24   47 1
  48   25   26 ar
  49   25   48 1
  50   26   27 ar
  51   26   49 1
  52   27   28 ar
  53   27   50 1
  54   28   29 1
