@<TRIPOS>MOLECULE
ZINC000003915519
97    102   1     0     0
SMALL
USER_CHARGES
@<TRIPOS>ATOM
1      C1     -0.7119    2.5334    1.3226 C.3      1 ZINC000003915519   -0.1400
2      C2     -0.7831    0.9863    1.0151 C.3      1 ZINC000003915519   -0.0700
3      C3     -2.2103    0.5608    1.1576 C.3      1 ZINC000003915519   -0.1300
4      C4     -0.2964    0.7297   -0.4177 C.3      1 ZINC000003915519   -0.1000
5      C5      1.1874    1.0941   -0.5118 C.3      1 ZINC000003915519   -0.1000
6      C6      2.0953    0.3400    0.4675 C.3      1 ZINC000003915519   -0.1100
7      C7      3.4841    0.8118    0.2956 C.2      1 ZINC000003915519    0.5000
8      O8      3.7380    1.6716   -0.5306 O.co2    1 ZINC000003915519   -0.7100
9      O9      4.3769    0.3414    0.9800 O.co2    1 ZINC000003915519   -0.6700
10     C10     2.0434   -1.1740    0.1412 C.3      1 ZINC000003915519   -0.0900
11     C11     3.0107   -1.9120    1.1379 C.3      1 ZINC000003915519   -0.1000
12     C12     2.7459   -1.6213    2.6051 C.3      1 ZINC000003915519    0.0500
13     C13     1.5133   -2.4029    2.9592 C.3      1 ZINC000003915519    0.0600
14     O14     1.1006   -2.0667    4.2853 O.3      1 ZINC000003915519   -0.3200
15     C15     0.0575   -2.7543    4.7951 C.2      1 ZINC000003915519    0.4900
16     O16    -0.5441   -3.5508    4.0998 O.2      1 ZINC000003915519   -0.5200
17     C17    -0.3372   -2.5485    6.1412 C.2      1 ZINC000003915519   -0.1900
18     C18    -1.3120   -3.3108    6.6833 C.2      1 ZINC000003915519   -0.0100
19     C19    -1.8063   -3.0188    8.0361 C.ar     1 ZINC000003915519   -0.0700
20     C20    -1.3525   -1.8852    8.7196 C.ar     1 ZINC000003915519   -0.0900
21     C21    -1.8175   -1.6139    9.9878 C.ar     1 ZINC000003915519   -0.1300
22     C22    -2.7357   -2.4629   10.5908 C.ar     1 ZINC000003915519    0.0900
23     O23    -3.1901   -2.1904   11.8414 O.3      1 ZINC000003915519   -0.4900
24     C24    -3.1932   -3.5946    9.9160 C.ar     1 ZINC000003915519    0.0800
25     O25    -4.0930   -4.4232   10.5105 O.3      1 ZINC000003915519   -0.4900
26     C26    -2.7371   -3.8711    8.6427 C.ar     1 ZINC000003915519   -0.1000
27     C27     2.4362   -0.1895    2.8023 C.2      1 ZINC000003915519   -0.0300
28     C28     2.7900    0.5028    3.9191 C.2      1 ZINC000003915519   -0.1900
29     C29     3.7602   -0.0843    4.9442 C.3      1 ZINC000003915519   -0.0700
30     C30     3.6937   -1.7053    4.9137 C.3      1 ZINC000003915519   -0.0800
31     H31     2.6856   -1.9736    5.2075 H        1 ZINC000003915519    0.0900
32     C32     4.6735   -2.2412    5.9200 C.3      1 ZINC000003915519   -0.0300
33     C33     6.0520   -1.7018    5.8258 C.3      1 ZINC000003915519   -0.1500
34     C34     4.0771   -2.0286    7.3379 C.3      1 ZINC000003915519   -0.1200
35     C35     4.9164   -2.5060    8.3929 C.3      1 ZINC000003915519   -0.1100
36     C36     5.1833   -3.9931    8.1215 C.2      1 ZINC000003915519    0.3500
37     O37     5.0992   -4.8345    9.1013 O.2      1 ZINC000003915519   -0.5100
38     C38     5.3922   -4.5964    6.8401 C.3      1 ZINC000003915519   -0.1100
39     C39     6.8640   -4.6918    6.4794 C.3      1 ZINC000003915519   -0.1400
40     C40     4.8483   -6.0373    6.7494 C.3      1 ZINC000003915519   -0.1300
41     C41     4.6566   -3.7963    5.6676 C.3      1 ZINC000003915519   -0.0700
42     H42     3.5515   -4.1653    5.7822 H        1 ZINC000003915519    0.0600
43     C43     5.1715   -4.1608    4.3315 C.3      1 ZINC000003915519   -0.1000
44     C44     4.0999   -3.5817    3.3673 C.3      1 ZINC000003915519   -0.1200
45     C45     3.9015   -2.1393    3.4825 C.3      1 ZINC000003915519   -0.0300
46     C46     5.1981   -1.4221    2.8324 C.3      1 ZINC000003915519   -0.1300
47     C47     1.5955    0.6816    1.8297 C.3      1 ZINC000003915519    0.0000
48     H48     1.6890    1.6793    2.0979 H        1 ZINC000003915519    0.0700
49     C49     0.1151    0.2834    1.9827 C.3      1 ZINC000003915519   -0.1000
50     H50     0.3146    2.8805    1.2049 H        1 ZINC000003915519    0.0600
51     H51    -1.3591    3.0717    0.6300 H        1 ZINC000003915519    0.0500
52     H52    -1.0423    2.7162    2.3451 H        1 ZINC000003915519    0.0500
53     H53    -2.8387    1.1754    0.5130 H        1 ZINC000003915519    0.0500
54     H54    -2.3079   -0.4858    0.8692 H        1 ZINC000003915519    0.0500
55     H55    -2.5241    0.6829    2.1943 H        1 ZINC000003915519    0.0500
56     H56    -0.3878   -0.2826   -0.6031 H        1 ZINC000003915519    0.0600
57     H57    -0.8774    1.3500   -1.0885 H        1 ZINC000003915519    0.0600
58     H58     1.5000    0.8284   -1.5881 H        1 ZINC000003915519    0.0400
59     H59     1.3676    2.1616   -0.4085 H        1 ZINC000003915519    0.0600
60     H60     0.9565   -1.5270    0.3488 H        1 ZINC000003915519    0.0400
61     H61     2.3429   -1.3351   -0.8146 H        1 ZINC000003915519    0.0600
62     H62     2.8189   -3.0270    0.9593 H        1 ZINC000003915519    0.0200
63     H63     4.0031   -1.7346    0.7616 H        1 ZINC000003915519    0.1100
64     H64     0.7151   -2.1601    2.2577 H        1 ZINC000003915519    0.0700
65     H65     1.7317   -3.4695    2.9060 H        1 ZINC000003915519    0.0700
66     H66     0.1413   -1.7824    6.7332 H        1 ZINC000003915519    0.1400
67     H67    -1.7281   -4.1347    6.1225 H        1 ZINC000003915519    0.1400
68     H68    -0.6377   -1.2233    8.2532 H        1 ZINC000003915519    0.1400
69     H69    -1.4666   -0.7387   10.5144 H        1 ZINC000003915519    0.1400
70     H70    -3.9843   -1.6390   11.8598 H        1 ZINC000003915519    0.3900
71     H71    -5.0156   -4.1900   10.3387 H        1 ZINC000003915519    0.3900
72     H72    -3.0909   -4.7469    8.1191 H        1 ZINC000003915519    0.1400
73     H73     2.5278    1.4435    4.0039 H        1 ZINC000003915519    0.0900
74     H74     4.7697    0.2480    4.8607 H        1 ZINC000003915519    0.0700
75     H75     3.3844    0.1821    5.9489 H        1 ZINC000003915519    0.0400
76     H76     6.0162   -0.6124    5.8186 H        1 ZINC000003915519    0.0700
77     H77     6.6340   -2.0405    6.6830 H        1 ZINC000003915519    0.0500
78     H78     6.5188   -2.0561    4.9068 H        1 ZINC000003915519    0.0700
79     H79     3.9410   -0.9091    7.4113 H        1 ZINC000003915519    0.0800
80     H80     3.0662   -2.4369    7.3937 H        1 ZINC000003915519    0.0700
81     H81     5.8798   -2.0742    8.4126 H        1 ZINC000003915519    0.0900
82     H82     4.4609   -2.3655    9.3753 H        1 ZINC000003915519    0.1000
83     H83     7.3633   -5.3738    7.1677 H        1 ZINC000003915519    0.0500
84     H84     6.9649   -5.0656    5.4605 H        1 ZINC000003915519    0.0800
85     H85     7.3204   -3.7045    6.5512 H        1 ZINC000003915519    0.0600
86     H86     3.7750   -6.0332    6.9397 H        1 ZINC000003915519    0.0500
87     H87     5.0390   -6.4355    5.7529 H        1 ZINC000003915519    0.0600
88     H88     5.3465   -6.6611    7.4915 H        1 ZINC000003915519    0.0600
89     H89     6.0928   -3.6427    4.1629 H        1 ZINC000003915519    0.0800
90     H90     5.2271   -5.1964    4.1852 H        1 ZINC000003915519    0.0700
91     H91     4.3975   -3.8552    2.2655 H        1 ZINC000003915519    0.0600
92     H92     3.1431   -4.1438    3.5102 H        1 ZINC000003915519    0.0500
93     H93     5.2260   -1.6236    1.7615 H        1 ZINC000003915519    0.0700
94     H94     5.1397   -0.3464    2.9983 H        1 ZINC000003915519    0.0800
95     H95     6.1020   -1.8132    3.2994 H        1 ZINC000003915519    0.0300
96     H96    -0.2107    0.4834    2.9800 H        1 ZINC000003915519    0.0500
97     H97    -0.0187   -0.8193    1.8076 H        1 ZINC000003915519    0.0500
@<TRIPOS>BOND
1     1     2     1
2     1     50    1
3     1     51    1
4     1     52    1
5     2     49    1
6     2     3     1
7     2     4     1
8     3     53    1
9     3     54    1
10    3     55    1
11    4     5     1
12    4     56    1
13    4     57    1
14    5     6     1
15    5     58    1
16    5     59    1
17    6     47    1
18    6     7     1
19    6     10    1
20    7     8     ar
21    7     9     ar
22    10    11    1
23    10    60    1
24    10    61    1
25    11    12    1
26    11    62    1
27    11    63    1
28    12    45    1
29    12    13    1
30    12    27    1
31    13    14    1
32    13    64    1
33    13    65    1
34    14    15    1
35    15    16    2
36    15    17    1
37    17    18    2
38    17    66    1
39    18    19    1
40    18    67    1
41    19    26    ar
42    19    20    ar
43    20    21    ar
44    20    68    1
45    21    22    ar
46    21    69    1
47    22    23    1
48    22    24    ar
49    23    70    1
50    24    25    1
51    24    26    ar
52    25    71    1
53    26    72    1
54    27    28    2
55    27    47    1
56    28    29    1
57    28    73    1
58    29    30    1
59    29    74    1
60    29    75    1
61    30    31    1
62    30    45    1
63    30    32    1
64    32    41    1
65    32    33    1
66    32    34    1
67    33    76    1
68    33    77    1
69    33    78    1
70    34    35    1
71    34    79    1
72    34    80    1
73    35    36    1
74    35    81    1
75    35    82    1
76    36    37    2
77    36    38    1
78    38    39    1
79    38    40    1
80    38    41    1
81    39    83    1
82    39    84    1
83    39    85    1
84    40    86    1
85    40    87    1
86    40    88    1
87    41    42    1
88    41    43    1
89    43    44    1
90    43    89    1
91    43    90    1
92    44    45    1
93    44    91    1
94    44    92    1
95    45    46    1
96    46    93    1
97    46    94    1
98    46    95    1
99    47    48    1
100   47    49    1
101   49    96    1
102   49    97    1
@<TRIPOS>SUBSTRUCTURE
1   ZINC000003915519 1     RESIDUE    1   A     ZIN   1
