@<TRIPOS>MOLECULE
ZINC000003871023
62    63    1     0     0
SMALL
USER_CHARGES
@<TRIPOS>ATOM
1      C1      0.3094    2.5683   -0.4987 C.3      1 ZINC000003871023   -0.1400
2      C2      0.7287    1.1517   -0.2013 C.2      1 ZINC000003871023   -0.0500
3      C3      0.7609    0.6921    1.1277 C.2      1 ZINC000003871023   -0.1300
4      C4      0.4140    1.5251    2.1431 C.2      1 ZINC000003871023   -0.0800
5      C5      0.3226    1.0282    3.4680 C.2      1 ZINC000003871023   -0.1000
6      C6     -0.5083    0.0269    3.7027 C.2      1 ZINC000003871023   -0.1000
7      C7     -1.2979   -0.5281    2.5452 C.3      1 ZINC000003871023   -0.1300
8      C8     -0.7093   -0.5887    5.0569 C.3      1 ZINC000003871023   -0.0800
9      C9      0.4455   -0.2073    5.9853 C.3      1 ZINC000003871023   -0.1200
10     C10     0.6457    1.3115    5.9156 C.3      1 ZINC000003871023   -0.1100
11     C11     1.1791    1.6647    4.5237 C.3      1 ZINC000003871023   -0.0200
12     C12     2.6191    1.1651    4.3906 C.3      1 ZINC000003871023   -0.1400
13     C13     1.1531    3.1835    4.3408 C.3      1 ZINC000003871023   -0.1400
14     C14     1.0770    0.3154   -1.2207 C.2      1 ZINC000003871023   -0.1500
15     C15     1.0449    0.7740   -2.5467 C.2      1 ZINC000003871023   -0.0600
16     C16     1.3935   -0.0630   -3.5670 C.2      1 ZINC000003871023   -0.1600
17     C17     1.3613    0.3956   -4.8932 C.2      1 ZINC000003871023    0.0400
18     C18     0.9419    1.8122   -5.1906 C.3      1 ZINC000003871023   -0.1300
19     C19     1.7093   -0.4399   -5.9117 C.2      1 ZINC000003871023   -0.2600
20     C20     1.8408    0.0636   -7.2245 C.2      1 ZINC000003871023    0.5500
21     O21     1.7613    1.2622   -7.4280 O.2      1 ZINC000003871023   -0.5300
22     N22     2.0544   -0.7818   -8.2522 N.am     1 ZINC000003871023   -0.6800
23     C23     2.2910   -0.2768   -9.5363 C.ar     1 ZINC000003871023    0.1400
24     C24     1.8361   -0.9703  -10.6503 C.ar     1 ZINC000003871023   -0.1300
25     C25     2.0699   -0.4716  -11.9165 C.ar     1 ZINC000003871023   -0.1200
26     C26     2.7590    0.7218  -12.0760 C.ar     1 ZINC000003871023    0.0900
27     O27     2.9885    1.2124  -13.3232 O.3      1 ZINC000003871023   -0.5000
28     C28     3.2137    1.4151  -10.9638 C.ar     1 ZINC000003871023   -0.1200
29     C29     2.9757    0.9207   -9.6967 C.ar     1 ZINC000003871023   -0.1000
30     H30     1.1856    3.2165   -0.4881 H        1 ZINC000003871023    0.0800
31     H31    -0.1610    2.6093   -1.4812 H        1 ZINC000003871023    0.0700
32     H32    -0.3999    2.9037    0.2579 H        1 ZINC000003871023    0.0700
33     H33     1.0615   -0.3232    1.3409 H        1 ZINC000003871023    0.1200
34     H34     0.2079    2.5658    1.9412 H        1 ZINC000003871023    0.1200
35     H35    -0.7366   -1.3367    2.0770 H        1 ZINC000003871023    0.0700
36     H36    -2.2526   -0.9102    2.9066 H        1 ZINC000003871023    0.0600
37     H37    -1.4755    0.2613    1.8149 H        1 ZINC000003871023    0.0700
38     H38    -1.6474   -0.2305    5.4810 H        1 ZINC000003871023    0.0800
39     H39    -0.7505   -1.6734    4.9583 H        1 ZINC000003871023    0.0700
40     H40     0.2047   -0.4982    7.0078 H        1 ZINC000003871023    0.0700
41     H41     1.3563   -0.7118    5.6630 H        1 ZINC000003871023    0.0700
42     H42    -0.3063    1.8145    6.0858 H        1 ZINC000003871023    0.0700
43     H43     1.3668    1.6209    6.6721 H        1 ZINC000003871023    0.0700
44     H44     2.6426    0.0838    4.5262 H        1 ZINC000003871023    0.0600
45     H45     3.0005    1.4155    3.4006 H        1 ZINC000003871023    0.0600
46     H46     3.2401    1.6401    5.1500 H        1 ZINC000003871023    0.0600
47     H47     1.7017    3.6569    5.1551 H        1 ZINC000003871023    0.0600
48     H48     1.6186    3.4430    3.3900 H        1 ZINC000003871023    0.0600
49     H49     0.1206    3.5326    4.3471 H        1 ZINC000003871023    0.0600
50     H50     1.3776   -0.6998   -1.0075 H        1 ZINC000003871023    0.1200
51     H51     0.7443    1.7892   -2.7598 H        1 ZINC000003871023    0.1300
52     H52     1.6940   -1.0783   -3.3538 H        1 ZINC000003871023    0.1200
53     H53     1.8258    2.4470   -5.2545 H        1 ZINC000003871023    0.0800
54     H54     0.4049    1.8407   -6.1387 H        1 ZINC000003871023    0.0900
55     H55     0.2919    2.1736   -4.3938 H        1 ZINC000003871023    0.0600
56     H56     1.8845   -1.4873   -5.7150 H        1 ZINC000003871023    0.1300
57     H57     2.0441   -1.7400   -8.1022 H        1 ZINC000003871023    0.4100
58     H58     1.2999   -1.8996  -10.5262 H        1 ZINC000003871023    0.1300
59     H59     1.7166   -1.0110  -12.7829 H        1 ZINC000003871023    0.1300
60     H60     2.2924    1.7992  -13.6493 H        1 ZINC000003871023    0.3900
61     H61     3.7504    2.3439  -11.0889 H        1 ZINC000003871023    0.1300
62     H62     3.3298    1.4606   -8.8309 H        1 ZINC000003871023    0.1400
@<TRIPOS>BOND
1     1     2     1
2     1     30    1
3     1     31    1
4     1     32    1
5     2     3     1
6     2     14    2
7     3     4     2
8     3     33    1
9     4     5     1
10    4     34    1
11    5     11    1
12    5     6     2
13    6     7     1
14    6     8     1
15    7     35    1
16    7     36    1
17    7     37    1
18    8     9     1
19    8     38    1
20    8     39    1
21    9     10    1
22    9     40    1
23    9     41    1
24    10    11    1
25    10    42    1
26    10    43    1
27    11    12    1
28    11    13    1
29    12    44    1
30    12    45    1
31    12    46    1
32    13    47    1
33    13    48    1
34    13    49    1
35    14    15    1
36    14    50    1
37    15    16    2
38    15    51    1
39    16    17    1
40    16    52    1
41    17    18    1
42    17    19    2
43    18    53    1
44    18    54    1
45    18    55    1
46    19    20    1
47    19    56    1
48    20    21    2
49    20    22    am
50    22    23    1
51    22    57    1
52    23    29    ar
53    23    24    ar
54    24    25    ar
55    24    58    1
56    25    26    ar
57    25    59    1
58    26    27    1
59    26    28    ar
60    27    60    1
61    28    29    ar
62    28    61    1
63    29    62    1
@<TRIPOS>SUBSTRUCTURE
1   ZINC000003871023 1     RESIDUE    1   A     ZIN   1
