@<TRIPOS>MOLECULE
ZINC000006718813
46    49    1     0     0
SMALL
USER_CHARGES
@<TRIPOS>ATOM
1      C1      3.8528    0.1164    0.4678 C.3      1 ZINC000006718813   -0.1200
2      C2      2.7234   -0.8722    0.3327 C.ar     1 ZINC000006718813   -0.0700
3      C3      2.2405   -1.2011   -0.9201 C.ar     1 ZINC000006718813   -0.1100
4      C4      1.2044   -2.1083   -1.0492 C.ar     1 ZINC000006718813   -0.1300
5      C5      0.6486   -2.6891    0.0757 C.ar     1 ZINC000006718813    0.0600
6      F6     -0.3631   -3.5756   -0.0502 F        1 ZINC000006718813   -0.1400
7      C7      1.1331   -2.3596    1.3371 C.ar     1 ZINC000006718813    0.1400
8      N8      0.5730   -2.9456    2.4794 N.am     1 ZINC000006718813   -0.6800
9      C9      0.6651   -2.3222    3.6707 C.2      1 ZINC000006718813    0.7100
10     O10     1.1473   -1.2080    3.7382 O.2      1 ZINC000006718813   -0.5500
11     N11     0.2227   -2.9337    4.7873 N.am     1 ZINC000006718813   -0.6800
12     C12     0.2165   -2.2466    6.0050 C.ar     1 ZINC000006718813    0.1700
13     C13     0.0998   -0.8617    6.0195 C.ar     1 ZINC000006718813   -0.1200
14     C14     0.0930   -0.1819    7.2185 C.ar     1 ZINC000006718813   -0.0800
15     C15     0.2035   -0.8852    8.4182 C.ar     1 ZINC000006718813   -0.0700
16     C16     0.1960   -0.1573    9.7084 C.ar     1 ZINC000006718813    0.0400
17     C17     1.2641   -0.3059   10.6137 C.ar     1 ZINC000006718813   -0.1900
18     C18     2.5055   -1.0772   10.5992 C.2      1 ZINC000006718813    0.3700
19     N19     2.9410   -1.9202    9.5727 N.pl3    1 ZINC000006718813   -0.8400
20     N20     3.1354   -0.8361   11.7189 N.2      1 ZINC000006718813   -0.3200
21     N21     2.3958    0.0571   12.5007 N.pl3    1 ZINC000006718813   -0.5100
22     C22     1.2447    0.3913   11.8351 C.ar     1 ZINC000006718813    0.1500
23     C23     0.1677    1.2226   12.1359 C.ar     1 ZINC000006718813   -0.1500
24     C24    -0.8708    1.3598   11.2417 C.ar     1 ZINC000006718813   -0.0600
25     C25    -0.8611    0.6814   10.0327 C.ar     1 ZINC000006718813   -0.1600
26     C26     0.3205   -2.2752    8.4007 C.ar     1 ZINC000006718813   -0.0900
27     C27     0.3214   -2.9503    7.1991 C.ar     1 ZINC000006718813   -0.1500
28     C28     2.1762   -1.4529    1.4610 C.ar     1 ZINC000006718813   -0.1100
29     H29     4.8050   -0.4130    0.4351 H        1 ZINC000006718813    0.0700
30     H30     3.8076    0.8338   -0.3515 H        1 ZINC000006718813    0.0700
31     H31     3.7626    0.6434    1.4177 H        1 ZINC000006718813    0.0700
32     H32     2.6729   -0.7483   -1.8001 H        1 ZINC000006718813    0.1300
33     H33     0.8290   -2.3628   -2.0294 H        1 ZINC000006718813    0.1400
34     H34     0.1189   -3.8001    2.4130 H        1 ZINC000006718813    0.4100
35     H35    -0.0915   -3.8505    4.7461 H        1 ZINC000006718813    0.4100
36     H36     0.0146   -0.3177    5.0904 H        1 ZINC000006718813    0.1500
37     H37     0.0026    0.8943    7.2292 H        1 ZINC000006718813    0.1300
38     H38     2.4405   -1.9732    8.7434 H        1 ZINC000006718813    0.4100
39     H39     3.7436   -2.4522    9.6897 H        1 ZINC000006718813    0.4100
40     H40     2.6557    0.3873   13.3750 H        1 ZINC000006718813    0.4400
41     H41     0.1471    1.7603   13.0723 H        1 ZINC000006718813    0.1300
42     H42    -1.7012    2.0065   11.4838 H        1 ZINC000006718813    0.1300
43     H43    -1.6835    0.8007    9.3430 H        1 ZINC000006718813    0.1300
44     H44     0.4063   -2.8221    9.3281 H        1 ZINC000006718813    0.1300
45     H45     0.4120   -4.0264    7.1849 H        1 ZINC000006718813    0.1300
46     H46     2.5547   -1.1949    2.4391 H        1 ZINC000006718813    0.1600
@<TRIPOS>BOND
1     1     2     1
2     1     29    1
3     1     30    1
4     1     31    1
5     2     28    ar
6     2     3     ar
7     3     4     ar
8     3     32    1
9     4     5     ar
10    4     33    1
11    5     6     1
12    5     7     ar
13    7     8     1
14    7     28    ar
15    8     9     am
16    8     34    1
17    9     10    2
18    9     11    am
19    11    12    1
20    11    35    1
21    12    27    ar
22    12    13    ar
23    13    14    ar
24    13    36    1
25    14    15    ar
26    14    37    1
27    15    16    1
28    15    26    ar
29    16    25    ar
30    16    17    ar
31    17    22    ar
32    17    18    1
33    18    19    1
34    18    20    2
35    19    38    1
36    19    39    1
37    20    21    1
38    21    22    1
39    21    40    1
40    22    23    ar
41    23    24    ar
42    23    41    1
43    24    25    ar
44    24    42    1
45    25    43    1
46    26    27    ar
47    26    44    1
48    27    45    1
49    28    46    1
@<TRIPOS>SUBSTRUCTURE
1   ZINC000006718813 1     RESIDUE    1   A     ZIN   1
