@<TRIPOS>MOLECULE
ZINC000003596273
  34   36    0    0    0
SMALL
USER_CHARGES
NO_NAME
@<TRIPOS>ATOM
    1 C1       -0.0187     1.5258     0.0104 C.3    1 <0>      -0.1800
    2 C2        0.0021    -0.0041     0.0020 C.3    1 <0>       0.1100
    3 C3       -1.4327    -0.5354     0.0085 C.3    1 <0>      -0.1400
    4 C4        0.7283    -0.4998    -1.2526 C.3    1 <0>      -0.1500
    5 C5        2.1670     0.0246    -1.2253 C.3    1 <0>      -0.1100
    6 C6        2.8516    -0.4205     0.0623 C.3    1 <0>      -0.1700
    7 H7        3.8323     0.0506     0.1283 H      1 <0>       0.1200
    8 C8        3.0205    -1.9260     0.0703 C.2    1 <0>       0.3400
    9 O9        2.6632    -2.6269    -0.8462 O.2    1 <0>      -0.3900
   10 C10       3.6699    -2.4795     1.3115 C.2    1 <0>       0.3600
   11 O11       4.3892    -3.4568     1.2825 O.2    1 <0>      -0.4000
   12 C12       3.3754    -1.7549     2.5704 C.ar   1 <0>      -0.1500
   13 C13       3.8623    -2.2607     3.7799 C.ar   1 <0>      -0.0600
   14 C14       3.6076    -1.5883     4.9563 C.ar   1 <0>      -0.1200
   15 C15       2.8729    -0.4152     4.9346 C.ar   1 <0>      -0.0800
   16 C16       2.3849     0.0853     3.7416 C.ar   1 <0>      -0.1100
   17 C17       2.6238    -0.5794     2.5512 C.ar   1 <0>      -0.0300
   18 C18       2.0260    -0.0328     1.2835 C.3    1 <0>       0.1400
   19 H19       2.0064     1.0557     1.3367 H      1 <0>       0.0900
   20 O20       0.6922    -0.4786     1.1579 O.3    1 <0>      -0.3600
   21 H21       1.0039     1.9031     0.0027 H      1 <0>       0.0600
   22 H22      -0.5459     1.8868    -0.8726 H      1 <0>       0.0700
   23 H23      -0.5289     1.8773     0.9072 H      1 <0>       0.0700
   24 H24      -1.9577    -0.1749    -0.8761 H      1 <0>       0.0700
   25 H25      -1.4166    -1.6252     0.0025 H      1 <0>       0.0600
   26 H26      -1.9460    -0.1845     0.9038 H      1 <0>       0.0700
   27 H27       0.7365    -1.5897    -1.2638 H      1 <0>       0.0800
   28 H28       0.2196    -0.1263    -2.1413 H      1 <0>       0.0800
   29 H29       2.7133    -0.3703    -2.0818 H      1 <0>       0.0800
   30 H30       2.1570     1.1136    -1.2730 H      1 <0>       0.0800
   31 H31       4.4359    -3.1757     3.7925 H      1 <0>       0.1400
   32 H32       3.9802    -1.9762     5.8929 H      1 <0>       0.1400
   33 H33       2.6792     0.1130     5.8565 H      1 <0>       0.1300
   34 H34       1.8134     1.0017     3.7385 H      1 <0>       0.1300
@<TRIPOS>BOND
   1    1    2 1
   2    1   21 1
   3    1   22 1
   4    1   23 1
   5    2   20 1
   6    2    3 1
   7    2    4 1
   8    3   24 1
   9    3   25 1
  10    3   26 1
  11    4    5 1
  12    4   27 1
  13    4   28 1
  14    5    6 1
  15    5   29 1
  16    5   30 1
  17    6    7 1
  18    6   18 1
  19    6    8 1
  20    8    9 2
  21    8   10 1
  22   10   11 2
  23   10   12 1
  24   12   17 ar
  25   12   13 ar
  26   13   14 ar
  27   13   31 1
  28   14   15 ar
  29   14   32 1
  30   15   16 ar
  31   15   33 1
  32   16   17 ar
  33   16   34 1
  34   17   18 1
  35   18   19 1
  36   18   20 1
