@<TRIPOS>MOLECULE
ZINC000030691235
36    38    1     0     0
SMALL
USER_CHARGES
@<TRIPOS>ATOM
1      C1     -0.0184    1.5028    0.0103 C.3      1 ZINC000030691235   -0.0800
2      C2      0.0021   -0.0041    0.0020 C.2      1 ZINC000030691235    0.2500
3      N3      0.0077   -0.7472   -1.0678 N.2      1 ZINC000030691235   -0.4600
4      C4      0.0269   -2.0533   -0.7117 C.ar     1 ZINC000030691235   -0.0400
5      C5      0.0333   -2.0925    0.6856 C.ar     1 ZINC000030691235    0.1100
6      C6      0.0537   -3.3972    1.3346 C.ar     1 ZINC000030691235    0.0800
7      N7      0.0605   -3.5184    2.6599 N.ar     1 ZINC000030691235   -0.4600
8      C8      0.0785   -4.6973    3.2385 C.ar     1 ZINC000030691235    0.0900
9      C9      0.0913   -5.8713    2.4939 C.ar     1 ZINC000030691235   -0.1400
10     C10     0.0852   -5.8136    1.1272 C.ar     1 ZINC000030691235   -0.0700
11     C11     0.0659   -4.5503    0.5126 C.ar     1 ZINC000030691235    0.1500
12     N12     0.0588   -4.4325   -0.8226 N.ar     1 ZINC000030691235   -0.5700
13     C13     0.0408   -3.2699   -1.4328 C.ar     1 ZINC000030691235    0.5100
14     N14     0.0341   -3.2341   -2.8170 N.pl3    1 ZINC000030691235   -0.8200
15     N15     0.0233   -0.7921    1.1106 N.pl3    1 ZINC000030691235   -0.4400
16     C16     0.0256   -0.3335    2.5020 C.3      1 ZINC000030691235    0.1100
17     C17     1.4688   -0.1605    2.9796 C.3      1 ZINC000030691235   -0.1100
18     C18     2.1388    0.9606    2.1828 C.3      1 ZINC000030691235   -0.1600
19     C19     1.4743    0.1975    4.4671 C.3      1 ZINC000030691235   -0.1400
20     H20     1.0042    1.8801    0.0026 H        1 ZINC000030691235    0.0900
21     H21    -0.5455    1.8639   -0.8728 H        1 ZINC000030691235    0.1000
22     H22    -0.5286    1.8543    0.9071 H        1 ZINC000030691235    0.0800
23     H23     0.0838   -4.7561    4.3169 H        1 ZINC000030691235    0.1600
24     H24     0.1063   -6.8283    2.9942 H        1 ZINC000030691235    0.1400
25     H25     0.0953   -6.7168    0.5352 H        1 ZINC000030691235    0.1500
26     H26     0.0425   -4.0612   -3.3236 H        1 ZINC000030691235    0.4100
27     H27     0.0208   -2.3819   -3.2801 H        1 ZINC000030691235    0.4200
28     H28    -0.4967    0.6207    2.5708 H        1 ZINC000030691235    0.1000
29     H29    -0.4786   -1.0696    3.1281 H        1 ZINC000030691235    0.1100
30     H30     2.0157   -1.0911    2.8279 H        1 ZINC000030691235    0.0800
31     H31     1.5919    1.8912    2.3345 H        1 ZINC000030691235    0.0600
32     H32     3.1670    1.0838    2.5230 H        1 ZINC000030691235    0.0600
33     H33     2.1349    0.7055    1.1230 H        1 ZINC000030691235    0.0600
34     H34     0.9969   -0.6012    5.0348 H        1 ZINC000030691235    0.0600
35     H35     2.5024    0.3207    4.8074 H        1 ZINC000030691235    0.0600
36     H36     0.9273    1.1280    4.6189 H        1 ZINC000030691235    0.0600
@<TRIPOS>BOND
1     1     2     1
2     1     20    1
3     1     21    1
4     1     22    1
5     2     15    1
6     2     3     2
7     3     4     1
8     4     13    ar
9     4     5     ar
10    5     6     ar
11    5     15    1
12    6     11    ar
13    6     7     ar
14    7     8     ar
15    8     9     ar
16    8     23    1
17    9     10    ar
18    9     24    1
19    10    11    ar
20    10    25    1
21    11    12    ar
22    12    13    ar
23    13    14    1
24    14    26    1
25    14    27    1
26    15    16    1
27    16    17    1
28    16    28    1
29    16    29    1
30    17    18    1
31    17    19    1
32    17    30    1
33    18    31    1
34    18    32    1
35    18    33    1
36    19    34    1
37    19    35    1
38    19    36    1
@<TRIPOS>SUBSTRUCTURE
1   ZINC000030691235 1     RESIDUE    1   A     ZIN   1
