@<TRIPOS>MOLECULE
ZINC000003929892
52    55    1     0     0
SMALL
USER_CHARGES
@<TRIPOS>ATOM
1      N1     -0.1915    1.6430    0.6414 N.pl3    1 ZINC000003929892   -0.7800
2      C2     -0.1340    0.2667    0.5003 C.cat    1 ZINC000003929892    0.3400
3      N3     -1.1607   -0.5191    0.4070 N.pl3    1 ZINC000003929892   -0.4900
4      H4     -2.0672   -0.1750    0.4313 H        1 ZINC000003929892    0.4500
5      C5     -0.9122   -1.8227    0.2757 C.2      1 ZINC000003929892    0.2200
6      C6     -1.9910   -2.8272    0.1587 C.2      1 ZINC000003929892   -0.1000
7      N7     -1.6947   -4.0896    0.0322 N.2      1 ZINC000003929892   -0.2200
8      O8     -2.7251   -5.0607    0.0179 O.3      1 ZINC000003929892   -0.4400
9      C9     -3.4091   -2.3981    0.1854 C.2      1 ZINC000003929892    0.5600
10     O10    -3.6867   -1.2154    0.1563 O.2      1 ZINC000003929892   -0.6100
11     N11    -4.3911   -3.3195    0.2420 N.am     1 ZINC000003929892   -0.6600
12     C12    -5.7923   -2.9040    0.1405 C.3      1 ZINC000003929892    0.1200
13     H13    -5.9176   -1.9635   -0.3961 H        1 ZINC000003929892    0.1400
14     C14    -6.5410   -2.9568    1.4612 C.2      1 ZINC000003929892    0.5400
15     O15    -6.5496   -2.2665    2.4583 O.2      1 ZINC000003929892   -0.4400
16     N16    -7.1901   -4.0731    1.0860 N.am     1 ZINC000003929892   -0.5500
17     C17    -7.9031   -5.1114    1.6823 C.2      1 ZINC000003929892    0.1300
18     C18    -8.6725   -4.8661    2.9148 C.2      1 ZINC000003929892    0.5200
19     O19    -9.3808   -5.7487    3.3795 O.co2    1 ZINC000003929892   -0.6400
20     O20    -8.6030   -3.7800    3.4733 O.co2    1 ZINC000003929892   -0.6500
21     C21    -7.8878   -6.3416    1.1283 C.2      1 ZINC000003929892   -0.1900
22     C22    -8.5671   -7.3541    1.8447 C.2      1 ZINC000003929892    0.1200
23     C23    -9.5548   -8.0609    1.2457 C.2      1 ZINC000003929892   -0.2600
24     C24    -9.9774   -7.9713   -0.2059 C.3      1 ZINC000003929892   -0.0800
25     C25   -11.1282   -8.9845   -0.3255 C.3      1 ZINC000003929892    0.1100
26     N26   -11.2957   -9.5738    1.0044 N.am     1 ZINC000003929892   -0.6300
27     C27   -12.2923  -10.5945    1.3377 C.3      1 ZINC000003929892    0.0900
28     C28   -11.6931  -11.9845    1.1144 C.3      1 ZINC000003929892    0.4300
29     F29   -10.5697  -12.1449    1.9326 F        1 ZINC000003929892   -0.1700
30     F30   -12.6448  -12.9592    1.4327 F        1 ZINC000003929892   -0.1900
31     F31   -11.3168  -12.1203   -0.2262 F        1 ZINC000003929892   -0.1900
32     C32   -10.4159   -9.0636    1.8745 C.2      1 ZINC000003929892    0.5700
33     O33   -10.3468   -9.3864    3.0457 O.2      1 ZINC000003929892   -0.5200
34     C34    -7.2407   -6.7636   -0.1501 C.3      1 ZINC000003929892   -0.0300
35     S35    -5.9266   -5.6171   -0.6654 S.3      1 ZINC000003929892   -0.1800
36     C36    -6.7260   -4.0112   -0.3384 C.3      1 ZINC000003929892    0.1200
37     H37    -7.4752   -3.7212   -1.0750 H        1 ZINC000003929892    0.1400
38     C38     0.3926   -2.1586    0.2567 C.2      1 ZINC000003929892   -0.2500
39     S39     1.3451   -0.6845    0.4124 S.3      1 ZINC000003929892    0.2900
40     H40     0.6276    2.1592    0.7004 H        1 ZINC000003929892    0.4400
41     H41    -1.0509    2.0914    0.6774 H        1 ZINC000003929892    0.4300
42     H42    -4.1701   -4.2578    0.3498 H        1 ZINC000003929892    0.4300
43     H43    -8.2983   -7.5637    2.8695 H        1 ZINC000003929892    0.1400
44     H44   -10.3280   -6.9662   -0.4400 H        1 ZINC000003929892    0.0800
45     H45    -9.1527   -8.2513   -0.8614 H        1 ZINC000003929892    0.0800
46     H46   -12.0440   -8.4770   -0.6283 H        1 ZINC000003929892    0.0700
47     H47   -10.8718   -9.7588   -1.0487 H        1 ZINC000003929892    0.0700
48     H48   -12.5854  -10.4887    2.3822 H        1 ZINC000003929892    0.1300
49     H49   -13.1676  -10.4695    0.7002 H        1 ZINC000003929892    0.1200
50     H50    -6.8119   -7.7571   -0.0185 H        1 ZINC000003929892    0.1200
51     H51    -7.9984   -6.8080   -0.9324 H        1 ZINC000003929892    0.1000
52     H52     0.7870   -3.1592    0.1584 H        1 ZINC000003929892    0.2200
@<TRIPOS>BOND
1     1     2     ar
2     1     40    1
3     1     41    1
4     2     39    1
5     2     3     ar
6     3     4     1
7     3     5     1
8     5     6     1
9     5     38    2
10    6     7     2
11    6     9     1
12    7     8     1
13    9     10    2
14    9     11    am
15    11    12    1
16    11    42    1
17    12    13    1
18    12    36    1
19    12    14    1
20    14    15    2
21    14    16    am
22    16    36    1
23    16    17    1
24    17    18    1
25    17    21    2
26    18    19    ar
27    18    20    ar
28    21    22    1
29    21    34    1
30    22    23    2
31    22    43    1
32    23    32    1
33    23    24    1
34    24    25    1
35    24    44    1
36    24    45    1
37    25    26    1
38    25    46    1
39    25    47    1
40    26    27    1
41    26    32    am
42    27    28    1
43    27    48    1
44    27    49    1
45    28    29    1
46    28    30    1
47    28    31    1
48    32    33    2
49    34    35    1
50    34    50    1
51    34    51    1
52    35    36    1
53    36    37    1
54    38    39    1
55    38    52    1
@<TRIPOS>SUBSTRUCTURE
1   ZINC000003929892 1     RESIDUE    1   A     ZIN   1
