@<TRIPOS>MOLECULE
ZINC000004654260
  53   56    0    0    0
SMALL
USER_CHARGES
NO_NAME
@<TRIPOS>ATOM
    1 N1       -0.0165     1.3678     0.0096 N.pl3  1 <0>      -0.8400
    2 C2        0.0021    -0.0041     0.0020 C.2    1 <0>       0.5800
    3 N3       -1.1393    -0.6588     0.0040 N.2    1 <0>      -0.6800
    4 C4       -1.1677    -1.9962    -0.0029 C.2    1 <0>       0.3900
    5 C5        0.0361    -2.6993    -0.0229 C.2    1 <0>      -0.1300
    6 C6        1.2413    -2.0009    -0.0227 C.2    1 <0>       0.5200
    7 O7        2.3088    -2.5949    -0.0358 O.2    1 <0>      -0.6200
    8 N8        1.2005    -0.6490    -0.0129 N.pl3  1 <0>      -0.7000
    9 N9       -0.0360    -4.1028    -0.0514 N.pl3  1 <0>      -0.6200
   10 C10       0.9341    -5.0855    -0.5168 C.3    1 <0>       0.3800
   11 N11       0.3853    -6.4269    -0.2482 N.pl3  1 <0>      -0.6400
   12 C12       1.0974    -7.6098    -0.0841 C.ar   1 <0>       0.2600
   13 C13       0.4191    -8.8007     0.1606 C.ar   1 <0>      -0.2100
   14 C14       1.1209    -9.9730     0.3235 C.ar   1 <0>      -0.0200
   15 C15       2.5166    -9.9674     0.2430 C.ar   1 <0>      -0.1800
   16 C16       3.2720   -11.2225     0.4166 C.2    1 <0>       0.5600
   17 O17       2.6808   -12.2634     0.6300 O.2    1 <0>      -0.5700
   18 N18       4.6175   -11.2155     0.3387 N.am   1 <0>      -0.6800
   19 C19       5.3677   -12.4619     0.5112 C.3    1 <0>       0.0700
   20 H20       4.7993   -13.2898     0.0874 H      1 <0>       0.0800
   21 C21       6.7153   -12.3493    -0.2047 C.3    1 <0>      -0.0800
   22 C22       6.4831   -12.2218    -1.7116 C.3    1 <0>      -0.1800
   23 C23       7.8104   -12.1109    -2.4167 C.2    1 <0>       0.4900
   24 O24       8.8460   -12.1319    -1.7735 O.co2  1 <0>      -0.7000
   25 O25       7.8486   -12.0001    -3.6303 O.co2  1 <0>      -0.7200
   26 C26       5.5982   -12.7105     1.9795 C.2    1 <0>       0.5000
   27 O27       5.1750   -11.9197     2.8055 O.co2  1 <0>      -0.6900
   28 O28       6.2079   -13.7023     2.3416 O.co2  1 <0>      -0.7100
   29 C29       3.1948    -8.7699    -0.0029 C.ar   1 <0>      -0.0300
   30 C30       2.4869    -7.6019    -0.1705 C.ar   1 <0>      -0.2000
   31 C31      -1.0826    -6.2501    -0.1900 C.3    1 <0>       0.1100
   32 C32      -1.2648    -4.8268     0.3516 C.3    1 <0>       0.1100
   33 H33      -1.3800    -4.8323     1.4354 H      1 <0>       0.0600
   34 C34      -2.4436    -4.1161    -0.3229 C.3    1 <0>       0.1400
   35 N35      -2.3694    -2.6834     0.0185 N.pl3  1 <0>      -0.7400
   36 H36       0.8168     1.8642     0.0043 H      1 <0>       0.4000
   37 H37      -0.8631     1.8413     0.0162 H      1 <0>       0.3900
   38 H38       1.0996    -4.9622    -1.5870 H      1 <0>       0.0400
   39 H39       1.8746    -4.9577     0.0192 H      1 <0>       0.0700
   40 H40      -0.6591    -8.8043     0.2231 H      1 <0>       0.1200
   41 H41       0.5942   -10.8965     0.5137 H      1 <0>       0.1300
   42 H42       5.0891   -10.3851     0.1685 H      1 <0>       0.3900
   43 H43       7.2463   -11.4688     0.1569 H      1 <0>       0.0500
   44 H44       7.3095   -13.2405    -0.0028 H      1 <0>       0.0800
   45 H45       5.9521   -13.1023    -2.0732 H      1 <0>       0.0500
   46 H46       5.8889   -11.3306    -1.9135 H      1 <0>       0.0500
   47 H47       4.2730    -8.7623    -0.0653 H      1 <0>       0.1300
   48 H48       3.0103    -6.6765    -0.3608 H      1 <0>       0.1300
   49 H49      -1.5179    -6.3387    -1.1854 H      1 <0>       0.0700
   50 H50      -1.5283    -6.9771     0.4890 H      1 <0>       0.0800
   51 H51      -2.3727    -4.2320    -1.4044 H      1 <0>       0.0500
   52 H52      -3.3818    -4.5423     0.0324 H      1 <0>       0.0700
   53 H53      -3.1757    -2.2125     0.2812 H      1 <0>       0.3900
@<TRIPOS>BOND
   1    1    2 1
   2    1   36 1
   3    1   37 1
   4    2    8 1
   5    2    3 2
   6    3    4 1
   7    4   35 1
   8    4    5 2
   9    5    6 1
  10    5    9 1
  11    6    7 2
  12    6    8 1
  13    9   32 1
  14    9   10 1
  15   10   11 1
  16   10   38 1
  17   10   39 1
  18   11   12 1
  19   11   31 1
  20   12   30 ar
  21   12   13 ar
  22   13   14 ar
  23   13   40 1
  24   14   15 ar
  25   14   41 1
  26   15   16 1
  27   15   29 ar
  28   16   17 2
  29   16   18 am
  30   18   19 1
  31   18   42 1
  32   19   20 1
  33   19   21 1
  34   19   26 1
  35   21   22 1
  36   21   43 1
  37   21   44 1
  38   22   23 1
  39   22   45 1
  40   22   46 1
  41   23   24 ar
  42   23   25 ar
  43   26   27 ar
  44   26   28 ar
  45   29   30 ar
  46   29   47 1
  47   30   48 1
  48   31   32 1
  49   31   49 1
  50   31   50 1
  51   32   33 1
  52   32   34 1
  53   34   35 1
  54   34   51 1
  55   34   52 1
  56   35   53 1
