@<TRIPOS>MOLECULE
ZINC000000021714
  36   39    0    0    0
SMALL
USER_CHARGES
NO_NAME
@<TRIPOS>ATOM
    1 C1       -0.0118     1.5217     0.0168 C.3    1 <0>      -0.1700
    2 C2        0.0084    -0.0081     0.0059 C.3    1 <0>       0.1400
    3 N3        0.6914    -0.4789    -1.2016 N.pl3  1 <0>      -0.5600
    4 C4       -0.0050    -0.7154    -2.3813 C.2    1 <0>       0.1700
    5 C5        0.3093    -0.1401    -3.5896 C.2    1 <0>       0.0000
    6 O6       -0.4959    -0.6499    -4.5495 O.3    1 <0>      -0.1400
    7 C7       -1.4017    -1.4755    -4.0176 C.ar   1 <0>       0.0400
    8 C8       -2.4550    -2.1887    -4.5886 C.ar   1 <0>      -0.0500
    9 C9       -3.2012    -2.9636    -3.7095 C.ar   1 <0>      -0.1300
   10 C10      -2.8977    -3.0077    -2.3592 C.ar   1 <0>       0.0900
   11 N11      -1.8979    -2.3281    -1.8258 N.ar   1 <0>      -0.4100
   12 C12      -1.1520    -1.5695    -2.6246 C.ar   1 <0>       0.0500
   13 C13       1.3283     0.8944    -3.7409 C.2    1 <0>       0.3900
   14 S14       1.0792     2.1260    -4.9036 S.2    1 <0>      -0.4900
   15 N15       2.4409     0.9211    -3.0141 N.am   1 <0>      -0.4500
   16 C16       3.2865     2.1070    -3.1722 C.3    1 <0>       0.0600
   17 C17       2.8975    -0.0419    -2.1216 C.ar   1 <0>       0.0500
   18 C18       4.2564    -0.3562    -2.1322 C.ar   1 <0>      -0.0600
   19 C19       4.7339    -1.3006    -1.2359 C.ar   1 <0>      -0.1600
   20 C20       3.8589    -1.9033    -0.3566 C.ar   1 <0>       0.1300
   21 N21       2.5754    -1.5954    -0.3687 N.ar   1 <0>      -0.4800
   22 C22       2.0756    -0.7038    -1.2170 C.ar   1 <0>       0.3800
   23 H23       1.0109     1.8987     0.0074 H      1 <0>       0.0500
   24 H24      -0.5408     1.8844    -0.8645 H      1 <0>       0.0600
   25 H25      -0.5199     1.8720     0.9153 H      1 <0>       0.0800
   26 H26       0.5375    -0.3707     0.8873 H      1 <0>       0.0900
   27 H27      -1.0142    -0.3851     0.0153 H      1 <0>       0.0900
   28 H28      -2.6760    -2.1421    -5.6447 H      1 <0>       0.1600
   29 H29      -4.0325    -3.5414    -4.0858 H      1 <0>       0.1500
   30 H30      -3.5052    -3.6245    -1.7135 H      1 <0>       0.1700
   31 H31       2.6959     3.0027    -2.9799 H      1 <0>       0.1000
   32 H32       4.1149     2.0593    -2.4655 H      1 <0>       0.0900
   33 H33       3.6779     2.1412    -4.1890 H      1 <0>       0.1000
   34 H34       4.9260     0.1279    -2.8276 H      1 <0>       0.1500
   35 H35       5.7817    -1.5621    -1.2269 H      1 <0>       0.1500
   36 H36       4.2273    -2.6337     0.3486 H      1 <0>       0.1700
@<TRIPOS>BOND
   1    1    2 1
   2    1   23 1
   3    1   24 1
   4    1   25 1
   5    2    3 1
   6    2   26 1
   7    2   27 1
   8    3   22 1
   9    3    4 1
  10    4   12 1
  11    4    5 2
  12    5    6 1
  13    5   13 1
  14    6    7 1
  15    7   12 ar
  16    7    8 ar
  17    8    9 ar
  18    8   28 1
  19    9   10 ar
  20    9   29 1
  21   10   11 ar
  22   10   30 1
  23   11   12 ar
  24   13   14 2
  25   13   15 am
  26   15   16 1
  27   15   17 1
  28   16   31 1
  29   16   32 1
  30   16   33 1
  31   17   22 ar
  32   17   18 ar
  33   18   19 ar
  34   18   34 1
  35   19   20 ar
  36   19   35 1
  37   20   21 ar
  38   20   36 1
  39   21   22 ar
