@<TRIPOS>MOLECULE
ZINC000000000857
37    39    1     0     0
SMALL
USER_CHARGES
@<TRIPOS>ATOM
1      O1     -0.0164    1.3548    0.0095 O.3      1 ZINC000000000857   -0.5000
2      C2      0.0021   -0.0041    0.0020 C.ar     1 ZINC000000000857    0.1000
3      C3      0.0058   -0.6923   -1.2026 C.ar     1 ZINC000000000857   -0.1400
4      C4      0.0251   -2.0736   -1.2075 C.ar     1 ZINC000000000857   -0.0800
5      C5      0.0401   -2.7702   -0.0132 C.ar     1 ZINC000000000857   -0.0800
6      C6      0.0606   -4.2770   -0.0215 C.3      1 ZINC000000000857   -0.0800
7      C7      1.5098   -4.7674   -0.0310 C.3      1 ZINC000000000857    0.1400
8      H8      2.0437   -4.3282    0.8117 H        1 ZINC000000000857    0.1000
9      N9      2.1532   -4.3514   -1.2812 N.3      1 ZINC000000000857   -0.6700
10     C10     3.4908   -4.9549   -1.3912 C.3      1 ZINC000000000857    0.0600
11     C11     3.3275   -6.4514   -1.6580 C.3      1 ZINC000000000857   -0.1200
12     C12     2.3772   -7.0525   -0.6540 C.ar     1 ZINC000000000857   -0.0700
13     C13     2.3700   -8.4303   -0.4958 C.ar     1 ZINC000000000857   -0.1300
14     C14     1.5114   -9.0261    0.4111 C.ar     1 ZINC000000000857    0.0800
15     O15     1.5087  -10.3775    0.5634 O.3      1 ZINC000000000857   -0.4900
16     C16     0.6510   -8.2355    1.1670 C.ar     1 ZINC000000000857    0.0800
17     O17    -0.1981   -8.8112    2.0599 O.3      1 ZINC000000000857   -0.4900
18     C18     0.6634   -6.8614    1.0065 C.ar     1 ZINC000000000857   -0.1200
19     C19     1.5277   -6.2683    0.0968 C.ar     1 ZINC000000000857   -0.1100
20     C20     0.0368   -2.0866    1.1886 C.ar     1 ZINC000000000857   -0.1000
21     C21     0.0230   -0.7053    1.1989 C.ar     1 ZINC000000000857   -0.1500
22     H22     0.8616    1.7601    0.0033 H        1 ZINC000000000857    0.3900
23     H23    -0.0066   -0.1486   -2.1357 H        1 ZINC000000000857    0.1300
24     H24     0.0280   -2.6098   -2.1449 H        1 ZINC000000000857    0.1200
25     H25    -0.4441   -4.6522    0.8688 H        1 ZINC000000000857    0.0800
26     H26    -0.4525   -4.6425   -0.9111 H        1 ZINC000000000857    0.0800
27     H27     1.5823   -4.5896   -2.0783 H        1 ZINC000000000857    0.3400
28     H28     4.0342   -4.4931   -2.2155 H        1 ZINC000000000857    0.0900
29     H29     4.0372   -4.8064   -0.4598 H        1 ZINC000000000857    0.0800
30     H30     2.9327   -6.5987   -2.6632 H        1 ZINC000000000857    0.0800
31     H31     4.2977   -6.9415   -1.5764 H        1 ZINC000000000857    0.0800
32     H32     3.0381   -9.0417   -1.0841 H        1 ZINC000000000857    0.1300
33     H33     2.1242  -10.6986    1.2366 H        1 ZINC000000000857    0.3900
34     H34     0.1722   -8.9094    2.9477 H        1 ZINC000000000857    0.3900
35     H35    -0.0039   -6.2467    1.5923 H        1 ZINC000000000857    0.1400
36     H36     0.0490   -2.6330    2.1202 H        1 ZINC000000000857    0.1200
37     H37     0.0204   -0.1718    2.1379 H        1 ZINC000000000857    0.1300
@<TRIPOS>BOND
1     1     2     1
2     1     22    1
3     2     21    ar
4     2     3     ar
5     3     4     ar
6     3     23    1
7     4     5     ar
8     4     24    1
9     5     6     1
10    5     20    ar
11    6     7     1
12    6     25    1
13    6     26    1
14    7     8     1
15    7     19    1
16    7     9     1
17    9     10    1
18    9     27    1
19    10    11    1
20    10    28    1
21    10    29    1
22    11    12    1
23    11    30    1
24    11    31    1
25    12    19    ar
26    12    13    ar
27    13    14    ar
28    13    32    1
29    14    15    1
30    14    16    ar
31    15    33    1
32    16    17    1
33    16    18    ar
34    17    34    1
35    18    19    ar
36    18    35    1
37    20    21    ar
38    20    36    1
39    21    37    1
@<TRIPOS>SUBSTRUCTURE
1   ZINC000000000857 1     RESIDUE    1   A     ZIN   1
