@<TRIPOS>MOLECULE
ZINC000014210883
66    70    1     0     0
SMALL
USER_CHARGES
@<TRIPOS>ATOM
1      C1     -1.9511    1.9677    2.1523 C.3      1 ZINC000014210883    0.0200
2      O2     -1.4521    0.6869    1.7616 O.3      1 ZINC000014210883   -0.2800
3      C3     -0.6590    0.0355    2.6529 C.ar     1 ZINC000014210883    0.1300
4      C4     -0.1242   -1.2198    2.3474 C.ar     1 ZINC000014210883   -0.0300
5      C5     -0.1944   -2.1307    1.1938 C.2      1 ZINC000014210883   -0.2800
6      C6     -0.9259   -1.9143   -0.0538 C.2      1 ZINC000014210883    0.4300
7      O7     -1.5631   -0.8919   -0.2152 O.2      1 ZINC000014210883   -0.4100
8      C8     -0.8900   -2.9483   -1.1283 C.2      1 ZINC000014210883    0.4900
9      O9     -0.3699   -4.0247   -0.9177 O.2      1 ZINC000014210883   -0.5000
10     N10    -1.4349   -2.6873   -2.3330 N.am     1 ZINC000014210883   -0.5900
11     C11    -1.9328   -1.3422   -2.6533 C.3      1 ZINC000014210883    0.0500
12     C12    -1.2456   -0.8578   -3.9360 C.3      1 ZINC000014210883    0.0700
13     N13    -1.3522   -1.9132   -4.9531 N.am     1 ZINC000014210883   -0.6100
14     C14    -1.8963   -1.6521   -6.1582 C.2      1 ZINC000014210883    0.5600
15     O15    -2.0536   -2.5506   -6.9616 O.2      1 ZINC000014210883   -0.5300
16     C16    -2.3019   -0.2728   -6.5029 C.ar     1 ZINC000014210883   -0.1300
17     C17    -1.5529    0.8129   -6.0464 C.ar     1 ZINC000014210883   -0.1000
18     C18    -1.9366    2.0974   -6.3720 C.ar     1 ZINC000014210883   -0.1300
19     C19    -3.0614    2.3107   -7.1490 C.ar     1 ZINC000014210883   -0.1000
20     C20    -3.8085    1.2389   -7.6044 C.ar     1 ZINC000014210883   -0.1300
21     C21    -3.4323   -0.0509   -7.2911 C.ar     1 ZINC000014210883   -0.0600
22     C22    -0.8543   -3.2584   -4.6329 C.3      1 ZINC000014210883    0.1000
23     C23    -1.5364   -3.7413   -3.3522 C.3      1 ZINC000014210883    0.0900
24     C24     0.5718   -3.2334    1.5284 C.2      1 ZINC000014210883    0.2100
25     N25     1.0863   -3.0669    2.7598 N.pl3    1 ZINC000014210883   -0.4300
26     C26     1.9494   -4.0363    3.4393 C.3      1 ZINC000014210883    0.3600
27     O27     1.9795   -5.2536    2.6914 O.3      1 ZINC000014210883   -0.7700
28     P28     2.8316   -6.5416    3.1467 P.3      1 ZINC000014210883    2.2200
29     O29     2.4319   -6.9415    4.5845 O.2      1 ZINC000014210883   -1.1000
30     O30     4.3384   -6.2027    3.1063 O.3      1 ZINC000014210883   -1.0900
31     O31     2.5298   -7.7659    2.1456 O.3      1 ZINC000014210883   -0.9000
32     C32     0.6909   -1.8594    3.2955 C.ar     1 ZINC000014210883    0.0800
33     C33     0.9343   -1.2128    4.5083 C.ar     1 ZINC000014210883    0.3400
34     N34     1.7429   -1.8251    5.4722 N.pl3    1 ZINC000014210883   -0.3400
35     C35     1.6474   -1.6923    6.8099 C.2      1 ZINC000014210883    0.2900
36     N36     2.5829   -2.4251    7.3575 N.2      1 ZINC000014210883   -0.5400
37     C37     3.2916   -3.0369    6.4090 C.2      1 ZINC000014210883    0.2600
38     C38     4.4536   -3.9664    6.6473 C.3      1 ZINC000014210883   -0.0700
39     N39     2.8120   -2.7055    5.2386 N.2      1 ZINC000014210883   -0.3300
40     N40     0.4067   -0.0259    4.7523 N.ar     1 ZINC000014210883   -0.4400
41     C41    -0.3598    0.6038    3.8786 C.ar     1 ZINC000014210883    0.0000
42     H42    -1.1151    2.6397    2.3462 H        1 ZINC000014210883    0.0600
43     H43    -2.5681    2.3767    1.3522 H        1 ZINC000014210883    0.1000
44     H44    -2.5509    1.8635    3.0565 H        1 ZINC000014210883    0.0600
45     H45    -3.0112   -1.3783   -2.8073 H        1 ZINC000014210883    0.0700
46     H46    -1.7003   -0.6615   -1.8343 H        1 ZINC000014210883    0.1500
47     H47    -1.7364    0.0469   -4.2947 H        1 ZINC000014210883    0.1100
48     H48    -0.1950   -0.6508   -3.7324 H        1 ZINC000014210883    0.0800
49     H49    -0.6751    0.6477   -5.4392 H        1 ZINC000014210883    0.1400
50     H50    -1.3579    2.9383   -6.0194 H        1 ZINC000014210883    0.1300
51     H51    -3.3577    3.3183   -7.4008 H        1 ZINC000014210883    0.1300
52     H52    -4.6857    1.4123   -8.2102 H        1 ZINC000014210883    0.1300
53     H53    -4.0161   -0.8866   -7.6475 H        1 ZINC000014210883    0.1300
54     H54    -1.0868   -3.9391   -5.4519 H        1 ZINC000014210883    0.1100
55     H55     0.2241   -3.2223   -4.4789 H        1 ZINC000014210883    0.0800
56     H56    -1.0447   -4.6460   -2.9946 H        1 ZINC000014210883    0.1100
57     H57    -2.5875   -3.9484   -3.5532 H        1 ZINC000014210883    0.0800
58     H58     0.7319   -4.0953    0.8976 H        1 ZINC000014210883    0.2100
59     H59     2.9588   -3.6324    3.5168 H        1 ZINC000014210883    0.1200
60     H60     1.5590   -4.2329    4.4379 H        1 ZINC000014210883    0.0800
61     H61     3.0106   -8.5770    2.3602 H        1 ZINC000014210883    0.4200
62     H62     0.9253   -1.0867    7.3376 H        1 ZINC000014210883    0.2200
63     H63     4.0880   -4.9892    6.7380 H        1 ZINC000014210883    0.1000
64     H64     5.1482   -3.9017    5.8097 H        1 ZINC000014210883    0.0900
65     H65     4.9650   -3.6805    7.5664 H        1 ZINC000014210883    0.0900
66     H66    -0.7659    1.5728    4.1287 H        1 ZINC000014210883    0.1700
@<TRIPOS>BOND
1     1     2     1
2     1     42    1
3     1     43    1
4     1     44    1
5     2     3     1
6     3     41    ar
7     3     4     ar
8     4     32    ar
9     4     5     1
10    5     6     1
11    5     24    2
12    6     7     2
13    6     8     1
14    8     9     2
15    8     10    am
16    10    23    1
17    10    11    1
18    11    12    1
19    11    45    1
20    11    46    1
21    12    13    1
22    12    47    1
23    12    48    1
24    13    14    am
25    13    22    1
26    14    15    2
27    14    16    1
28    16    21    ar
29    16    17    ar
30    17    18    ar
31    17    49    1
32    18    19    ar
33    18    50    1
34    19    20    ar
35    19    51    1
36    20    21    ar
37    20    52    1
38    21    53    1
39    22    23    1
40    22    54    1
41    22    55    1
42    23    56    1
43    23    57    1
44    24    25    1
45    24    58    1
46    25    26    1
47    25    32    1
48    26    27    1
49    26    59    1
50    26    60    1
51    27    28    1
52    28    29    2
53    28    30    1
54    28    31    1
55    31    61    1
56    32    33    ar
57    33    34    1
58    33    40    ar
59    34    39    1
60    34    35    1
61    35    36    2
62    35    62    1
63    36    37    1
64    37    38    1
65    37    39    2
66    38    63    1
67    38    64    1
68    38    65    1
69    40    41    ar
70    41    66    1
@<TRIPOS>SUBSTRUCTURE
1   ZINC000014210883 1     RESIDUE    1   A     ZIN   1
