@<TRIPOS>MOLECULE
ZINC000000833553
51    56    1     0     0
SMALL
USER_CHARGES
@<TRIPOS>ATOM
1      O1      0.0022   -0.0041    0.0130 O.co2    1 ZINC000000833553   -0.6300
2      C2     -0.0145    1.2194    0.0087 C.2      1 ZINC000000833553    0.5200
3      O3      1.0366    1.8455   -0.0089 O.co2    1 ZINC000000833553   -0.6800
4      C4     -1.2981    1.9374    0.0187 C.ar     1 ZINC000000833553   -0.0700
5      C5     -1.3567    3.3959    0.1297 C.ar     1 ZINC000000833553   -0.0800
6      C6     -0.1958    4.1696    0.2303 C.ar     1 ZINC000000833553   -0.0700
7      C7     -0.2973    5.5258    0.3315 C.ar     1 ZINC000000833553   -0.1500
8      C8     -1.5428    6.1492    0.3357 C.ar     1 ZINC000000833553   -0.1000
9      C9     -2.6915    5.4251    0.2392 C.ar     1 ZINC000000833553   -0.1100
10     C10    -2.6263    4.0242    0.1333 C.ar     1 ZINC000000833553    0.1200
11     N11    -3.7370    3.2881    0.0368 N.ar     1 ZINC000000833553   -0.4800
12     C12    -3.7124    1.9868   -0.0632 C.ar     1 ZINC000000833553    0.1900
13     C13    -5.0186    1.2425   -0.1679 C.3      1 ZINC000000833553   -0.1100
14     C14    -6.3057    2.0400    0.0519 C.3      1 ZINC000000833553   -0.1600
15     C15    -5.9264    1.5721   -1.3545 C.3      1 ZINC000000833553   -0.1500
16     C16    -2.5165    1.2566   -0.0832 C.ar     1 ZINC000000833553    0.0500
17     O17    -2.5400   -0.0937   -0.1884 O.3      1 ZINC000000833553   -0.2300
18     C18    -2.5146   -0.6369   -1.4333 C.ar     1 ZINC000000833553    0.1700
19     C19    -2.4603    0.1888   -2.5486 C.ar     1 ZINC000000833553   -0.2200
20     C20    -2.4348   -0.3595   -3.8134 C.ar     1 ZINC000000833553   -0.0600
21     C21    -2.4632   -1.7447   -3.9720 C.ar     1 ZINC000000833553   -0.1100
22     C22    -2.4355   -2.3374   -5.3302 C.ar     1 ZINC000000833553   -0.0200
23     C23    -3.3132   -1.8824   -6.3105 C.ar     1 ZINC000000833553   -0.1200
24     C24    -3.2835   -2.4370   -7.5744 C.ar     1 ZINC000000833553   -0.1400
25     C25    -2.3846   -3.4456   -7.8751 C.ar     1 ZINC000000833553   -0.1300
26     C26    -1.5077   -3.9086   -6.9142 C.ar     1 ZINC000000833553   -0.1100
27     C27    -1.5202   -3.3567   -5.6369 C.ar     1 ZINC000000833553    0.0500
28     C28    -0.5800   -3.8510   -4.6016 C.2      1 ZINC000000833553    0.0700
29     N29    -0.4849   -3.4237   -3.3468 N.2      1 ZINC000000833553   -0.3400
30     N30     0.4489   -4.1038   -2.7743 N.pl3    1 ZINC000000833553   -0.1800
31     N31     0.9416   -4.9392   -3.6207 N.2      1 ZINC000000833553   -0.2000
32     N32     0.3272   -4.8113   -4.7469 N.2      1 ZINC000000833553   -0.3800
33     C33    -2.5173   -2.5711   -2.8500 C.ar     1 ZINC000000833553    0.0500
34     C34    -2.5373   -2.0169   -1.5877 C.ar     1 ZINC000000833553   -0.1600
35     H35     0.7747    3.6959    0.2283 H        1 ZINC000000833553    0.1800
36     H36     0.5988    6.1236    0.4096 H        1 ZINC000000833553    0.1200
37     H37    -1.5981    7.2247    0.4171 H        1 ZINC000000833553    0.1200
38     H38    -3.6491    5.9245    0.2440 H        1 ZINC000000833553    0.1200
39     H39    -5.0004    0.2098    0.1803 H        1 ZINC000000833553    0.1200
40     H40    -7.1345    1.5320    0.5449 H        1 ZINC000000833553    0.0900
41     H41    -6.2077    3.1030    0.2722 H        1 ZINC000000833553    0.1000
42     H42    -5.5788    2.3273   -2.0595 H        1 ZINC000000833553    0.0900
43     H43    -6.5057    0.7563   -1.7869 H        1 ZINC000000833553    0.1000
44     H44    -2.4383    1.2615   -2.4252 H        1 ZINC000000833553    0.1000
45     H45    -2.3933    0.2831   -4.6804 H        1 ZINC000000833553    0.1100
46     H46    -4.0173   -1.0959   -6.0822 H        1 ZINC000000833553    0.1200
47     H47    -3.9658   -2.0821   -8.3326 H        1 ZINC000000833553    0.1100
48     H48    -2.3691   -3.8730   -8.8667 H        1 ZINC000000833553    0.1100
49     H49    -0.8090   -4.6961   -7.1553 H        1 ZINC000000833553    0.1300
50     H50    -2.5394   -3.6442   -2.9696 H        1 ZINC000000833553    0.1200
51     H51    -2.5791   -2.6563   -0.7184 H        1 ZINC000000833553    0.1200
@<TRIPOS>BOND
1     1     2     ar
2     2     3     ar
3     2     4     1
4     4     16    ar
5     4     5     ar
6     5     10    ar
7     5     6     ar
8     6     7     ar
9     6     35    1
10    7     8     ar
11    7     36    1
12    8     9     ar
13    8     37    1
14    9     10    ar
15    9     38    1
16    10    11    ar
17    11    12    ar
18    12    13    1
19    12    16    ar
20    13    15    1
21    13    14    1
22    13    39    1
23    14    15    1
24    14    40    1
25    14    41    1
26    15    42    1
27    15    43    1
28    16    17    1
29    17    18    1
30    18    34    ar
31    18    19    ar
32    19    20    ar
33    19    44    1
34    20    21    ar
35    20    45    1
36    21    22    1
37    21    33    ar
38    22    27    ar
39    22    23    ar
40    23    24    ar
41    23    46    1
42    24    25    ar
43    24    47    1
44    25    26    ar
45    25    48    1
46    26    27    ar
47    26    49    1
48    27    28    1
49    28    32    1
50    28    29    2
51    29    30    1
52    30    31    1
53    31    32    2
54    33    34    ar
55    33    50    1
56    34    51    1
@<TRIPOS>SUBSTRUCTURE
1   ZINC000000833553 1     RESIDUE    1   A     ZIN   1
