@<TRIPOS>MOLECULE
ZINC000001541804
46    47    1     0     0
SMALL
USER_CHARGES
@<TRIPOS>ATOM
1      C1     -0.0173    1.4248    0.0099 C.3      1 ZINC000001541804    0.0300
2      O2      0.0021   -0.0041    0.0020 O.3      1 ZINC000001541804   -0.3200
3      C3     -1.2001   -0.6374    0.0101 C.ar     1 ZINC000001541804    0.1300
4      C4     -2.3772    0.1169    0.0196 C.ar     1 ZINC000001541804   -0.1900
5      C5     -3.5954   -0.4881    0.0278 C.ar     1 ZINC000001541804   -0.0600
6      C6     -3.6767   -1.8913    0.0262 C.ar     1 ZINC000001541804   -0.0800
7      C7     -4.9186   -2.5491    0.0340 C.ar     1 ZINC000001541804   -0.0800
8      C8     -4.9605   -3.9094    0.0319 C.ar     1 ZINC000001541804   -0.0900
9      C9     -6.2943   -4.6108    0.0397 C.3      1 ZINC000001541804   -0.0400
10     H10    -7.0941   -3.8703    0.0465 H        1 ZINC000001541804    0.1200
11     C11    -6.4015   -5.4887    1.2882 C.3      1 ZINC000001541804   -0.1400
12     C12    -6.4166   -5.4712   -1.1915 C.2      1 ZINC000001541804    0.4700
13     O13    -5.5134   -5.5108   -1.9930 O.2      1 ZINC000001541804   -0.4900
14     O14    -7.5290   -6.1936   -1.3976 O.3      1 ZINC000001541804   -0.3600
15     C15    -7.5776   -6.9993   -2.6046 C.3      1 ZINC000001541804    0.0700
16     C16    -8.9117   -7.7457   -2.6662 C.3      1 ZINC000001541804   -0.1200
17     C17    -8.9629   -8.5947   -3.9380 C.3      1 ZINC000001541804   -0.1100
18     C18   -10.2970   -9.3411   -3.9996 C.3      1 ZINC000001541804    0.0300
19     O19   -10.3448  -10.1340   -5.1875 O.3      1 ZINC000001541804   -0.2200
20     N20   -11.5452  -10.8692   -5.3413 N.pl3    1 ZINC000001541804    0.1200
21     O21   -12.4210  -10.7885   -4.4987 O.2      1 ZINC000001541804   -0.1300
22     O22   -11.7020  -11.5822   -6.3162 O.2      1 ZINC000001541804   -0.0700
23     C23    -3.7884   -4.6637    0.0221 C.ar     1 ZINC000001541804   -0.0700
24     C24    -2.5680   -4.0617    0.0144 C.ar     1 ZINC000001541804   -0.1100
25     C25    -2.4845   -2.6584    0.0162 C.ar     1 ZINC000001541804   -0.0100
26     C26    -1.2428   -2.0028    0.0032 C.ar     1 ZINC000001541804   -0.1600
27     H27     1.0053    1.8021    0.0021 H        1 ZINC000001541804    0.1000
28     H28    -0.5445    1.7859   -0.8732 H        1 ZINC000001541804    0.0600
29     H29    -0.5275    1.7763    0.9067 H        1 ZINC000001541804    0.0600
30     H30    -2.3184    1.1953    0.0208 H        1 ZINC000001541804    0.1300
31     H31    -4.4964    0.1072    0.0358 H        1 ZINC000001541804    0.1300
32     H32    -5.8352   -1.9779    0.0420 H        1 ZINC000001541804    0.1300
33     H33    -6.3130   -4.8664    2.1787 H        1 ZINC000001541804    0.0800
34     H34    -7.3662   -5.9961    1.2938 H        1 ZINC000001541804    0.0700
35     H35    -5.6016   -6.2292    1.2814 H        1 ZINC000001541804    0.0600
36     H36    -7.4823   -6.3528   -3.4770 H        1 ZINC000001541804    0.0700
37     H37    -6.7588   -7.7187   -2.5944 H        1 ZINC000001541804    0.0700
38     H38    -9.0070   -8.3921   -1.7938 H        1 ZINC000001541804    0.0800
39     H39    -9.7305   -7.0262   -2.6764 H        1 ZINC000001541804    0.0800
40     H40    -8.8676   -7.9482   -4.8104 H        1 ZINC000001541804    0.0900
41     H41    -8.1441   -9.3141   -3.9278 H        1 ZINC000001541804    0.0900
42     H42   -10.3923   -9.9875   -3.1272 H        1 ZINC000001541804    0.0900
43     H43   -11.1158   -8.6216   -4.0099 H        1 ZINC000001541804    0.0900
44     H44    -3.8498   -5.7419    0.0210 H        1 ZINC000001541804    0.1200
45     H45    -1.6682   -4.6590    0.0069 H        1 ZINC000001541804    0.1300
46     H46    -0.3268   -2.5747   -0.0086 H        1 ZINC000001541804    0.1400
@<TRIPOS>BOND
1     1     2     1
2     1     27    1
3     1     28    1
4     1     29    1
5     2     3     1
6     3     26    ar
7     3     4     ar
8     4     5     ar
9     4     30    1
10    5     6     ar
11    5     31    1
12    6     25    ar
13    6     7     ar
14    7     8     ar
15    7     32    1
16    8     9     1
17    8     23    ar
18    9     10    1
19    9     11    1
20    9     12    1
21    11    33    1
22    11    34    1
23    11    35    1
24    12    13    2
25    12    14    1
26    14    15    1
27    15    16    1
28    15    36    1
29    15    37    1
30    16    17    1
31    16    38    1
32    16    39    1
33    17    18    1
34    17    40    1
35    17    41    1
36    18    19    1
37    18    42    1
38    18    43    1
39    19    20    1
40    20    21    2
41    20    22    2
42    23    24    ar
43    23    44    1
44    24    25    ar
45    24    45    1
46    25    26    ar
47    26    46    1
@<TRIPOS>SUBSTRUCTURE
1   ZINC000001541804 1     RESIDUE    1   A     ZIN   1
