@<TRIPOS>MOLECULE
ZINC000038995988
52    56    1     0     0
SMALL
USER_CHARGES
@<TRIPOS>ATOM
1      O1      0.0021   -0.0041    0.0020 O.2      1 ZINC000038995988   -0.5800
2      C2     -0.0144    1.2118    0.0087 C.2      1 ZINC000038995988    0.7100
3      N3      1.1435    1.9015    0.0014 N.am     1 ZINC000038995988   -0.6500
4      C4      2.3701    1.2154   -0.0140 C.2      1 ZINC000038995988    0.0700
5      C5      2.5327   -0.1298   -0.0287 C.2      1 ZINC000038995988    0.0500
6      N6      3.8671   -0.3882   -0.0405 N.pl3    1 ZINC000038995988   -0.4400
7      N7      4.5484    0.8354   -0.0329 N.2      1 ZINC000038995988   -0.2600
8      C8      3.6549    1.8053   -0.0231 C.2      1 ZINC000038995988    0.0900
9      C9      3.9456    3.2539   -0.0128 C.2      1 ZINC000038995988    0.4100
10     N10     3.0424    4.2042    0.0021 N.2      1 ZINC000038995988   -0.4800
11     C11     3.6542    5.4140    0.0081 C.ar     1 ZINC000038995988    0.0900
12     C12     3.1802    6.7294    0.0225 C.ar     1 ZINC000038995988   -0.0500
13     C13     4.0723    7.7774    0.0246 C.ar     1 ZINC000038995988   -0.1100
14     C14     5.4391    7.5394    0.0120 C.ar     1 ZINC000038995988   -0.1500
15     C15     6.4007    8.6998    0.0145 C.3      1 ZINC000038995988    0.0500
16     N16     6.7238    9.0650    1.4002 N.4      1 ZINC000038995988   -0.3800
17     H17     5.8710    9.2481    1.9075 H        1 ZINC000038995988    0.4200
18     C18     7.5656   10.2693    1.4060 C.3      1 ZINC000038995988   -0.0400
19     C19     7.9006   10.6479    2.8508 C.3      1 ZINC000038995988    0.0400
20     O20     8.5549    9.5466    3.4872 O.3      1 ZINC000038995988   -0.3600
21     C21     7.7834    8.3422    3.4858 C.3      1 ZINC000038995988    0.0400
22     C22     7.4479    7.9592    2.0422 C.3      1 ZINC000038995988   -0.0500
23     C23     5.9241    6.2483   -0.0023 C.ar     1 ZINC000038995988   -0.0700
24     C24     5.0406    5.1787   -0.0042 C.ar     1 ZINC000038995988    0.0500
25     N25     5.1985    3.8057   -0.0113 N.pl3    1 ZINC000038995988   -0.5800
26     N26    -1.1906    1.8697    0.0179 N.am     1 ZINC000038995988   -0.7100
27     C27    -2.4493    1.1201    0.0198 C.3      1 ZINC000038995988    0.0900
28     C28    -3.5545    1.5975    0.9639 C.3      1 ZINC000038995988   -0.1900
29     C29    -3.6883    1.8184   -0.5441 C.3      1 ZINC000038995988   -0.1900
30     H30     1.1303    2.8714    0.0067 H        1 ZINC000038995988    0.4200
31     H31     1.7424   -0.8660   -0.0301 H        1 ZINC000038995988    0.2200
32     H32     4.2764   -1.2675   -0.0519 H        1 ZINC000038995988    0.4600
33     H33     2.1176    6.9224    0.0316 H        1 ZINC000038995988    0.1500
34     H34     3.7055    8.7931    0.0358 H        1 ZINC000038995988    0.1400
35     H35     7.3138    8.4161   -0.5088 H        1 ZINC000038995988    0.1400
36     H36     5.9433    9.5517   -0.4885 H        1 ZINC000038995988    0.1400
37     H37     8.4873   10.0713    0.8589 H        1 ZINC000038995988    0.1400
38     H38     7.0291   11.0902    0.9301 H        1 ZINC000038995988    0.1400
39     H39     8.5603   11.5156    2.8561 H        1 ZINC000038995988    0.1400
40     H40     6.9819   10.8849    3.3874 H        1 ZINC000038995988    0.0800
41     H41     8.3582    7.5412    3.9506 H        1 ZINC000038995988    0.1400
42     H42     6.8607    8.5003    4.0441 H        1 ZINC000038995988    0.0800
43     H43     6.8243    7.0653    2.0387 H        1 ZINC000038995988    0.1400
44     H44     8.3696    7.7621    1.4947 H        1 ZINC000038995988    0.1400
45     H45     6.9893    6.0703   -0.0117 H        1 ZINC000038995988    0.1300
46     H46     6.0400    3.3231   -0.0164 H        1 ZINC000038995988    0.4400
47     H47    -1.2038    2.8396    0.0232 H        1 ZINC000038995988    0.4000
48     H48    -2.3574    0.0467   -0.1460 H        1 ZINC000038995988    0.1400
49     H49    -4.1899    0.8382    1.4197 H        1 ZINC000038995988    0.1100
50     H50    -3.3451    2.4694    1.5836 H        1 ZINC000038995988    0.1000
51     H51    -3.5670    2.8356   -0.9165 H        1 ZINC000038995988    0.1000
52     H52    -4.4118    1.2044   -1.0805 H        1 ZINC000038995988    0.1100
@<TRIPOS>BOND
1     1     2     2
2     2     3     am
3     2     26    am
4     3     4     1
5     3     30    1
6     4     8     1
7     4     5     2
8     5     6     1
9     5     31    1
10    6     7     1
11    6     32    1
12    7     8     2
13    8     9     1
14    9     25    1
15    9     10    2
16    10    11    1
17    11    24    ar
18    11    12    ar
19    12    13    ar
20    12    33    1
21    13    14    ar
22    13    34    1
23    14    15    1
24    14    23    ar
25    15    16    1
26    15    35    1
27    15    36    1
28    16    17    1
29    16    22    1
30    16    18    1
31    18    19    1
32    18    37    1
33    18    38    1
34    19    20    1
35    19    39    1
36    19    40    1
37    20    21    1
38    21    22    1
39    21    41    1
40    21    42    1
41    22    43    1
42    22    44    1
43    23    24    ar
44    23    45    1
45    24    25    1
46    25    46    1
47    26    27    1
48    26    47    1
49    27    29    1
50    27    28    1
51    27    48    1
52    28    29    1
53    28    49    1
54    28    50    1
55    29    51    1
56    29    52    1
@<TRIPOS>SUBSTRUCTURE
1   ZINC000038995988 1     RESIDUE    1   A     ZIN   1
