@<TRIPOS>MOLECULE
ZINC000116109867
54    57    1     0     0
SMALL
USER_CHARGES
@<TRIPOS>ATOM
1      C1      0.2983    1.2734   -0.1327 C.3      1 ZINC000116109867   -0.1800
2      C2      0.0655   -0.2338   -0.0099 C.3      1 ZINC000116109867    0.0700
3      C3      0.7012   -0.7442    1.2849 C.3      1 ZINC000116109867   -0.1500
4      O4     -1.3386   -0.4987    0.0122 O.3      1 ZINC000116109867   -0.3000
5      C5     -1.9636   -0.6063   -1.1863 C.ar     1 ZINC000116109867    0.2100
6      C6     -1.2664   -0.3482   -2.3583 C.ar     1 ZINC000116109867   -0.2200
7      C7     -1.8963   -0.4565   -3.5788 C.ar     1 ZINC000116109867    0.0100
8      C8     -3.2429   -0.8274   -3.6460 C.ar     1 ZINC000116109867   -0.0700
9      C9     -3.9128   -0.9423   -4.9575 C.2      1 ZINC000116109867    0.2400
10     N10    -3.3666   -0.7315   -6.1410 N.2      1 ZINC000116109867   -0.4700
11     C11    -4.3505   -0.9544   -7.0371 C.2      1 ZINC000116109867    0.2200
12     C12    -4.2361   -0.8466   -8.5132 C.ar     1 ZINC000116109867   -0.0200
13     C13    -3.0220   -0.4903   -9.0933 C.ar     1 ZINC000116109867   -0.0700
14     C14    -2.9206   -0.3913  -10.4664 C.ar     1 ZINC000116109867   -0.1200
15     C15    -4.0216   -0.6448  -11.2619 C.ar     1 ZINC000116109867   -0.0900
16     C16    -5.2341   -0.9997  -10.6916 C.ar     1 ZINC000116109867   -0.1400
17     C17    -5.3442   -1.1081   -9.3203 C.ar     1 ZINC000116109867   -0.0500
18     C18    -6.7567   -1.5051   -8.9486 C.3      1 ZINC000116109867   -0.0900
19     C19    -7.3786   -2.0508  -10.2517 C.3      1 ZINC000116109867   -0.1100
20     C20    -6.5642   -1.3218  -11.3390 C.3      1 ZINC000116109867    0.1300
21     H21    -7.0672   -0.4011  -11.6347 H        1 ZINC000116109867    0.0900
22     N22    -6.3742   -2.1949  -12.5050 N.3      1 ZINC000116109867   -0.6700
23     C23    -6.1566   -1.4051  -13.7243 C.3      1 ZINC000116109867    0.0500
24     C24    -5.9633   -2.3471  -14.9144 C.3      1 ZINC000116109867    0.0800
25     O25    -7.1705   -3.0756  -15.1463 O.3      1 ZINC000116109867   -0.5600
26     N26    -5.4240   -1.2829   -6.3651 N.2      1 ZINC000116109867   -0.3700
27     O27    -5.1918   -1.2866   -5.1749 O.3      1 ZINC000116109867    0.0900
28     C28    -3.9526   -1.0889   -2.4761 C.ar     1 ZINC000116109867    0.0100
29     C29    -3.3142   -0.9845   -1.2421 C.ar     1 ZINC000116109867   -0.0600
30     C30    -4.0361   -1.2516   -0.0346 C.1      1 ZINC000116109867    0.2600
31     N31    -4.6088   -1.4634    0.9234 N.1      1 ZINC000116109867   -0.4000
32     H32     1.3693    1.4754   -0.1496 H        1 ZINC000116109867    0.0800
33     H33    -0.1545    1.6370   -1.0551 H        1 ZINC000116109867    0.0700
34     H34    -0.1539    1.7815    0.7189 H        1 ZINC000116109867    0.0700
35     H35     0.5178   -0.7419   -0.8616 H        1 ZINC000116109867    0.0800
36     H36     0.2489   -0.2361    2.1365 H        1 ZINC000116109867    0.0700
37     H37     0.5353   -1.8179    1.3724 H        1 ZINC000116109867    0.0700
38     H38     1.7722   -0.5422    1.2680 H        1 ZINC000116109867    0.0800
39     H39    -0.2262   -0.0610   -2.3134 H        1 ZINC000116109867    0.1500
40     H40    -1.3481   -0.2539   -4.4870 H        1 ZINC000116109867    0.1500
41     H41    -2.1620   -0.2916   -8.4709 H        1 ZINC000116109867    0.1400
42     H42    -1.9799   -0.1151  -10.9194 H        1 ZINC000116109867    0.1300
43     H43    -3.9369   -0.5655  -12.3356 H        1 ZINC000116109867    0.1200
44     H44    -6.7426   -2.2803   -8.1826 H        1 ZINC000116109867    0.0900
45     H45    -7.3141   -0.6363   -8.5985 H        1 ZINC000116109867    0.0900
46     H46    -7.2387   -3.1293  -10.3258 H        1 ZINC000116109867    0.0800
47     H47    -8.4352   -1.7907  -10.3155 H        1 ZINC000116109867    0.0800
48     H48    -5.6147   -2.8415  -12.3526 H        1 ZINC000116109867    0.3400
49     H49    -7.0219   -0.7668  -13.9030 H        1 ZINC000116109867    0.0800
50     H50    -5.2676   -0.7863  -13.6025 H        1 ZINC000116109867    0.0500
51     H51    -5.7140   -1.7651  -15.8016 H        1 ZINC000116109867    0.0500
52     H52    -5.1539   -3.0444  -14.6980 H        1 ZINC000116109867    0.0400
53     H53    -7.1205   -3.6938  -15.8882 H        1 ZINC000116109867    0.3800
54     H54    -4.9927   -1.3754   -2.5257 H        1 ZINC000116109867    0.1500
@<TRIPOS>BOND
1     1     2     1
2     1     32    1
3     1     33    1
4     1     34    1
5     2     3     1
6     2     4     1
7     2     35    1
8     3     36    1
9     3     37    1
10    3     38    1
11    4     5     1
12    5     29    ar
13    5     6     ar
14    6     7     ar
15    6     39    1
16    7     8     ar
17    7     40    1
18    8     9     1
19    8     28    ar
20    9     27    1
21    9     10    2
22    10    11    1
23    11    12    1
24    11    26    2
25    12    17    ar
26    12    13    ar
27    13    14    ar
28    13    41    1
29    14    15    ar
30    14    42    1
31    15    16    ar
32    15    43    1
33    16    20    1
34    16    17    ar
35    17    18    1
36    18    19    1
37    18    44    1
38    18    45    1
39    19    20    1
40    19    46    1
41    19    47    1
42    20    21    1
43    20    22    1
44    22    23    1
45    22    48    1
46    23    24    1
47    23    49    1
48    23    50    1
49    24    25    1
50    24    51    1
51    24    52    1
52    25    53    1
53    26    27    1
54    28    29    ar
55    28    54    1
56    29    30    1
57    30    31    3
@<TRIPOS>SUBSTRUCTURE
1   ZINC000116109867 1     RESIDUE    1   A     ZIN   1
