@<TRIPOS>MOLECULE
ZINC000003966300
50    52    1     0     0
SMALL
USER_CHARGES
@<TRIPOS>ATOM
1      C1      0.2205    1.1393    1.7035 C.3      1 ZINC000003966300   -0.1500
2      C2      0.1474   -0.2387    1.0429 C.3      1 ZINC000003966300   -0.1400
3      C3     -1.2643   -0.8067    1.2028 C.3      1 ZINC000003966300    0.1300
4      N4     -1.3344   -2.1262    0.5703 N.am     1 ZINC000003966300   -0.7400
5      C5     -2.4891   -2.8210    0.5869 C.2      1 ZINC000003966300    0.7100
6      O6     -3.4727   -2.3527    1.1270 O.2      1 ZINC000003966300   -0.5700
7      N7     -2.5536   -4.0350    0.0050 N.am     1 ZINC000003966300   -0.6800
8      C8     -3.7256   -4.7977    0.1028 C.ar     1 ZINC000003966300    0.1900
9      C9     -4.9636   -4.1706    0.1095 C.ar     1 ZINC000003966300   -0.1000
10     C10    -6.1182   -4.9226    0.2054 C.ar     1 ZINC000003966300   -0.0800
11     C11    -6.0412   -6.3046    0.2954 C.ar     1 ZINC000003966300    0.0800
12     O12    -7.1784   -7.0438    0.3898 O.3      1 ZINC000003966300   -0.2300
13     C13    -7.9222   -7.2105   -0.7281 C.ar     1 ZINC000003966300    0.4000
14     C14    -9.0604   -8.0469   -0.7233 C.ar     1 ZINC000003966300   -0.1500
15     C15    -9.4709   -8.7364    0.4255 C.ar     1 ZINC000003966300   -0.1400
16     C16   -10.5799   -9.5315    0.3731 C.ar     1 ZINC000003966300    0.1100
17     O17   -10.9799  -10.2015    1.4867 O.3      1 ZINC000003966300   -0.3000
18     C18   -10.1943  -10.0251    2.6672 C.3      1 ZINC000003966300    0.0200
19     C19   -11.3112   -9.6645   -0.8161 C.ar     1 ZINC000003966300    0.1700
20     O20   -12.4112  -10.4612   -0.8410 O.3      1 ZINC000003966300   -0.3000
21     C21   -13.1150  -10.5570   -2.0809 C.3      1 ZINC000003966300    0.0200
22     C22   -10.9321   -9.0027   -1.9504 C.ar     1 ZINC000003966300   -0.1900
23     C23    -9.7984   -8.1806   -1.9263 C.ar     1 ZINC000003966300    0.2000
24     N24    -9.3862   -7.5102   -3.0125 N.ar     1 ZINC000003966300   -0.5200
25     C25    -8.3201   -6.7476   -2.9573 C.ar     1 ZINC000003966300    0.3400
26     N26    -7.6052   -6.5892   -1.8546 N.ar     1 ZINC000003966300   -0.5700
27     C27    -4.8041   -6.9332    0.2888 C.ar     1 ZINC000003966300   -0.0800
28     C28    -3.6486   -6.1828    0.1872 C.ar     1 ZINC000003966300   -0.0600
29     Cl29   -2.1007   -6.9687    0.1783 Cl       1 ZINC000003966300   -0.0500
30     H30     1.2262    1.5440    1.5895 H        1 ZINC000003966300    0.0600
31     H31    -0.4964    1.8087    1.2281 H        1 ZINC000003966300    0.0600
32     H32    -0.0160    1.0472    2.7635 H        1 ZINC000003966300    0.0600
33     H33     0.3839   -0.1465   -0.0172 H        1 ZINC000003966300    0.0700
34     H34     0.8643   -0.9081    1.5183 H        1 ZINC000003966300    0.0700
35     H35    -1.5009   -0.8989    2.2628 H        1 ZINC000003966300    0.0700
36     H36    -1.9813   -0.1373    0.7274 H        1 ZINC000003966300    0.0700
37     H37    -0.5497   -2.4998    0.1395 H        1 ZINC000003966300    0.4000
38     H38    -1.7890   -4.3808   -0.4815 H        1 ZINC000003966300    0.4100
39     H39    -5.0242   -3.0945    0.0402 H        1 ZINC000003966300    0.1600
40     H40    -7.0815   -4.4342    0.2107 H        1 ZINC000003966300    0.1400
41     H41    -8.9139   -8.6400    1.3458 H        1 ZINC000003966300    0.1500
42     H42   -10.6217  -10.6132    3.4794 H        1 ZINC000003966300    0.1100
43     H43    -9.1734  -10.3563    2.4771 H        1 ZINC000003966300    0.0600
44     H44   -10.1885   -8.9713    2.9457 H        1 ZINC000003966300    0.0600
45     H45   -13.9700  -11.2227   -1.9630 H        1 ZINC000003966300    0.1100
46     H46   -13.4630   -9.5678   -2.3785 H        1 ZINC000003966300    0.0600
47     H47   -12.4488  -10.9534   -2.8472 H        1 ZINC000003966300    0.0600
48     H48   -11.5032   -9.1135   -2.8603 H        1 ZINC000003966300    0.1600
49     H49    -8.0153   -6.2215   -3.8499 H        1 ZINC000003966300    0.2000
50     H50    -4.7447   -8.0092    0.3593 H        1 ZINC000003966300    0.1500
@<TRIPOS>BOND
1     1     2     1
2     1     30    1
3     1     31    1
4     1     32    1
5     2     3     1
6     2     33    1
7     2     34    1
8     3     4     1
9     3     35    1
10    3     36    1
11    4     5     am
12    4     37    1
13    5     6     2
14    5     7     am
15    7     8     1
16    7     38    1
17    8     28    ar
18    8     9     ar
19    9     10    ar
20    9     39    1
21    10    11    ar
22    10    40    1
23    11    12    1
24    11    27    ar
25    12    13    1
26    13    26    ar
27    13    14    ar
28    14    23    ar
29    14    15    ar
30    15    16    ar
31    15    41    1
32    16    17    1
33    16    19    ar
34    17    18    1
35    18    42    1
36    18    43    1
37    18    44    1
38    19    20    1
39    19    22    ar
40    20    21    1
41    21    45    1
42    21    46    1
43    21    47    1
44    22    23    ar
45    22    48    1
46    23    24    ar
47    24    25    ar
48    25    26    ar
49    25    49    1
50    27    28    ar
51    27    50    1
52    28    29    1
@<TRIPOS>SUBSTRUCTURE
1   ZINC000003966300 1     RESIDUE    1   A     ZIN   1
