@<TRIPOS>MOLECULE
ZINC000001536279
  59   60    0    0    0
SMALL
USER_CHARGES
NO_NAME
@<TRIPOS>ATOM
    1 C1       -0.0187     1.5258     0.0104 C.3    1 <0>      -0.1500
    2 C2        0.0021    -0.0041     0.0020 C.3    1 <0>      -0.0200
    3 C3        0.7421    -0.5109     1.2415 C.3    1 <0>      -0.1400
    4 C4       -1.4333    -0.5336     0.0129 C.3    1 <0>      -0.1400
    5 C5        0.7074    -0.4901    -1.2379 C.ar   1 <0>      -0.0900
    6 C6        1.2168     0.4191    -2.1447 C.ar   1 <0>      -0.1100
    7 C7        1.8645    -0.0262    -3.2822 C.ar   1 <0>      -0.0800
    8 C8        2.4195     0.9679    -4.2696 C.3    1 <0>      -0.0800
    9 C9        3.8620     1.3107    -3.8919 C.3    1 <0>      -0.1100
   10 C10       4.4256     2.3199    -4.8943 C.3    1 <0>       0.0600
   11 O11       5.7728     2.6401    -4.5416 O.3    1 <0>      -0.3800
   12 C12       6.3957     3.5802    -5.4192 C.3    1 <0>       0.1100
   13 C13       7.8052     3.8431    -4.9553 C.ar   1 <0>      -0.1500
   14 C14       8.0683     4.8603    -4.0509 C.ar   1 <0>      -0.0500
   15 C15       9.3804     5.0655    -3.6518 C.ar   1 <0>      -0.1800
   16 C16      10.3749     4.2550    -4.1650 C.ar   1 <0>       0.1000
   17 N17      10.0877     3.2964    -5.0240 N.ar   1 <0>      -0.4900
   18 C18       8.8513     3.0692    -5.4217 C.ar   1 <0>       0.1200
   19 C19       2.0041    -1.3819    -3.5152 C.ar   1 <0>      -0.1100
   20 C20       1.4966    -2.2951    -2.6114 C.ar   1 <0>      -0.0900
   21 C21       1.6492    -3.7726    -2.8660 C.3    1 <0>      -0.0200
   22 C22       2.3973    -3.9886    -4.1829 C.3    1 <0>      -0.1500
   23 C23       2.4391    -4.4086    -1.7204 C.3    1 <0>      -0.1400
   24 C24       0.2659    -4.4206    -2.9530 C.3    1 <0>      -0.1400
   25 C25       0.8509    -1.8508    -1.4667 C.ar   1 <0>       0.1100
   26 O26       0.3508    -2.7472    -0.5760 O.3    1 <0>      -0.4900
   27 H27       1.0039     1.9031     0.0027 H      1 <0>       0.0600
   28 H28      -0.5459     1.8868    -0.8726 H      1 <0>       0.0600
   29 H29      -0.5289     1.8773     0.9072 H      1 <0>       0.0600
   30 H30       0.2319    -0.1594     2.1383 H      1 <0>       0.0600
   31 H31       0.7568    -1.6008     1.2356 H      1 <0>       0.0600
   32 H32       1.7647    -0.1336     1.2338 H      1 <0>       0.0500
   33 H33      -1.9605    -0.1726    -0.8702 H      1 <0>       0.0500
   34 H34      -1.4185    -1.6235     0.0069 H      1 <0>       0.0700
   35 H35      -1.9435    -0.1821     0.9097 H      1 <0>       0.0500
   36 H36       1.1086     1.4786    -1.9652 H      1 <0>       0.1300
   37 H37       2.3988     0.5363    -5.2703 H      1 <0>       0.0700
   38 H38       1.8142     1.8741    -4.2521 H      1 <0>       0.0700
   39 H39       3.8828     1.7423    -2.8912 H      1 <0>       0.0700
   40 H40       4.4674     0.4044    -3.9094 H      1 <0>       0.0700
   41 H41       4.4048     1.8883    -5.8950 H      1 <0>       0.0500
   42 H42       3.8202     3.2262    -4.8768 H      1 <0>       0.0500
   43 H43       6.4157     3.1748    -6.4308 H      1 <0>       0.0600
   44 H44       5.8312     4.5127    -5.4126 H      1 <0>       0.0600
   45 H45       7.2704     5.4785    -3.6667 H      1 <0>       0.1400
   46 H46       9.6219     5.8491    -2.9489 H      1 <0>       0.1400
   47 H47      11.3993     4.4086    -3.8594 H      1 <0>       0.1600
   48 H48       8.6547     2.2749    -6.1266 H      1 <0>       0.1600
   49 H49       2.5101    -1.7272    -4.4046 H      1 <0>       0.1300
   50 H50       3.3828    -3.5270    -4.1209 H      1 <0>       0.0600
   51 H51       2.5077    -5.0573    -4.3670 H      1 <0>       0.0600
   52 H52       1.8346    -3.5356    -4.9991 H      1 <0>       0.0600
   53 H53       1.9061    -4.2546    -0.7821 H      1 <0>       0.0600
   54 H54       2.5495    -5.4772    -1.9045 H      1 <0>       0.0600
   55 H55       3.4246    -3.9469    -1.6583 H      1 <0>       0.0500
   56 H56      -0.2969    -3.9675    -3.7691 H      1 <0>       0.0500
   57 H57       0.3763    -5.4893    -3.1371 H      1 <0>       0.0500
   58 H58      -0.2671    -4.2667    -2.0147 H      1 <0>       0.0700
   59 H59       0.9757    -3.0053     0.1153 H      1 <0>       0.3800
@<TRIPOS>BOND
   1    1    2 1
   2    1   27 1
   3    1   28 1
   4    1   29 1
   5    2    3 1
   6    2    4 1
   7    2    5 1
   8    3   30 1
   9    3   31 1
  10    3   32 1
  11    4   33 1
  12    4   34 1
  13    4   35 1
  14    5   25 ar
  15    5    6 ar
  16    6    7 ar
  17    6   36 1
  18    7    8 1
  19    7   19 ar
  20    8    9 1
  21    8   37 1
  22    8   38 1
  23    9   10 1
  24    9   39 1
  25    9   40 1
  26   10   11 1
  27   10   41 1
  28   10   42 1
  29   11   12 1
  30   12   13 1
  31   12   43 1
  32   12   44 1
  33   13   18 ar
  34   13   14 ar
  35   14   15 ar
  36   14   45 1
  37   15   16 ar
  38   15   46 1
  39   16   17 ar
  40   16   47 1
  41   17   18 ar
  42   18   48 1
  43   19   20 ar
  44   19   49 1
  45   20   21 1
  46   20   25 ar
  47   21   22 1
  48   21   23 1
  49   21   24 1
  50   22   50 1
  51   22   51 1
  52   22   52 1
  53   23   53 1
  54   23   54 1
  55   23   55 1
  56   24   56 1
  57   24   57 1
  58   24   58 1
  59   25   26 1
  60   26   59 1
