@<TRIPOS>MOLECULE
ZINC000003776894
64    65    1     0     0
SMALL
USER_CHARGES
@<TRIPOS>ATOM
1      N1      0.3941    1.0214   -0.9310 N.pl3    1 ZINC000003776894   -0.7600
2      C2      0.3456   -0.3041   -0.8148 C.cat    1 ZINC000003776894    0.6100
3      N3      1.4724   -1.0134   -0.8074 N.pl3    1 ZINC000003776894   -0.7600
4      H4      1.4371   -1.9790   -0.7227 H        1 ZINC000003776894    0.4500
5      H5      2.3286   -0.5645   -0.8867 H        1 ZINC000003776894    0.4300
6      C6     -0.9605   -0.9889   -0.6937 C.ar     1 ZINC000003776894   -0.1800
7      C7     -2.0404   -0.3374   -0.0972 C.ar     1 ZINC000003776894   -0.0600
8      C8     -3.2558   -0.9811    0.0122 C.ar     1 ZINC000003776894   -0.1100
9      C9     -3.4049   -2.2700   -0.4681 C.ar     1 ZINC000003776894    0.0000
10     C10    -4.7353   -2.9672   -0.3453 C.3      1 ZINC000003776894   -0.1000
11     C11    -5.5789   -2.6788   -1.5887 C.3      1 ZINC000003776894   -0.1100
12     C12    -6.9296   -3.3867   -1.4641 C.3      1 ZINC000003776894   -0.1000
13     C13    -7.7732   -3.0983   -2.7075 C.3      1 ZINC000003776894   -0.1400
14     C14    -9.1036   -3.7955   -2.5847 C.2      1 ZINC000003776894    0.5200
15     O15    -9.3524   -4.4579   -1.5997 O.2      1 ZINC000003776894   -0.5600
16     N16   -10.0168   -3.6830   -3.5695 N.am     1 ZINC000003776894   -0.6800
17     C17   -11.2658   -4.4455   -3.5008 C.3      1 ZINC000003776894    0.1600
18     H18   -11.6188   -4.4725   -2.4699 H        1 ZINC000003776894    0.1100
19     C19   -12.3211   -3.7763   -4.3837 C.3      1 ZINC000003776894   -0.1900
20     C20   -12.6642   -2.4223   -3.8179 C.2      1 ZINC000003776894    0.5000
21     O21   -12.1929   -2.0707   -2.7499 O.co2    1 ZINC000003776894   -0.6900
22     O22   -13.4132   -1.6786   -4.4282 O.co2    1 ZINC000003776894   -0.7000
23     C23   -11.0234   -5.8515   -3.9858 C.2      1 ZINC000003776894    0.5100
24     O24    -9.9162   -6.1840   -4.3527 O.2      1 ZINC000003776894   -0.5600
25     N25   -12.0369   -6.7396   -4.0118 N.am     1 ZINC000003776894   -0.6900
26     C26   -11.8012   -8.1065   -4.4833 C.3      1 ZINC000003776894    0.0900
27     H27   -10.8015   -8.4253   -4.1881 H        1 ZINC000003776894    0.0800
28     C28   -12.8391   -9.0453   -3.8651 C.3      1 ZINC000003776894   -0.0800
29     C29   -12.6419   -9.0990   -2.3720 C.ar     1 ZINC000003776894   -0.0600
30     C30   -11.7934  -10.0406   -1.8204 C.ar     1 ZINC000003776894   -0.1200
31     C31   -11.6124  -10.0898   -0.4508 C.ar     1 ZINC000003776894   -0.1200
32     C32   -12.2796   -9.1972    0.3670 C.ar     1 ZINC000003776894   -0.1400
33     C33   -13.1274   -8.2550   -0.1847 C.ar     1 ZINC000003776894   -0.1200
34     C34   -13.3050   -8.2030   -1.5546 C.ar     1 ZINC000003776894   -0.1100
35     C35   -11.9184   -8.1471   -5.9852 C.2      1 ZINC000003776894    0.4900
36     O36   -12.1751   -7.1286   -6.6043 O.co2    1 ZINC000003776894   -0.6800
37     O37   -11.7566   -9.1983   -6.5811 O.co2    1 ZINC000003776894   -0.7100
38     C38    -2.3381   -2.9213   -1.0611 C.ar     1 ZINC000003776894   -0.1200
39     C39    -1.1188   -2.2866   -1.1808 C.ar     1 ZINC000003776894   -0.0600
40     H40     1.2503    1.4703   -1.0103 H        1 ZINC000003776894    0.4300
41     H41    -0.4269    1.5378   -0.9403 H        1 ZINC000003776894    0.4500
42     H42    -1.9251    0.6686    0.2784 H        1 ZINC000003776894    0.1400
43     H43    -4.0925   -0.4780    0.4740 H        1 ZINC000003776894    0.1500
44     H44    -4.5755   -4.0417   -0.2559 H        1 ZINC000003776894    0.0900
45     H45    -5.2563   -2.6025    0.5399 H        1 ZINC000003776894    0.0900
46     H46    -5.7387   -1.6043   -1.6782 H        1 ZINC000003776894    0.0700
47     H47    -5.0579   -3.0436   -2.4739 H        1 ZINC000003776894    0.0700
48     H48    -6.7698   -4.4612   -1.3746 H        1 ZINC000003776894    0.0700
49     H49    -7.4506   -3.0219   -0.5789 H        1 ZINC000003776894    0.0700
50     H50    -7.9330   -2.0238   -2.7969 H        1 ZINC000003776894    0.0900
51     H51    -7.2522   -3.4630   -3.5927 H        1 ZINC000003776894    0.0900
52     H52    -9.8470   -3.0972   -4.3237 H        1 ZINC000003776894    0.4000
53     H53   -11.9284   -3.6591   -5.3938 H        1 ZINC000003776894    0.0700
54     H54   -13.2173   -4.3960   -4.4120 H        1 ZINC000003776894    0.0800
55     H55   -12.9224   -6.4737   -3.7184 H        1 ZINC000003776894    0.3900
56     H56   -13.8405   -8.6759   -4.0862 H        1 ZINC000003776894    0.0700
57     H57   -12.7200  -10.0447   -4.2835 H        1 ZINC000003776894    0.0900
58     H58   -11.2721  -10.7380   -2.4594 H        1 ZINC000003776894    0.1200
59     H59   -10.9500  -10.8259   -0.0198 H        1 ZINC000003776894    0.1100
60     H60   -12.1387   -9.2361    1.4371 H        1 ZINC000003776894    0.1100
61     H61   -13.6489   -7.5578    0.4543 H        1 ZINC000003776894    0.1200
62     H62   -13.9674   -7.4668   -1.9856 H        1 ZINC000003776894    0.1200
63     H63    -2.4609   -3.9273   -1.4344 H        1 ZINC000003776894    0.1500
64     H64    -0.2868   -2.7960   -1.6442 H        1 ZINC000003776894    0.1400
@<TRIPOS>BOND
1     1     2     ar
2     1     40    1
3     1     41    1
4     2     3     ar
5     2     6     1
6     3     4     1
7     3     5     1
8     6     39    ar
9     6     7     ar
10    7     8     ar
11    7     42    1
12    8     9     ar
13    8     43    1
14    9     10    1
15    9     38    ar
16    10    11    1
17    10    44    1
18    10    45    1
19    11    12    1
20    11    46    1
21    11    47    1
22    12    13    1
23    12    48    1
24    12    49    1
25    13    14    1
26    13    50    1
27    13    51    1
28    14    15    2
29    14    16    am
30    16    17    1
31    16    52    1
32    17    18    1
33    17    19    1
34    17    23    1
35    19    20    1
36    19    53    1
37    19    54    1
38    20    21    ar
39    20    22    ar
40    23    24    2
41    23    25    am
42    25    26    1
43    25    55    1
44    26    27    1
45    26    28    1
46    26    35    1
47    28    29    1
48    28    56    1
49    28    57    1
50    29    34    ar
51    29    30    ar
52    30    31    ar
53    30    58    1
54    31    32    ar
55    31    59    1
56    32    33    ar
57    32    60    1
58    33    34    ar
59    33    61    1
60    34    62    1
61    35    36    ar
62    35    37    ar
63    38    39    ar
64    38    63    1
65    39    64    1
@<TRIPOS>SUBSTRUCTURE
1   ZINC000003776894 1     RESIDUE    1   A     ZIN   1
