@<TRIPOS>MOLECULE
ZINC000021288966
49    52    1     0     0
SMALL
USER_CHARGES
@<TRIPOS>ATOM
1      C1      0.0933    1.4254    0.8903 C.3      1 ZINC000021288966   -0.0500
2      N2      0.1003   -0.0388    0.7714 N.4      1 ZINC000021288966   -0.3800
3      H3     -0.8123   -0.3987    1.0074 H        1 ZINC000021288966    0.4300
4      C4      0.4309   -0.4146   -0.6084 C.3      1 ZINC000021288966    0.0000
5      C5      0.3602   -1.9358   -0.7577 C.3      1 ZINC000021288966   -0.1600
6      C6      1.3605   -2.5846    0.2034 C.3      1 ZINC000021288966   -0.0100
7      H7      2.3727   -2.2826   -0.0654 H        1 ZINC000021288966    0.0900
8      C8      1.2424   -4.0845    0.1168 C.2      1 ZINC000021288966   -0.2400
9      C9      2.3706   -4.8573   -0.0741 C.2      1 ZINC000021288966    0.2100
10     O10     3.5860   -4.2806   -0.1842 O.3      1 ZINC000021288966   -0.1900
11     C11     4.6939   -5.0163   -0.3697 C.2      1 ZINC000021288966    0.2600
12     C12     5.9988   -4.3387   -0.4835 C.ar     1 ZINC000021288966   -0.0900
13     C13     6.7984   -4.5396   -1.6117 C.ar     1 ZINC000021288966   -0.0600
14     C14     8.0172   -3.9023   -1.7115 C.ar     1 ZINC000021288966   -0.1100
15     C15     8.4502   -3.0653   -0.6978 C.ar     1 ZINC000021288966   -0.0700
16     C16     7.6651   -2.8606    0.4227 C.ar     1 ZINC000021288966   -0.1100
17     C17     6.4398   -3.4869    0.5347 C.ar     1 ZINC000021288966    0.0000
18     Cl18    5.4554   -3.2288    1.9411 Cl       1 ZINC000021288966   -0.0500
19     C19     4.6385   -6.3908   -0.4557 C.2      1 ZINC000021288966   -0.3100
20     C20     3.4074   -7.0442   -0.3488 C.2      1 ZINC000021288966    0.3300
21     O21     3.3291   -8.3905   -0.4300 O.3      1 ZINC000021288966   -0.4000
22     C22     2.2472   -6.2627   -0.1537 C.2      1 ZINC000021288966   -0.2400
23     C23     0.9788   -6.8686   -0.0380 C.2      1 ZINC000021288966    0.2500
24     O24     0.8601   -8.2181   -0.1139 O.3      1 ZINC000021288966   -0.4600
25     C25    -0.1290   -6.0938    0.1511 C.2      1 ZINC000021288966   -0.3300
26     C26    -0.0101   -4.6970    0.2355 C.2      1 ZINC000021288966    0.3800
27     O27    -1.0990   -3.9490    0.4209 O.2      1 ZINC000021288966   -0.5500
28     C28     1.0517   -2.1266    1.6317 C.3      1 ZINC000021288966    0.0900
29     H29     1.7936   -2.5400    2.3150 H        1 ZINC000021288966    0.0900
30     O30    -0.2496   -2.5817    2.0080 O.3      1 ZINC000021288966   -0.5100
31     C31     1.0981   -0.5981    1.6912 C.3      1 ZINC000021288966   -0.0400
32     H32     1.0788    1.8153    0.6355 H        1 ZINC000021288966    0.1200
33     H33    -0.6492    1.8417    0.2095 H        1 ZINC000021288966    0.1200
34     H34    -0.1547    1.7056    1.9140 H        1 ZINC000021288966    0.1200
35     H35    -0.2799    0.0505   -1.2915 H        1 ZINC000021288966    0.1300
36     H36     1.4384   -0.0731   -0.8460 H        1 ZINC000021288966    0.1200
37     H37    -0.6470   -2.2784   -0.5205 H        1 ZINC000021288966    0.1400
38     H38     0.6078   -2.2130   -1.7824 H        1 ZINC000021288966    0.1000
39     H39     6.4627   -5.1928   -2.4036 H        1 ZINC000021288966    0.1500
40     H40     8.6359   -4.0570   -2.5831 H        1 ZINC000021288966    0.1500
41     H41     9.4061   -2.5698   -0.7818 H        1 ZINC000021288966    0.1500
42     H42     8.0097   -2.2064    1.2099 H        1 ZINC000021288966    0.1500
43     H43     5.5433   -6.9611   -0.6055 H        1 ZINC000021288966    0.1800
44     H44     4.1817   -8.8267   -0.5641 H        1 ZINC000021288966    0.4200
45     H45    -0.0476   -8.5388   -0.0235 H        1 ZINC000021288966    0.4100
46     H46    -1.1006   -6.5571    0.2395 H        1 ZINC000021288966    0.1400
47     H47    -0.5117   -2.3270    2.9033 H        1 ZINC000021288966    0.3700
48     H48     2.0917   -0.2538    1.4044 H        1 ZINC000021288966    0.1300
49     H49     0.8790   -0.2676    2.7065 H        1 ZINC000021288966    0.1300
@<TRIPOS>BOND
1     1     2     1
2     1     32    1
3     1     33    1
4     1     34    1
5     2     3     1
6     2     31    1
7     2     4     1
8     4     5     1
9     4     35    1
10    4     36    1
11    5     6     1
12    5     37    1
13    5     38    1
14    6     7     1
15    6     8     1
16    6     28    1
17    8     26    1
18    8     9     2
19    9     22    1
20    9     10    1
21    10    11    1
22    11    12    1
23    11    19    2
24    12    17    ar
25    12    13    ar
26    13    14    ar
27    13    39    1
28    14    15    ar
29    14    40    1
30    15    16    ar
31    15    41    1
32    16    17    ar
33    16    42    1
34    17    18    1
35    19    20    1
36    19    43    1
37    20    21    1
38    20    22    2
39    21    44    1
40    22    23    1
41    23    24    1
42    23    25    2
43    24    45    1
44    25    26    1
45    25    46    1
46    26    27    2
47    28    29    1
48    28    30    1
49    28    31    1
50    30    47    1
51    31    48    1
52    31    49    1
@<TRIPOS>SUBSTRUCTURE
1   ZINC000021288966 1     RESIDUE    1   A     ZIN   1
