@<TRIPOS>MOLECULE
ZINC000005764976
  37   38    0    0    0
SMALL
USER_CHARGES
NO_NAME
@<TRIPOS>ATOM
    1 C1       -0.0184     1.5028     0.0103 C.3    1 <0>      -0.1400
    2 C2        0.0021    -0.0041     0.0020 C.2    1 <0>       0.4400
    3 O3        1.0565    -0.5939    -0.0112 O.2    1 <0>      -0.4900
    4 O4       -1.1512    -0.6910     0.0093 O.3    1 <0>      -0.2800
    5 C5       -1.0617    -2.0479     0.0012 C.ar   1 <0>       0.0300
    6 C6       -1.0214    -2.7367    -1.2019 C.ar   1 <0>      -0.0500
    7 C7       -1.0738    -1.9778    -2.5029 C.3    1 <0>      -0.1200
    8 C8       -0.9331    -4.1131    -1.2130 C.ar   1 <0>      -0.1100
    9 C9       -0.8895    -4.8512    -2.5262 C.3    1 <0>      -0.1100
   10 C10      -0.8836    -4.8239    -0.0167 C.ar   1 <0>       0.1400
   11 O11      -0.8146    -6.1673     0.1977 O.3    1 <0>      -0.2700
   12 C12      -0.3572    -6.4099     1.5389 C.3    1 <0>       0.1100
   13 H13       0.7296    -6.4879     1.5681 H      1 <0>       0.0900
   14 C14      -1.0046    -7.6720     2.1124 C.3    1 <0>      -0.1900
   15 C15      -0.5175    -8.8772     1.3501 C.2    1 <0>       0.4900
   16 O16       0.2741    -8.7395     0.4331 O.co2  1 <0>      -0.6900
   17 O17      -0.9151    -9.9900     1.6503 O.co2  1 <0>      -0.7100
   18 C18      -0.8368    -5.1499     2.2976 C.3    1 <0>      -0.1100
   19 C19      -0.9179    -4.1246     1.1832 C.ar   1 <0>      -0.1700
   20 C20      -1.0042    -2.7507     1.1972 C.ar   1 <0>      -0.0400
   21 C21      -1.0386    -2.0104     2.5094 C.3    1 <0>      -0.1100
   22 H22       1.0042     1.8801     0.0026 H      1 <0>       0.1000
   23 H23      -0.5455     1.8639    -0.8728 H      1 <0>       0.1000
   24 H24      -0.5286     1.8543     0.9071 H      1 <0>       0.1000
   25 H25      -0.0609    -1.7294    -2.8197 H      1 <0>       0.0700
   26 H26      -1.5517    -2.5944    -3.2642 H      1 <0>       0.0800
   27 H27      -1.6468    -1.0608    -2.3657 H      1 <0>       0.0700
   28 H28       0.1465    -4.9634    -2.8457 H      1 <0>       0.0700
   29 H29      -1.3409    -5.8359    -2.4047 H      1 <0>       0.0700
   30 H30      -1.4427    -4.2883    -3.2780 H      1 <0>       0.0700
   31 H31      -0.7345    -7.7734     3.1636 H      1 <0>       0.0800
   32 H32      -2.0883    -7.5980     2.0213 H      1 <0>       0.0700
   33 H33      -1.8160    -5.3151     2.7470 H      1 <0>       0.0900
   34 H34      -0.1095    -4.8489     3.0517 H      1 <0>       0.0900
   35 H35      -0.0213    -1.7674     2.8162 H      1 <0>       0.0700
   36 H36      -1.6124    -1.0910     2.3929 H      1 <0>       0.0700
   37 H37      -1.5070    -2.6374     3.2680 H      1 <0>       0.0700
@<TRIPOS>BOND
   1    1    2 1
   2    1   22 1
   3    1   23 1
   4    1   24 1
   5    2    3 2
   6    2    4 1
   7    4    5 1
   8    5   20 ar
   9    5    6 ar
  10    6    7 1
  11    6    8 ar
  12    7   25 1
  13    7   26 1
  14    7   27 1
  15    8    9 1
  16    8   10 ar
  17    9   28 1
  18    9   29 1
  19    9   30 1
  20   10   19 ar
  21   10   11 1
  22   11   12 1
  23   12   13 1
  24   12   14 1
  25   12   18 1
  26   14   15 1
  27   14   31 1
  28   14   32 1
  29   15   16 ar
  30   15   17 ar
  31   18   19 1
  32   18   33 1
  33   18   34 1
  34   19   20 ar
  35   20   21 1
  36   21   35 1
  37   21   36 1
  38   21   37 1
