@<TRIPOS>MOLECULE
ZINC000013883250
66    68    1     0     0
SMALL
USER_CHARGES
@<TRIPOS>ATOM
1      C1      1.4049    1.5185    0.0610 C.3      1 ZINC000013883250   -0.1600
2      C2      0.7349    0.1512   -0.0884 C.3      1 ZINC000013883250   -0.0900
3      H3     -0.3105    0.2878   -0.3650 H        1 ZINC000013883250    0.1500
4      C4      1.4497   -0.6495   -1.1791 C.3      1 ZINC000013883250   -0.1500
5      C5      1.0039   -2.0891   -1.1085 C.2      1 ZINC000013883250    0.5200
6      O6      0.8787   -2.7394   -2.1249 O.2      1 ZINC000013883250   -0.4400
7      N7      0.7462   -2.6481    0.0891 N.am     1 ZINC000013883250   -0.5400
8      N8      0.8035   -1.8828    1.2570 N.2      1 ZINC000013883250   -0.3100
9      H9      0.8366   -2.3318    2.1162 H        1 ZINC000013883250    0.4600
10     C10     0.8144   -0.5913    1.2192 C.2      1 ZINC000013883250    0.3800
11     C11     0.9044    0.1692    2.4785 C.ar     1 ZINC000013883250   -0.2000
12     C12     0.1599    1.3405    2.6444 C.ar     1 ZINC000013883250    0.0100
13     C13     0.2463    2.0483    3.8228 C.ar     1 ZINC000013883250   -0.1900
14     C14     1.0730    1.5988    4.8471 C.ar     1 ZINC000013883250    0.2700
15     N15     1.1575    2.3179    6.0391 N.pl3    1 ZINC000013883250   -0.7500
16     C16     2.0278    1.8461    7.1191 C.3      1 ZINC000013883250    0.1000
17     C17     1.9369    2.8089    8.3047 C.3      1 ZINC000013883250    0.0500
18     C18     2.8457    2.3162    9.4326 C.3      1 ZINC000013883250   -0.1800
19     C19     2.3824    4.2046    7.8636 C.3      1 ZINC000013883250   -0.1800
20     N20     0.5493    2.8664    8.7836 N.4      1 ZINC000013883250   -0.5000
21     H21    -0.0500    3.1913    8.0398 H        1 ZINC000013883250    0.4200
22     H22     0.2556    1.9460    9.0745 H        1 ZINC000013883250    0.4400
23     C23     0.4621    3.7908    9.9219 C.3      1 ZINC000013883250   -0.0500
24     C24    -0.9830    3.8506   10.4208 C.3      1 ZINC000013883250    0.0900
25     H25    -1.6421    4.1158    9.5940 H        1 ZINC000013883250    0.1300
26     O26    -1.3608    2.5742   10.9405 O.3      1 ZINC000013883250   -0.5400
27     C27    -1.0987    4.9048   11.5235 C.3      1 ZINC000013883250    0.0200
28     O28    -2.4679    5.0435   11.9083 O.3      1 ZINC000013883250   -0.2900
29     C29    -2.7456    5.9455   12.8834 C.ar     1 ZINC000013883250    0.1800
30     C30    -1.7251    6.6872   13.4560 C.ar     1 ZINC000013883250   -0.2000
31     C31    -2.0094    7.6060   14.4497 C.ar     1 ZINC000013883250    0.0300
32     Cl32   -0.7255    8.5322   15.1621 Cl       1 ZINC000013883250   -0.0400
33     C33    -3.3141    7.7918   14.8797 C.ar     1 ZINC000013883250   -0.1400
34     C34    -4.3406    7.0617   14.3208 C.ar     1 ZINC000013883250   -0.0100
35     C35    -4.0674    6.1349   13.3119 C.ar     1 ZINC000013883250   -0.0500
36     C36    -5.1298    5.3735   12.7268 C.1      1 ZINC000013883250    0.2500
37     N37    -5.9726    4.7695   12.2627 N.1      1 ZINC000013883250   -0.3900
38     C38     1.8154    0.4337    4.6857 C.ar     1 ZINC000013883250   -0.1900
39     C39     1.7301   -0.2822    3.5120 C.ar     1 ZINC000013883250   -0.0200
40     H40     2.4061    1.3896    0.4723 H        1 ZINC000013883250    0.0800
41     H41     1.4722    1.9988   -0.9151 H        1 ZINC000013883250    0.1000
42     H42     0.8137    2.1413    0.7324 H        1 ZINC000013883250    0.0900
43     H43     1.1988   -0.2379   -2.1568 H        1 ZINC000013883250    0.1500
44     H44     2.5273   -0.5938   -1.0249 H        1 ZINC000013883250    0.1300
45     H45     0.5186   -3.5896    0.1416 H        1 ZINC000013883250    0.4500
46     H46    -0.4820    1.6902    1.8494 H        1 ZINC000013883250    0.1500
47     H47    -0.3284    2.9536    3.9516 H        1 ZINC000013883250    0.1500
48     H48     0.6401    3.1304    6.1531 H        1 ZINC000013883250    0.4000
49     H49     1.7104    0.8518    7.4333 H        1 ZINC000013883250    0.1000
50     H50     3.0573    1.8035    6.7637 H        1 ZINC000013883250    0.1200
51     H51     3.8753    2.2736    9.0772 H        1 ZINC000013883250    0.1100
52     H52     2.7810    3.0021   10.2772 H        1 ZINC000013883250    0.0900
53     H53     2.5284    1.3219    9.7468 H        1 ZINC000013883250    0.0900
54     H54     1.7349    4.5556    7.0600 H        1 ZINC000013883250    0.0800
55     H55     2.3176    4.8905    8.7082 H        1 ZINC000013883250    0.0900
56     H56     3.4119    4.1620    7.5082 H        1 ZINC000013883250    0.1100
57     H57     1.1096    3.4398   10.7255 H        1 ZINC000013883250    0.1500
58     H58     0.7795    4.7851    9.6077 H        1 ZINC000013883250    0.1500
59     H59    -0.8157    2.2739   11.6806 H        1 ZINC000013883250    0.3900
60     H60    -0.5086    4.5948   12.3859 H        1 ZINC000013883250    0.0900
61     H61    -0.7268    5.8602   11.1533 H        1 ZINC000013883250    0.0900
62     H62    -0.7062    6.5475   13.1262 H        1 ZINC000013883250    0.1500
63     H63    -3.5269    8.5116   15.6563 H        1 ZINC000013883250    0.1600
64     H64    -5.3556    7.2093   14.6591 H        1 ZINC000013883250    0.1600
65     H65     2.4563    0.0877    5.4831 H        1 ZINC000013883250    0.1400
66     H66     2.3068   -1.1868    3.3874 H        1 ZINC000013883250    0.1400
@<TRIPOS>BOND
1     1     2     1
2     1     40    1
3     1     41    1
4     1     42    1
5     2     3     1
6     2     10    1
7     2     4     1
8     4     5     1
9     4     43    1
10    4     44    1
11    5     6     2
12    5     7     am
13    7     8     1
14    7     45    1
15    8     9     1
16    8     10    2
17    10    11    1
18    11    39    ar
19    11    12    ar
20    12    13    ar
21    12    46    1
22    13    14    ar
23    13    47    1
24    14    15    1
25    14    38    ar
26    15    16    1
27    15    48    1
28    16    17    1
29    16    49    1
30    16    50    1
31    17    18    1
32    17    19    1
33    17    20    1
34    18    51    1
35    18    52    1
36    18    53    1
37    19    54    1
38    19    55    1
39    19    56    1
40    20    21    1
41    20    22    1
42    20    23    1
43    23    24    1
44    23    57    1
45    23    58    1
46    24    25    1
47    24    26    1
48    24    27    1
49    26    59    1
50    27    28    1
51    27    60    1
52    27    61    1
53    28    29    1
54    29    35    ar
55    29    30    ar
56    30    31    ar
57    30    62    1
58    31    32    1
59    31    33    ar
60    33    34    ar
61    33    63    1
62    34    35    ar
63    34    64    1
64    35    36    1
65    36    37    3
66    38    39    ar
67    38    65    1
68    39    66    1
@<TRIPOS>SUBSTRUCTURE
1   ZINC000013883250 1     RESIDUE    1   A     ZIN   1
