@<TRIPOS>MOLECULE
ZINC000001850101
  29   31    0    0    0
SMALL
USER_CHARGES
NO_NAME
@<TRIPOS>ATOM
    1 C1       -0.0178     1.4608     0.0101 C.3    1 <0>       0.0800
    2 N2        0.0021    -0.0041     0.0020 N.pl3  1 <0>      -0.5200
    3 C3        0.0085    -0.8086    -1.1002 C.2    1 <0>       0.5700
    4 N4       -0.0024    -0.3644    -2.4035 N.pl3  1 <0>      -0.8200
    5 N5        0.0271    -2.0675    -0.7338 N.2    1 <0>      -0.5400
    6 C6        0.0338    -2.1517     0.6198 C.ar   1 <0>       0.2900
    7 N7        0.0512    -3.1806     1.4653 N.ar   1 <0>      -0.4500
    8 C8        0.0540    -3.0042     2.7681 C.ar   1 <0>       0.1400
    9 C9        0.0384    -1.7249     3.3249 C.ar   1 <0>      -0.1000
   10 C10       0.0419    -1.5470     4.7975 C.ar   1 <0>      -0.0300
   11 C11       0.0204    -0.2666     5.3474 C.ar   1 <0>      -0.1100
   12 C12       0.0233    -0.1070     6.7183 C.ar   1 <0>      -0.1200
   13 C13       0.0474    -1.2150     7.5461 C.ar   1 <0>      -0.1200
   14 C14       0.0693    -2.4882     7.0058 C.ar   1 <0>      -0.1100
   15 C15       0.0608    -2.6598     5.6364 C.ar   1 <0>      -0.1100
   16 C16       0.0199    -0.6130     2.4782 C.ar   1 <0>      -0.0500
   17 C17       0.0239    -0.8327     1.1117 C.ar   1 <0>      -0.0100
   18 H18       1.0048     1.8381     0.0023 H      1 <0>       0.0800
   19 H19      -0.5450     1.8219    -0.8730 H      1 <0>       0.0900
   20 H20      -0.5280     1.8123     0.9069 H      1 <0>       0.0900
   21 H21      -0.0157     0.5871    -2.5915 H      1 <0>       0.4100
   22 H22       0.0033    -1.0031    -3.1336 H      1 <0>       0.4300
   23 H23       0.0683    -3.8656     3.4195 H      1 <0>       0.1700
   24 H24       0.0019     0.5992     4.7020 H      1 <0>       0.1200
   25 H25       0.0070     0.8847     7.1455 H      1 <0>       0.1200
   26 H26       0.0496    -1.0855     8.6183 H      1 <0>       0.1200
   27 H27       0.0885    -3.3497     7.6568 H      1 <0>       0.1300
   28 H28       0.0779    -3.6543     5.2156 H      1 <0>       0.1300
   29 H29       0.0071     0.3898     2.8790 H      1 <0>       0.1300
@<TRIPOS>BOND
   1    1    2 1
   2    1   18 1
   3    1   19 1
   4    1   20 1
   5    2   17 1
   6    2    3 1
   7    3    4 1
   8    3    5 2
   9    4   21 1
  10    4   22 1
  11    5    6 1
  12    6   17 ar
  13    6    7 ar
  14    7    8 ar
  15    8    9 ar
  16    8   23 1
  17    9   10 1
  18    9   16 ar
  19   10   15 ar
  20   10   11 ar
  21   11   12 ar
  22   11   24 1
  23   12   13 ar
  24   12   25 1
  25   13   14 ar
  26   13   26 1
  27   14   15 ar
  28   14   27 1
  29   15   28 1
  30   16   17 ar
  31   16   29 1
