@<TRIPOS>MOLECULE
ZINC000040848320
56    59    1     0     0
SMALL
USER_CHARGES
@<TRIPOS>ATOM
1      C1     -0.7762    2.1699    0.0062 C.3      1 ZINC000040848320   -0.1500
2      C2     -0.5939    0.6529    0.0865 C.3      1 ZINC000040848320    0.0800
3      C3      0.1126    0.2927    1.3950 C.3      1 ZINC000040848320   -0.1700
4      O4     -1.8933    0.0064    0.0442 O.3      1 ZINC000040848320   -0.3500
5      C5     -1.9472   -1.2245   -0.5042 C.2      1 ZINC000040848320    0.5200
6      O6     -0.9351   -1.7430   -0.9352 O.2      1 ZINC000040848320   -0.5000
7      C7     -3.2266   -1.9381   -0.5808 C.2      1 ZINC000040848320   -0.1000
8      C8     -3.3179   -3.1929   -1.1263 C.2      1 ZINC000040848320    0.1900
9      N9     -4.5550   -3.7594   -1.2531 N.am     1 ZINC000040848320   -0.5700
10     C10    -5.1441   -3.7508   -2.4652 C.2      1 ZINC000040848320    0.5700
11     O11    -6.2061   -4.3191   -2.6289 O.2      1 ZINC000040848320   -0.5000
12     C12    -4.4995   -3.0513   -3.5944 C.ar     1 ZINC000040848320   -0.1200
13     C13    -3.1235   -3.1726   -3.8002 C.ar     1 ZINC000040848320   -0.0700
14     C14    -2.5257   -2.5180   -4.8562 C.ar     1 ZINC000040848320   -0.1200
15     C15    -3.2870   -1.7396   -5.7134 C.ar     1 ZINC000040848320    0.0900
16     F16    -2.6957   -1.1001   -6.7462 F        1 ZINC000040848320   -0.1200
17     C17    -4.6560   -1.6149   -5.5148 C.ar     1 ZINC000040848320    0.0700
18     F18    -5.3932   -0.8553   -6.3543 F        1 ZINC000040848320   -0.1200
19     C19    -5.2649   -2.2703   -4.4640 C.ar     1 ZINC000040848320   -0.0700
20     C20    -5.2702   -4.3752   -0.1345 C.3      1 ZINC000040848320    0.1200
21     C21    -5.1711   -3.4735    1.1033 C.3      1 ZINC000040848320   -0.0100
22     C22    -6.2502   -3.8696    2.1129 C.3      1 ZINC000040848320   -0.1400
23     C23    -3.7898   -3.6311    1.7421 C.3      1 ZINC000040848320   -0.1500
24     C24    -5.3743   -2.0407    0.6844 C.2      1 ZINC000040848320   -0.1300
25     C25    -4.4822   -1.3393   -0.0663 C.2      1 ZINC000040848320    0.1200
26     N26    -4.9463   -0.0654   -0.2538 N.pl3    1 ZINC000040848320   -0.5700
27     C27    -6.1766    0.0770    0.3585 C.ar     1 ZINC000040848320    0.1100
28     C28    -7.0702    1.1360    0.4592 C.ar     1 ZINC000040848320   -0.1300
29     C29    -8.2517    0.9746    1.1513 C.ar     1 ZINC000040848320   -0.0900
30     C30    -8.5596   -0.2381    1.7516 C.ar     1 ZINC000040848320   -0.1400
31     C31    -7.6964   -1.2936    1.6668 C.ar     1 ZINC000040848320   -0.0700
32     C32    -6.4903   -1.1542    0.9730 C.ar     1 ZINC000040848320   -0.0900
33     H33     0.1993    2.6552    0.0379 H        1 ZINC000040848320    0.0800
34     H34    -1.2795    2.4265   -0.9260 H        1 ZINC000040848320    0.0600
35     H35    -1.3782    2.5087    0.8493 H        1 ZINC000040848320    0.0700
36     H36     0.0081    0.3141   -0.7566 H        1 ZINC000040848320    0.0900
37     H37    -0.4895    0.6315    2.2382 H        1 ZINC000040848320    0.0700
38     H38     0.2424   -0.7880    1.4523 H        1 ZINC000040848320    0.0600
39     H39     1.0880    0.7781    1.4268 H        1 ZINC000040848320    0.0800
40     H40    -2.4326   -3.7211   -1.4486 H        1 ZINC000040848320    0.1600
41     H41    -2.5284   -3.7782   -3.1328 H        1 ZINC000040848320    0.1500
42     H42    -1.4617   -2.6118   -5.0154 H        1 ZINC000040848320    0.1600
43     H43    -6.3295   -2.1736   -4.3098 H        1 ZINC000040848320    0.1600
44     H44    -6.3181   -4.5081   -0.4033 H        1 ZINC000040848320    0.1100
45     H45    -4.8279   -5.3463    0.0880 H        1 ZINC000040848320    0.0800
46     H46    -6.1070   -4.9088    2.4089 H        1 ZINC000040848320    0.0600
47     H47    -6.1788   -3.2284    2.9915 H        1 ZINC000040848320    0.0700
48     H48    -7.2338   -3.7538    1.6577 H        1 ZINC000040848320    0.0700
49     H49    -3.0221   -3.3454    1.0230 H        1 ZINC000040848320    0.0600
50     H50    -3.7208   -2.9901    2.6211 H        1 ZINC000040848320    0.0600
51     H51    -3.6425   -4.6699    2.0375 H        1 ZINC000040848320    0.0600
52     H52    -4.4817    0.6320   -0.7424 H        1 ZINC000040848320    0.4200
53     H53    -6.8396    2.0842   -0.0035 H        1 ZINC000040848320    0.1200
54     H54    -8.9443    1.7997    1.2266 H        1 ZINC000040848320    0.1300
55     H55    -9.4891   -0.3482    2.2905 H        1 ZINC000040848320    0.1200
56     H56    -7.9433   -2.2335    2.1379 H        1 ZINC000040848320    0.1300
@<TRIPOS>BOND
1     1     2     1
2     1     33    1
3     1     34    1
4     1     35    1
5     2     3     1
6     2     4     1
7     2     36    1
8     3     37    1
9     3     38    1
10    3     39    1
11    4     5     1
12    5     6     2
13    5     7     1
14    7     25    1
15    7     8     2
16    8     9     1
17    8     40    1
18    9     10    am
19    9     20    1
20    10    11    2
21    10    12    1
22    12    19    ar
23    12    13    ar
24    13    14    ar
25    13    41    1
26    14    15    ar
27    14    42    1
28    15    16    1
29    15    17    ar
30    17    18    1
31    17    19    ar
32    19    43    1
33    20    21    1
34    20    44    1
35    20    45    1
36    21    22    1
37    21    23    1
38    21    24    1
39    22    46    1
40    22    47    1
41    22    48    1
42    23    49    1
43    23    50    1
44    23    51    1
45    24    32    1
46    24    25    2
47    25    26    1
48    26    27    1
49    26    52    1
50    27    32    ar
51    27    28    ar
52    28    29    ar
53    28    53    1
54    29    30    ar
55    29    54    1
56    30    31    ar
57    30    55    1
58    31    32    ar
59    31    56    1
@<TRIPOS>SUBSTRUCTURE
1   ZINC000040848320 1     RESIDUE    1   A     ZIN   1
