@<TRIPOS>MOLECULE
ZINC000003793091
63    66    1     0     0
SMALL
USER_CHARGES
@<TRIPOS>ATOM
1      C1     -0.0187    1.5258    0.0104 C.3      1 ZINC000003793091   -0.1500
2      C2      0.0021   -0.0041    0.0020 C.3      1 ZINC000003793091   -0.1300
3      C3     -1.4333   -0.5336    0.0129 C.3      1 ZINC000003793091   -0.1200
4      C4     -1.4126   -2.0635    0.0045 C.3      1 ZINC000003793091   -0.1300
5      C5     -2.8479   -2.5931    0.0153 C.3      1 ZINC000003793091    0.1200
6      N6     -2.8281   -4.0579    0.0073 N.am     1 ZINC000003793091   -0.7100
7      C7     -3.9860   -4.7476    0.0146 C.2      1 ZINC000003793091    0.6100
8      O8     -5.0473   -4.1539    0.0279 O.2      1 ZINC000003793091   -0.5400
9      C9     -3.9660   -6.2216    0.0065 C.2      1 ZINC000003793091   -0.0700
10     C10    -5.0496   -7.0450    0.0065 C.2      1 ZINC000003793091    0.0100
11     O11    -4.5844   -8.3043   -0.0031 O.3      1 ZINC000003793091   -0.1800
12     C12    -3.2447   -8.2563   -0.0088 C.2      1 ZINC000003793091    0.2200
13     C13    -2.3289   -9.4530   -0.0208 C.3      1 ZINC000003793091   -0.0200
14     H14    -1.2853   -9.1386   -0.0364 H        1 ZINC000003793091    0.1300
15     C15    -2.6449  -10.3779   -1.2344 C.3      1 ZINC000003793091    0.0700
16     H16    -2.8760   -9.8628   -2.1668 H        1 ZINC000003793091    0.1300
17     C17    -1.4585  -11.3856   -1.3042 C.3      1 ZINC000003793091   -0.1500
18     C18    -1.7228  -12.3114   -0.0894 C.3      1 ZINC000003793091   -0.1500
19     C19    -3.0268  -11.7156    0.5210 C.3      1 ZINC000003793091    0.0700
20     H20    -3.6049  -12.3976    1.1445 H        1 ZINC000003793091    0.1300
21     O21    -3.7183  -11.2115   -0.6865 O.3      1 ZINC000003793091   -0.3600
22     C22    -2.6080  -10.3704    1.1970 C.3      1 ZINC000003793091   -0.1000
23     H23    -1.6995  -10.5002    1.7852 H        1 ZINC000003793091    0.1000
24     C24    -3.7418   -9.8253    2.0678 C.3      1 ZINC000003793091   -0.0800
25     C25    -3.9683  -10.7512    3.2351 C.ar     1 ZINC000003793091   -0.0800
26     C26    -4.9360  -11.7351    3.1590 C.ar     1 ZINC000003793091   -0.1200
27     C27    -5.1438  -12.5845    4.2299 C.ar     1 ZINC000003793091   -0.1300
28     C28    -4.3835  -12.4501    5.3763 C.ar     1 ZINC000003793091   -0.1200
29     C29    -3.4149  -11.4665    5.4520 C.ar     1 ZINC000003793091   -0.1200
30     C30    -3.2042  -10.6201    4.3799 C.ar     1 ZINC000003793091   -0.0600
31     C31    -2.1484   -9.5479    4.4624 C.3      1 ZINC000003793091   -0.0600
32     C32    -2.7912   -8.2322    4.9057 C.3      1 ZINC000003793091   -0.1700
33     C33    -1.7354   -7.1601    4.9882 C.2      1 ZINC000003793091    0.4900
34     O34    -0.5762   -7.4239    4.7175 O.co2    1 ZINC000003793091   -0.7000
35     O35    -2.0403   -6.0289    5.3257 O.co2    1 ZINC000003793091   -0.7000
36     N36    -2.8607   -7.0150   -0.0083 N.2      1 ZINC000003793091   -0.4500
37     H37     1.0039    1.9031    0.0027 H        1 ZINC000003793091    0.0500
38     H38    -0.5459    1.8868   -0.8726 H        1 ZINC000003793091    0.0500
39     H39    -0.5289    1.8773    0.9072 H        1 ZINC000003793091    0.0500
40     H40     0.5123   -0.3556   -0.8948 H        1 ZINC000003793091    0.0600
41     H41     0.5293   -0.3651    0.8851 H        1 ZINC000003793091    0.0600
42     H42    -1.9435   -0.1821    0.9097 H        1 ZINC000003793091    0.0700
43     H43    -1.9605   -0.1726   -0.8702 H        1 ZINC000003793091    0.0600
44     H44    -0.9024   -2.4150   -0.8923 H        1 ZINC000003793091    0.0700
45     H45    -0.8854   -2.4246    0.8875 H        1 ZINC000003793091    0.0800
46     H46    -3.3581   -2.2415    0.9121 H        1 ZINC000003793091    0.0700
47     H47    -3.3751   -2.2320   -0.8677 H        1 ZINC000003793091    0.0700
48     H48    -1.9816   -4.5314   -0.0034 H        1 ZINC000003793091    0.4100
49     H49    -6.0865   -6.7428    0.0132 H        1 ZINC000003793091    0.2300
50     H50    -1.4874  -11.9522   -2.2349 H        1 ZINC000003793091    0.0800
51     H51    -0.5054  -10.8682   -1.1953 H        1 ZINC000003793091    0.0800
52     H52    -1.8833  -13.3392   -0.4148 H        1 ZINC000003793091    0.0800
53     H53    -0.9013  -12.2551    0.6248 H        1 ZINC000003793091    0.0800
54     H54    -3.4732   -8.8352    2.4362 H        1 ZINC000003793091    0.0800
55     H55    -4.6543   -9.7574    1.4755 H        1 ZINC000003793091    0.0800
56     H56    -5.5301  -11.8401    2.2632 H        1 ZINC000003793091    0.1200
57     H57    -5.9005  -13.3529    4.1707 H        1 ZINC000003793091    0.1200
58     H58    -4.5464  -13.1132    6.2130 H        1 ZINC000003793091    0.1200
59     H59    -2.8211  -11.3613    6.3479 H        1 ZINC000003793091    0.1200
60     H60    -1.3875   -9.8423    5.1852 H        1 ZINC000003793091    0.0700
61     H61    -1.6878   -9.4155    3.4834 H        1 ZINC000003793091    0.0700
62     H62    -3.5521   -7.9379    4.1829 H        1 ZINC000003793091    0.0500
63     H63    -3.2518   -8.3646    5.8847 H        1 ZINC000003793091    0.0600
@<TRIPOS>BOND
1     1     2     1
2     1     37    1
3     1     38    1
4     1     39    1
5     2     3     1
6     2     40    1
7     2     41    1
8     3     4     1
9     3     42    1
10    3     43    1
11    4     5     1
12    4     44    1
13    4     45    1
14    5     6     1
15    5     46    1
16    5     47    1
17    6     7     am
18    6     48    1
19    7     8     2
20    7     9     1
21    9     36    1
22    9     10    2
23    10    11    1
24    10    49    1
25    11    12    1
26    12    13    1
27    12    36    2
28    13    14    1
29    13    22    1
30    13    15    1
31    15    16    1
32    15    21    1
33    15    17    1
34    17    18    1
35    17    50    1
36    17    51    1
37    18    19    1
38    18    52    1
39    18    53    1
40    19    20    1
41    19    21    1
42    19    22    1
43    22    23    1
44    22    24    1
45    24    25    1
46    24    54    1
47    24    55    1
48    25    30    ar
49    25    26    ar
50    26    27    ar
51    26    56    1
52    27    28    ar
53    27    57    1
54    28    29    ar
55    28    58    1
56    29    30    ar
57    29    59    1
58    30    31    1
59    31    32    1
60    31    60    1
61    31    61    1
62    32    33    1
63    32    62    1
64    32    63    1
65    33    34    ar
66    33    35    ar
@<TRIPOS>SUBSTRUCTURE
1   ZINC000003793091 1     RESIDUE    1   A     ZIN   1
