@<TRIPOS>MOLECULE
ZINC000043203531
65    69    1     0     0
SMALL
USER_CHARGES
@<TRIPOS>ATOM
1      C1      1.5747    0.3575    0.3001 C.3      1 ZINC000043203531   -0.0800
2      C2      0.4329   -0.5595   -0.0556 C.ar     1 ZINC000043203531    0.3600
3      N3      0.5048   -1.2579   -1.1746 N.ar     1 ZINC000043203531   -0.5200
4      C4     -0.4777   -2.0782   -1.5277 C.ar     1 ZINC000043203531    0.4800
5      N5     -0.3976   -2.8092   -2.7025 N.pl3    1 ZINC000043203531   -0.6100
6      C6      0.7266   -2.6861   -3.5286 C.2      1 ZINC000043203531    0.3400
7      N7      1.7688   -1.9223   -3.3028 N.2      1 ZINC000043203531   -0.2400
8      N8      2.6680   -2.0860   -4.3635 N.pl3    1 ZINC000043203531   -0.4400
9      C9      2.1326   -2.9723   -5.2333 C.2      1 ZINC000043203531    0.0900
10     C10     0.9385   -3.3646   -4.7426 C.2      1 ZINC000043203531   -0.2900
11     C11     0.3110   -4.3565   -5.6893 C.3      1 ZINC000043203531    0.1900
12     N12     1.2357   -4.5386   -6.8141 N.am     1 ZINC000043203531   -0.6200
13     C13     1.0600   -5.3403   -7.8831 C.2      1 ZINC000043203531    0.7400
14     O14     1.9125   -5.3955   -8.7483 O.2      1 ZINC000043203531   -0.5800
15     N15    -0.0607   -6.0808   -7.9932 N.am     1 ZINC000043203531   -0.7200
16     C16    -0.2968   -6.8774   -9.1998 C.3      1 ZINC000043203531    0.2100
17     H17     0.3453   -6.5178  -10.0039 H        1 ZINC000043203531    0.1100
18     C18    -1.7622   -6.7453   -9.6195 C.3      1 ZINC000043203531    0.0500
19     N19    -2.0764   -5.3310   -9.8626 N.3      1 ZINC000043203531   -0.5400
20     C20    -1.3296   -4.8170  -11.0185 C.3      1 ZINC000043203531    0.0200
21     C21    -3.5214   -5.1357  -10.0402 C.3      1 ZINC000043203531    0.0200
22     C22     0.0160   -8.3239   -8.9159 C.ar     1 ZINC000043203531   -0.1000
23     C23    -0.3505   -8.8860   -7.7073 C.ar     1 ZINC000043203531   -0.1000
24     C24    -0.0636  -10.2129   -7.4469 C.ar     1 ZINC000043203531   -0.1200
25     C25     0.5894  -10.9779   -8.3952 C.ar     1 ZINC000043203531   -0.1200
26     C26     0.9550  -10.4161   -9.6042 C.ar     1 ZINC000043203531   -0.1200
27     C27     0.6643   -9.0903   -9.8663 C.ar     1 ZINC000043203531   -0.1000
28     C28     2.3912   -3.6760   -6.5415 C.3      1 ZINC000043203531    0.2600
29     C29     2.5441   -2.6435   -7.6601 C.3      1 ZINC000043203531   -0.1600
30     C30     3.6601   -4.5247   -6.4382 C.3      1 ZINC000043203531   -0.1600
31     C31    -1.5993   -2.1929   -0.6905 C.ar     1 ZINC000043203531   -0.3100
32     S32    -3.0637   -3.1551   -0.8248 S.3      1 ZINC000043203531    0.1300
33     C33    -3.6768   -2.5163    0.6913 C.2      1 ZINC000043203531   -0.1500
34     C34    -2.8200   -1.6561    1.2186 C.2      1 ZINC000043203531   -0.1300
35     C35    -1.6427   -1.4398    0.4854 C.ar     1 ZINC000043203531    0.2000
36     N36    -0.5890   -0.6368    0.7591 N.ar     1 ZINC000043203531   -0.5300
37     H37     2.3100   -0.1897    0.8900 H        1 ZINC000043203531    0.0900
38     H38     2.0427    0.7260   -0.6128 H        1 ZINC000043203531    0.0900
39     H39     1.1972    1.1995    0.8803 H        1 ZINC000043203531    0.0900
40     H40    -1.1201   -3.4061   -2.9526 H        1 ZINC000043203531    0.4300
41     H41     3.5248   -1.6412   -4.4580 H        1 ZINC000043203531    0.4400
42     H42     0.1564   -5.3076   -5.1797 H        1 ZINC000043203531    0.0700
43     H43    -0.6415   -3.9702   -6.0521 H        1 ZINC000043203531    0.0800
44     H44    -0.7110   -6.0863   -7.2735 H        1 ZINC000043203531    0.4000
45     H45    -1.9318   -7.3171  -10.5318 H        1 ZINC000043203531    0.0500
46     H46    -2.4034   -7.1287   -8.8259 H        1 ZINC000043203531    0.0800
47     H47    -1.5007   -5.4643  -11.8786 H        1 ZINC000043203531    0.0300
48     H48    -1.6688   -3.8074  -11.2504 H        1 ZINC000043203531    0.0700
49     H49    -0.2653   -4.7978  -10.7842 H        1 ZINC000043203531    0.0700
50     H50    -4.0452   -5.4606   -9.1412 H        1 ZINC000043203531    0.0700
51     H51    -3.7262   -4.0801  -10.2186 H        1 ZINC000043203531    0.0700
52     H52    -3.8652   -5.7216  -10.8927 H        1 ZINC000043203531    0.0300
53     H53    -0.8606   -8.2883   -6.9664 H        1 ZINC000043203531    0.1200
54     H54    -0.3492  -10.6519   -6.5024 H        1 ZINC000043203531    0.1200
55     H55     0.8142  -12.0144   -8.1915 H        1 ZINC000043203531    0.1200
56     H56     1.4654  -11.0137  -10.3450 H        1 ZINC000043203531    0.1200
57     H57     0.9499   -8.6514  -10.8108 H        1 ZINC000043203531    0.1200
58     H58     1.6435   -2.0319   -7.7156 H        1 ZINC000043203531    0.0600
59     H59     3.4036   -2.0064   -7.4516 H        1 ZINC000043203531    0.0700
60     H60     2.6940   -3.1565   -8.6101 H        1 ZINC000043203531    0.0900
61     H61     3.8201   -5.0548   -7.3771 H        1 ZINC000043203531    0.0900
62     H62     4.5140   -3.8784   -6.2357 H        1 ZINC000043203531    0.0700
63     H63     3.5500   -5.2457   -5.6281 H        1 ZINC000043203531    0.0600
64     H64    -4.6241   -2.7879    1.1333 H        1 ZINC000043203531    0.1800
65     H65    -3.0146   -1.1522    2.1538 H        1 ZINC000043203531    0.1600
@<TRIPOS>BOND
1     1     2     1
2     1     37    1
3     1     38    1
4     1     39    1
5     2     36    ar
6     2     3     ar
7     3     4     ar
8     4     5     1
9     4     31    ar
10    5     6     1
11    5     40    1
12    6     10    1
13    6     7     2
14    7     8     1
15    8     9     1
16    8     41    1
17    9     28    1
18    9     10    2
19    10    11    1
20    11    12    1
21    11    42    1
22    11    43    1
23    12    13    am
24    12    28    1
25    13    14    2
26    13    15    am
27    15    16    1
28    15    44    1
29    16    17    1
30    16    18    1
31    16    22    1
32    18    19    1
33    18    45    1
34    18    46    1
35    19    20    1
36    19    21    1
37    20    47    1
38    20    48    1
39    20    49    1
40    21    50    1
41    21    51    1
42    21    52    1
43    22    27    ar
44    22    23    ar
45    23    24    ar
46    23    53    1
47    24    25    ar
48    24    54    1
49    25    26    ar
50    25    55    1
51    26    27    ar
52    26    56    1
53    27    57    1
54    28    29    1
55    28    30    1
56    29    58    1
57    29    59    1
58    29    60    1
59    30    61    1
60    30    62    1
61    30    63    1
62    31    35    ar
63    31    32    1
64    32    33    1
65    33    34    2
66    33    64    1
67    34    35    1
68    34    65    1
69    35    36    ar
@<TRIPOS>SUBSTRUCTURE
1   ZINC000043203531 1     RESIDUE    1   A     ZIN   1
