@<TRIPOS>MOLECULE
ZINC000034285211
59    62    1     0     0
SMALL
USER_CHARGES
@<TRIPOS>ATOM
1      C1     -0.0187    1.5258    0.0104 C.3      1 ZINC000034285211   -0.1600
2      C2      0.0021   -0.0041    0.0020 C.3      1 ZINC000034285211    0.1000
3      N3      0.7106   -0.4894    1.1889 N.pl3    1 ZINC000034285211   -0.4500
4      C4      2.0538   -0.7376    1.2908 C.2      1 ZINC000034285211    0.3800
5      C5      3.0387   -0.5553    0.2022 C.2      1 ZINC000034285211    0.0100
6      N6      2.8385   -0.1318   -1.0277 N.2      1 ZINC000034285211   -0.3200
7      O7      3.8907   -0.1175   -1.6222 O.3      1 ZINC000034285211    0.3500
8      N8      4.8604   -0.4766   -0.9969 N.2      1 ZINC000034285211   -0.4000
9      C9      4.5004   -0.7974    0.2237 C.2      1 ZINC000034285211    0.3300
10     N10     5.2895   -1.2576    1.2696 N.pl3    1 ZINC000034285211   -0.8000
11     N11     2.3341   -1.1609    2.4999 N.2      1 ZINC000034285211   -0.4500
12     C12     1.2105   -1.2101    3.2361 C.ar     1 ZINC000034285211    0.0700
13     C13     0.9215   -1.5799    4.5659 C.ar     1 ZINC000034285211    0.2900
14     C14     1.9750   -2.0195    5.4305 C.1      1 ZINC000034285211   -0.1200
15     C15     2.8387   -2.3798    6.1394 C.1      1 ZINC000034285211   -0.1300
16     C16     3.9216   -2.8317    7.0281 C.3      1 ZINC000034285211    0.2400
17     C17     3.3445   -3.1697    8.4042 C.3      1 ZINC000034285211   -0.1400
18     C18     4.5839   -4.0760    6.4332 C.3      1 ZINC000034285211   -0.1800
19     O19     4.8934   -1.7925    7.1613 O.3      1 ZINC000034285211   -0.5400
20     N20    -0.3241   -1.5208    5.0174 N.ar     1 ZINC000034285211   -0.4300
21     C21    -1.3305   -1.1224    4.2616 C.ar     1 ZINC000034285211    0.0200
22     C22    -1.1360   -0.7414    2.9443 C.ar     1 ZINC000034285211    0.1000
23     O23    -2.1850   -0.3339    2.1817 O.3      1 ZINC000034285211   -0.3100
24     C24    -3.4721   -0.3212    2.8025 C.3      1 ZINC000034285211    0.0600
25     C25    -4.5187    0.1620    1.7965 C.3      1 ZINC000034285211   -0.1100
26     H26    -4.2196    1.1311    1.3972 H        1 ZINC000034285211    0.1100
27     C27    -4.6334   -0.8493    0.6522 C.3      1 ZINC000034285211   -0.1300
28     C28    -5.7375   -0.3964   -0.3074 C.3      1 ZINC000034285211   -0.1500
29     C29    -7.0487   -0.2458    0.4669 C.3      1 ZINC000034285211   -0.0100
30     N30    -6.8817    0.7531    1.5294 N.4      1 ZINC000034285211   -0.5000
31     H31    -6.5820    1.6271    1.1238 H        1 ZINC000034285211    0.4300
32     H32    -7.7618    0.8881    2.0041 H        1 ZINC000034285211    0.4400
33     C33    -5.8748    0.2930    2.4932 C.3      1 ZINC000034285211    0.0000
34     C34     0.1536   -0.7764    2.4139 C.ar     1 ZINC000034285211    0.0700
35     H35     1.0039    1.9031    0.0027 H        1 ZINC000034285211    0.0700
36     H36    -0.5459    1.8868   -0.8726 H        1 ZINC000034285211    0.0800
37     H37    -0.5289    1.8773    0.9072 H        1 ZINC000034285211    0.0600
38     H38    -1.0205   -0.3814    0.0098 H        1 ZINC000034285211    0.1000
39     H39     0.5123   -0.3556   -0.8948 H        1 ZINC000034285211    0.1100
40     H40     6.2432   -1.3787    1.1407 H        1 ZINC000034285211    0.4200
41     H41     4.8869   -1.4579    2.1291 H        1 ZINC000034285211    0.4300
42     H42     2.6032   -3.9624    8.3026 H        1 ZINC000034285211    0.0800
43     H43     4.1463   -3.5043    9.0623 H        1 ZINC000034285211    0.0800
44     H44     2.8726   -2.2832    8.8280 H        1 ZINC000034285211    0.0700
45     H45     4.9950   -3.8352    5.4529 H        1 ZINC000034285211    0.0600
46     H46     5.3858   -4.4106    7.0913 H        1 ZINC000034285211    0.0800
47     H47     3.8426   -4.8687    6.3316 H        1 ZINC000034285211    0.0700
48     H48     5.3019   -1.5266    6.3262 H        1 ZINC000034285211    0.3800
49     H49    -2.3262   -1.0933    4.6791 H        1 ZINC000034285211    0.1700
50     H50    -3.7252   -1.3280    3.1348 H        1 ZINC000034285211    0.0800
51     H51    -3.4551    0.3510    3.6603 H        1 ZINC000034285211    0.0800
52     H52    -3.6852   -0.9035    0.1174 H        1 ZINC000034285211    0.1000
53     H53    -4.8817   -1.8306    1.0566 H        1 ZINC000034285211    0.0800
54     H54    -5.4644    0.5613   -0.7505 H        1 ZINC000034285211    0.0900
55     H55    -5.8631   -1.1398   -1.0946 H        1 ZINC000034285211    0.1200
56     H56    -7.8370    0.0764   -0.2134 H        1 ZINC000034285211    0.1400
57     H57    -7.3210   -1.2040    0.9094 H        1 ZINC000034285211    0.1300
58     H58    -6.1715   -0.6767    2.8928 H        1 ZINC000034285211    0.1400
59     H59    -5.7972    1.0125    3.3082 H        1 ZINC000034285211    0.1400
@<TRIPOS>BOND
1     1     2     1
2     1     35    1
3     1     36    1
4     1     37    1
5     2     3     1
6     2     38    1
7     2     39    1
8     3     34    1
9     3     4     1
10    4     5     1
11    4     11    2
12    5     9     1
13    5     6     2
14    6     7     1
15    7     8     1
16    8     9     2
17    9     10    1
18    10    40    1
19    10    41    1
20    11    12    1
21    12    34    ar
22    12    13    ar
23    13    14    1
24    13    20    ar
25    14    15    3
26    15    16    1
27    16    17    1
28    16    18    1
29    16    19    1
30    17    42    1
31    17    43    1
32    17    44    1
33    18    45    1
34    18    46    1
35    18    47    1
36    19    48    1
37    20    21    ar
38    21    22    ar
39    21    49    1
40    22    23    1
41    22    34    ar
42    23    24    1
43    24    25    1
44    24    50    1
45    24    51    1
46    25    26    1
47    25    33    1
48    25    27    1
49    27    28    1
50    27    52    1
51    27    53    1
52    28    29    1
53    28    54    1
54    28    55    1
55    29    30    1
56    29    56    1
57    29    57    1
58    30    31    1
59    30    32    1
60    30    33    1
61    33    58    1
62    33    59    1
@<TRIPOS>SUBSTRUCTURE
1   ZINC000034285211 1     RESIDUE    1   A     ZIN   1
