@<TRIPOS>MOLECULE
ZINC000003870533
80    82    1     0     0
SMALL
USER_CHARGES
@<TRIPOS>ATOM
1      C1      0.1284    1.4492    0.2097 C.3      1 ZINC000003870533   -0.1900
2      C2      0.0190   -0.0668    0.0349 C.3      1 ZINC000003870533   -0.0200
3      N3      0.5762   -0.4508   -1.2689 N.4      1 ZINC000003870533   -0.3900
4      H4      0.1244    0.0811   -1.9976 H        1 ZINC000003870533    0.4200
5      C5      2.0192   -0.1759   -1.2850 C.3      1 ZINC000003870533   -0.0100
6      C6      2.5730   -0.4396   -2.6866 C.3      1 ZINC000003870533   -0.1900
7      C7      0.3482   -1.8842   -1.4959 C.3      1 ZINC000003870533   -0.0100
8      C8     -1.1545   -2.1508   -1.6035 C.3      1 ZINC000003870533   -0.1400
9      C9     -1.3919   -3.6437   -1.8399 C.3      1 ZINC000003870533   -0.1300
10     C10    -2.8947   -3.9103   -1.9475 C.3      1 ZINC000003870533    0.1400
11     N11    -3.1220   -5.3397   -2.1738 N.pl3    1 ZINC000003870533   -0.7000
12     C12    -4.4103   -5.8223   -2.3045 C.ar     1 ZINC000003870533    0.5900
13     N13    -5.4244   -4.9637   -2.2256 N.ar     1 ZINC000003870533   -0.5700
14     C14    -6.6743   -5.3647   -2.3431 C.ar     1 ZINC000003870533    0.2700
15     C15    -6.9226   -6.7313   -2.5556 C.ar     1 ZINC000003870533   -0.2900
16     C16    -8.2261   -7.2366   -2.6914 C.ar     1 ZINC000003870533    0.0400
17     C17    -8.3765   -8.5984   -2.8991 C.ar     1 ZINC000003870533   -0.1500
18     C18    -9.7293   -9.1866   -3.0499 C.ar     1 ZINC000003870533    0.0300
19     C19   -10.0060  -10.0362   -4.1191 C.ar     1 ZINC000003870533   -0.2000
20     C20   -11.2710  -10.5841   -4.2571 C.ar     1 ZINC000003870533    0.1800
21     O21   -11.5416  -11.4131   -5.2993 O.3      1 ZINC000003870533   -0.3100
22     C22   -12.8665  -11.9423   -5.3803 C.3      1 ZINC000003870533    0.0200
23     C23   -12.2616  -10.2877   -3.3323 C.ar     1 ZINC000003870533   -0.2900
24     C24   -11.9894   -9.4422   -2.2666 C.ar     1 ZINC000003870533    0.1800
25     O25   -12.9625   -9.1548   -1.3626 O.3      1 ZINC000003870533   -0.3100
26     C26   -14.2410   -9.7579   -1.5716 C.3      1 ZINC000003870533    0.0200
27     C27   -10.7249   -8.8955   -2.1196 C.ar     1 ZINC000003870533   -0.1700
28     C28    -7.2316   -9.4207   -2.9663 C.ar     1 ZINC000003870533    0.4800
29     N29    -7.3868  -10.7835   -3.1743 N.am     1 ZINC000003870533   -0.6600
30     C30    -6.3036  -11.5826   -3.2411 C.2      1 ZINC000003870533    0.6900
31     O31    -5.1905  -11.1092   -3.1190 O.2      1 ZINC000003870533   -0.5100
32     N32    -6.4544  -12.9066   -3.4432 N.am     1 ZINC000003870533   -0.7300
33     C33    -5.2769  -13.7753   -3.5157 C.3      1 ZINC000003870533    0.1900
34     C34    -4.4973  -13.6883   -2.2021 C.3      1 ZINC000003870533   -0.1700
35     C35    -5.7227  -15.2201   -3.7495 C.3      1 ZINC000003870533   -0.1600
36     C36    -4.3811  -13.3246   -4.6713 C.3      1 ZINC000003870533   -0.1700
37     N37    -6.0188   -8.9231   -2.8364 N.ar     1 ZINC000003870533   -0.4800
38     C38    -5.8177   -7.6195   -2.6345 C.ar     1 ZINC000003870533    0.4300
39     N39    -4.5844   -7.1146   -2.5077 N.ar     1 ZINC000003870533   -0.5600
40     H40     1.1790    1.7329    0.2727 H        1 ZINC000003870533    0.0800
41     H41    -0.3320    1.9475   -0.6434 H        1 ZINC000003870533    0.0800
42     H42    -0.3838    1.7474    1.1245 H        1 ZINC000003870533    0.1100
43     H43     0.5754   -0.5652    0.8288 H        1 ZINC000003870533    0.1300
44     H44    -1.0286   -0.3635    0.0840 H        1 ZINC000003870533    0.1300
45     H45     2.1936    0.8657   -1.0153 H        1 ZINC000003870533    0.1300
46     H46     2.5208   -0.8258   -0.5679 H        1 ZINC000003870533    0.1300
47     H47     2.4989   -1.5034   -2.9124 H        1 ZINC000003870533    0.0800
48     H48     1.9971    0.1280   -3.4175 H        1 ZINC000003870533    0.0800
49     H49     3.6177   -0.1312   -2.7284 H        1 ZINC000003870533    0.1100
50     H50     0.8383   -2.1880   -2.4209 H        1 ZINC000003870533    0.1300
51     H51     0.7596   -2.4539   -0.6626 H        1 ZINC000003870533    0.1300
52     H52    -1.6446   -1.8469   -0.6785 H        1 ZINC000003870533    0.0900
53     H53    -1.5658   -1.5811   -2.4368 H        1 ZINC000003870533    0.0900
54     H54    -0.9019   -3.9475   -2.7649 H        1 ZINC000003870533    0.0800
55     H55    -0.9806   -4.2134   -1.0066 H        1 ZINC000003870533    0.0800
56     H56    -3.3848   -3.6064   -1.0225 H        1 ZINC000003870533    0.0700
57     H57    -3.3060   -3.3406   -2.7808 H        1 ZINC000003870533    0.0700
58     H58    -2.3683   -5.9475   -2.2320 H        1 ZINC000003870533    0.4200
59     H59    -7.4893   -4.6591   -2.2770 H        1 ZINC000003870533    0.1800
60     H60    -9.0847   -6.5840   -2.6353 H        1 ZINC000003870533    0.1600
61     H61    -9.2353  -10.2670   -4.8396 H        1 ZINC000003870533    0.1400
62     H62   -12.9476  -12.5866   -6.2558 H        1 ZINC000003870533    0.1100
63     H63   -13.0822  -12.5210   -4.4822 H        1 ZINC000003870533    0.0600
64     H64   -13.5805  -11.1230   -5.4648 H        1 ZINC000003870533    0.0600
65     H65   -13.2470  -10.7158   -3.4423 H        1 ZINC000003870533    0.1400
66     H66   -14.9235   -9.4463   -0.7809 H        1 ZINC000003870533    0.1100
67     H67   -14.6369   -9.4447   -2.5377 H        1 ZINC000003870533    0.0600
68     H68   -14.1378  -10.8429   -1.5558 H        1 ZINC000003870533    0.0600
69     H69   -10.5136   -8.2374   -1.2898 H        1 ZINC000003870533    0.1400
70     H70    -8.2749  -11.1612   -3.2717 H        1 ZINC000003870533    0.4200
71     H71    -7.3425  -13.2843   -3.5406 H        1 ZINC000003870533    0.4000
72     H72    -5.1355  -14.0093   -1.3789 H        1 ZINC000003870533    0.0500
73     H73    -3.6212  -14.3346   -2.2561 H        1 ZINC000003870533    0.0600
74     H74    -4.1797  -12.6590   -2.0356 H        1 ZINC000003870533    0.0800
75     H75    -6.2782  -15.2821   -4.6853 H        1 ZINC000003870533    0.0600
76     H76    -4.8467  -15.8664   -3.8034 H        1 ZINC000003870533    0.0800
77     H77    -6.3609  -15.5411   -2.9262 H        1 ZINC000003870533    0.0600
78     H78    -4.0635  -12.2953   -4.5047 H        1 ZINC000003870533    0.0800
79     H79    -3.5051  -13.9710   -4.7253 H        1 ZINC000003870533    0.0600
80     H80    -4.9366  -13.3866   -5.6071 H        1 ZINC000003870533    0.0500
@<TRIPOS>BOND
1     1     2     1
2     1     40    1
3     1     41    1
4     1     42    1
5     2     3     1
6     2     43    1
7     2     44    1
8     3     4     1
9     3     5     1
10    3     7     1
11    5     6     1
12    5     45    1
13    5     46    1
14    6     47    1
15    6     48    1
16    6     49    1
17    7     8     1
18    7     50    1
19    7     51    1
20    8     9     1
21    8     52    1
22    8     53    1
23    9     10    1
24    9     54    1
25    9     55    1
26    10    11    1
27    10    56    1
28    10    57    1
29    11    12    1
30    11    58    1
31    12    39    ar
32    12    13    ar
33    13    14    ar
34    14    15    ar
35    14    59    1
36    15    38    ar
37    15    16    ar
38    16    17    ar
39    16    60    1
40    17    18    1
41    17    28    ar
42    18    27    ar
43    18    19    ar
44    19    20    ar
45    19    61    1
46    20    21    1
47    20    23    ar
48    21    22    1
49    22    62    1
50    22    63    1
51    22    64    1
52    23    24    ar
53    23    65    1
54    24    25    1
55    24    27    ar
56    25    26    1
57    26    66    1
58    26    67    1
59    26    68    1
60    27    69    1
61    28    29    1
62    28    37    ar
63    29    30    am
64    29    70    1
65    30    31    2
66    30    32    am
67    32    33    1
68    32    71    1
69    33    34    1
70    33    35    1
71    33    36    1
72    34    72    1
73    34    73    1
74    34    74    1
75    35    75    1
76    35    76    1
77    35    77    1
78    36    78    1
79    36    79    1
80    36    80    1
81    37    38    ar
82    38    39    ar
@<TRIPOS>SUBSTRUCTURE
1   ZINC000003870533 1     RESIDUE    1   A     ZIN   1
