@<TRIPOS>MOLECULE
ZINC000068245464
52    54    1     0     0
SMALL
USER_CHARGES
@<TRIPOS>ATOM
1      N1     -0.0178    1.4648    0.0101 N.3      1 ZINC000068245464   -0.8300
2      C2      0.0021   -0.0041    0.0020 C.3      1 ZINC000068245464    0.0900
3      H3      0.5890   -0.3641    0.8470 H        1 ZINC000068245464    0.1000
4      C4     -1.4289   -0.5341    0.1123 C.3      1 ZINC000068245464   -0.1400
5      C5     -2.0049   -0.1506    1.4510 C.2      1 ZINC000068245464    0.5300
6      O6     -1.3367    0.4842    2.2393 O.2      1 ZINC000068245464   -0.4900
7      N7     -3.2626   -0.5130    1.7723 N.am     1 ZINC000068245464   -0.6300
8      C8     -3.8557   -0.1483    3.0695 C.3      1 ZINC000068245464    0.1100
9      C9     -5.0348    0.7879    2.8036 C.3      1 ZINC000068245464   -0.1200
10     C10    -5.9096    0.2442    1.7089 C.ar     1 ZINC000068245464   -0.0900
11     C11    -5.4814   -0.7005    0.8021 C.ar     1 ZINC000068245464    0.1800
12     C12    -4.0962   -1.2813    0.8401 C.3      1 ZINC000068245464    0.1600
13     N13    -6.3196   -1.1162   -0.1406 N.ar     1 ZINC000068245464   -0.4500
14     C14    -7.5467   -0.6455   -0.2130 C.ar     1 ZINC000068245464    0.2400
15     C15    -8.4635   -1.1467   -1.2989 C.3      1 ZINC000068245464    0.5500
16     F16    -9.3985   -2.0301   -0.7489 F        1 ZINC000068245464   -0.1600
17     F17    -9.1313   -0.0644   -1.8819 F        1 ZINC000068245464   -0.1500
18     F18    -7.7118   -1.8110   -2.2741 F        1 ZINC000068245464   -0.1500
19     N19    -7.9933    0.2534    0.6414 N.ar     1 ZINC000068245464   -0.4300
20     C20    -7.2138    0.7162    1.6031 C.ar     1 ZINC000068245464    0.0900
21     C21    -7.7322    1.7450    2.5746 C.3      1 ZINC000068245464    0.5300
22     F22    -9.0915    1.9713    2.3329 F        1 ZINC000068245464   -0.1500
23     F23    -7.5625    1.2786    3.8825 F        1 ZINC000068245464   -0.1600
24     F24    -7.0240    2.9403    2.4101 F        1 ZINC000068245464   -0.1600
25     C25     0.6299   -0.4984   -1.3027 C.3      1 ZINC000068245464    0.0700
26     N26     1.9550    0.1046   -1.4662 N.am     1 ZINC000068245464   -0.6000
27     C27     2.0435    1.3795   -2.1671 C.3      1 ZINC000068245464    0.0700
28     C28     3.3651    2.0775   -1.8438 C.3      1 ZINC000068245464    0.2800
29     F29     3.5290    3.1844   -2.6834 F        1 ZINC000068245464   -0.1800
30     F30     3.3599    2.4974   -0.5093 F        1 ZINC000068245464   -0.1900
31     C31     4.5124    1.0856   -2.0701 C.3      1 ZINC000068245464   -0.1600
32     C32     4.4101   -0.0209   -1.0174 C.3      1 ZINC000068245464   -0.1300
33     C33     3.0039   -0.5446   -0.9598 C.2      1 ZINC000068245464    0.5200
34     O34     2.8129   -1.6193   -0.4312 O.2      1 ZINC000068245464   -0.5300
35     H35     0.9191    1.8392    0.0032 H        1 ZINC000068245464    0.3500
36     H36    -0.5563    1.8234   -0.7642 H        1 ZINC000068245464    0.3300
37     H37    -2.0382   -0.1034   -0.6823 H        1 ZINC000068245464    0.1000
38     H38    -1.4225   -1.6200    0.0171 H        1 ZINC000068245464    0.1100
39     H39    -4.2056   -1.0455    3.5800 H        1 ZINC000068245464    0.0800
40     H40    -3.1130    0.3602    3.6843 H        1 ZINC000068245464    0.1200
41     H41    -5.6233    0.8918    3.7151 H        1 ZINC000068245464    0.1100
42     H42    -4.6565    1.7664    2.5080 H        1 ZINC000068245464    0.1100
43     H43    -3.6594   -1.2445   -0.1579 H        1 ZINC000068245464    0.1200
44     H44    -4.1457   -2.3168    1.1768 H        1 ZINC000068245464    0.1100
45     H45     0.7261   -1.5837   -1.2713 H        1 ZINC000068245464    0.1000
46     H46    -0.0048   -0.2140   -2.1420 H        1 ZINC000068245464    0.0800
47     H47     1.9815    1.2052   -3.2413 H        1 ZINC000068245464    0.1000
48     H48     1.2146    2.0175   -1.8605 H        1 ZINC000068245464    0.1000
49     H49     4.4316    0.6523   -3.0670 H        1 ZINC000068245464    0.1100
50     H50     5.4679    1.6005   -1.9696 H        1 ZINC000068245464    0.1100
51     H51     5.0906   -0.8318   -1.2772 H        1 ZINC000068245464    0.1200
52     H52     4.6835    0.3811   -0.0419 H        1 ZINC000068245464    0.1100
@<TRIPOS>BOND
1     1     2     1
2     1     35    1
3     1     36    1
4     2     3     1
5     2     4     1
6     2     25    1
7     4     5     1
8     4     37    1
9     4     38    1
10    5     6     2
11    5     7     am
12    7     12    1
13    7     8     1
14    8     9     1
15    8     39    1
16    8     40    1
17    9     10    1
18    9     41    1
19    9     42    1
20    10    20    ar
21    10    11    ar
22    11    12    1
23    11    13    ar
24    12    43    1
25    12    44    1
26    13    14    ar
27    14    15    1
28    14    19    ar
29    15    16    1
30    15    17    1
31    15    18    1
32    19    20    ar
33    20    21    1
34    21    22    1
35    21    23    1
36    21    24    1
37    25    26    1
38    25    45    1
39    25    46    1
40    26    33    am
41    26    27    1
42    27    28    1
43    27    47    1
44    27    48    1
45    28    29    1
46    28    30    1
47    28    31    1
48    31    32    1
49    31    49    1
50    31    50    1
51    32    33    1
52    32    51    1
53    32    52    1
54    33    34    2
@<TRIPOS>SUBSTRUCTURE
1   ZINC000068245464 1     RESIDUE    1   A     ZIN   1
