@<TRIPOS>MOLECULE
ZINC000036486826
68    70    1     0     0
SMALL
USER_CHARGES
@<TRIPOS>ATOM
1      C1      1.0834   -0.6095    3.1955 C.3      1 ZINC000036486826   -0.1500
2      C2      0.5862   -1.2154    1.8816 C.3      1 ZINC000036486826   -0.1300
3      C3     -0.8258   -1.7709    2.0782 C.3      1 ZINC000036486826   -0.1200
4      C4     -1.3231   -2.3768    0.7642 C.3      1 ZINC000036486826   -0.1200
5      C5     -2.7350   -2.9323    0.9609 C.3      1 ZINC000036486826   -0.1400
6      C6     -3.2323   -3.5382   -0.3531 C.3      1 ZINC000036486826    0.1500
7      H7     -2.5173   -4.2826   -0.7035 H        1 ZINC000036486826    0.1100
8      O8     -3.3649   -2.5068   -1.3332 O.3      1 ZINC000036486826   -0.5500
9      C9     -4.5707   -4.1936   -0.1293 C.ar     1 ZINC000036486826   -0.1100
10     C10    -5.7281   -3.4400   -0.1983 C.ar     1 ZINC000036486826   -0.1000
11     C11    -6.9563   -4.0376    0.0063 C.ar     1 ZINC000036486826   -0.1000
12     C12    -7.0282   -5.3969    0.2812 C.ar     1 ZINC000036486826    0.1500
13     N13    -8.2710   -6.0055    0.4885 N.am     1 ZINC000036486826   -0.5700
14     C14    -9.2125   -6.1497   -0.4599 C.2      1 ZINC000036486826    0.5200
15     O15    -9.1026   -5.7800   -1.6098 O.2      1 ZINC000036486826   -0.5200
16     C16   -10.4291   -6.8408    0.1154 C.3      1 ZINC000036486826   -0.1500
17     C17   -10.2466   -6.7178    1.6460 C.3      1 ZINC000036486826   -0.1200
18     C18    -8.7115   -6.5740    1.7678 C.3      1 ZINC000036486826    0.1400
19     H19    -8.2532   -7.5492    1.9320 H        1 ZINC000036486826    0.1000
20     C20    -8.3580   -5.6240    2.9139 C.3      1 ZINC000036486826    0.0500
21     O21    -9.0120   -4.3697    2.7118 O.3      1 ZINC000036486826   -0.3700
22     C22    -8.7469   -3.4049    3.7321 C.3      1 ZINC000036486826    0.1300
23     C23    -9.4828   -2.1276    3.4191 C.2      1 ZINC000036486826   -0.2000
24     C24   -10.7232   -1.8453    3.8356 C.2      1 ZINC000036486826   -0.1300
25     C25   -11.2078   -0.6225    3.4378 C.2      1 ZINC000036486826   -0.0400
26     C26   -10.3206    0.0899    2.6792 C.2      1 ZINC000036486826   -0.2600
27     C27   -10.5600    1.4204    2.1175 C.2      1 ZINC000036486826    0.5400
28     O28   -11.6212    1.9814    2.3138 O.2      1 ZINC000036486826   -0.5000
29     O29    -9.6036    2.0243    1.3824 O.3      1 ZINC000036486826   -0.3500
30     C30    -9.9101    3.3428    0.8571 C.3      1 ZINC000036486826    0.0800
31     C31    -8.6199    4.1562    0.7364 C.3      1 ZINC000036486826   -0.1500
32     C32   -10.5568    3.2044   -0.5226 C.3      1 ZINC000036486826   -0.1700
33     S33    -8.8434   -0.8454    2.4927 S.3      1 ZINC000036486826    0.2700
34     C34    -5.8641   -6.1511    0.3493 C.ar     1 ZINC000036486826   -0.1200
35     C35    -4.6393   -5.5484    0.1390 C.ar     1 ZINC000036486826   -0.1000
36     H36     2.0893   -0.2138    3.0554 H        1 ZINC000036486826    0.0500
37     H37     0.4152    0.1961    3.5000 H        1 ZINC000036486826    0.0500
38     H38     1.0999   -1.3791    3.9672 H        1 ZINC000036486826    0.0500
39     H39     0.5697   -0.4459    1.1098 H        1 ZINC000036486826    0.0600
40     H40     1.2544   -2.0210    1.5771 H        1 ZINC000036486826    0.0600
41     H41    -0.8093   -2.5405    2.8499 H        1 ZINC000036486826    0.0600
42     H42    -1.4940   -0.9653    2.3826 H        1 ZINC000036486826    0.0600
43     H43    -1.3396   -1.6073   -0.0075 H        1 ZINC000036486826    0.0700
44     H44    -0.6549   -3.1824    0.4598 H        1 ZINC000036486826    0.0600
45     H45    -2.7185   -3.7019    1.7326 H        1 ZINC000036486826    0.0700
46     H46    -3.4032   -2.1267    1.2653 H        1 ZINC000036486826    0.0700
47     H47    -3.9870   -1.8085   -1.0876 H        1 ZINC000036486826    0.3700
48     H48    -5.6715   -2.3828   -0.4121 H        1 ZINC000036486826    0.1200
49     H49    -7.8598   -3.4483   -0.0470 H        1 ZINC000036486826    0.1300
50     H50   -11.3409   -6.3349   -0.2019 H        1 ZINC000036486826    0.1100
51     H51   -10.4494   -7.8888   -0.1833 H        1 ZINC000036486826    0.1100
52     H52   -10.7568   -5.8344    2.0299 H        1 ZINC000036486826    0.1000
53     H53   -10.5929   -7.6180    2.1537 H        1 ZINC000036486826    0.0900
54     H54    -8.6863   -6.0568    3.8589 H        1 ZINC000036486826    0.0700
55     H55    -7.2791   -5.4713    2.9396 H        1 ZINC000036486826    0.0600
56     H56    -9.0833   -3.7916    4.6941 H        1 ZINC000036486826    0.0700
57     H57    -7.6760   -3.2061    3.7747 H        1 ZINC000036486826    0.0600
58     H58   -11.3012   -2.5288    4.4399 H        1 ZINC000036486826    0.1500
59     H59   -12.1914   -0.2603    3.6980 H        1 ZINC000036486826    0.1600
60     H60   -10.5987    3.8516    1.5316 H        1 ZINC000036486826    0.0900
61     H61    -7.9314    3.6474    0.0618 H        1 ZINC000036486826    0.0700
62     H62    -8.8500    5.1460    0.3420 H        1 ZINC000036486826    0.0800
63     H63    -8.1593    4.2548    1.7193 H        1 ZINC000036486826    0.0700
64     H64   -11.4759    2.6248   -0.4367 H        1 ZINC000036486826    0.0600
65     H65   -10.7868    4.1941   -0.9170 H        1 ZINC000036486826    0.0800
66     H66    -9.8682    2.6955   -1.1972 H        1 ZINC000036486826    0.0700
67     H67    -5.9167   -7.2085    0.5629 H        1 ZINC000036486826    0.1300
68     H68    -3.7336   -6.1343    0.1918 H        1 ZINC000036486826    0.1300
@<TRIPOS>BOND
1     1     2     1
2     1     36    1
3     1     37    1
4     1     38    1
5     2     3     1
6     2     39    1
7     2     40    1
8     3     4     1
9     3     41    1
10    3     42    1
11    4     5     1
12    4     43    1
13    4     44    1
14    5     6     1
15    5     45    1
16    5     46    1
17    6     7     1
18    6     8     1
19    6     9     1
20    8     47    1
21    9     35    ar
22    9     10    ar
23    10    11    ar
24    10    48    1
25    11    12    ar
26    11    49    1
27    12    13    1
28    12    34    ar
29    13    18    1
30    13    14    am
31    14    15    2
32    14    16    1
33    16    17    1
34    16    50    1
35    16    51    1
36    17    18    1
37    17    52    1
38    17    53    1
39    18    19    1
40    18    20    1
41    20    21    1
42    20    54    1
43    20    55    1
44    21    22    1
45    22    23    1
46    22    56    1
47    22    57    1
48    23    33    1
49    23    24    2
50    24    25    1
51    24    58    1
52    25    26    2
53    25    59    1
54    26    27    1
55    26    33    1
56    27    28    2
57    27    29    1
58    29    30    1
59    30    31    1
60    30    32    1
61    30    60    1
62    31    61    1
63    31    62    1
64    31    63    1
65    32    64    1
66    32    65    1
67    32    66    1
68    34    35    ar
69    34    67    1
70    35    68    1
@<TRIPOS>SUBSTRUCTURE
1   ZINC000036486826 1     RESIDUE    1   A     ZIN   1
