@<TRIPOS>MOLECULE
ZINC000032816695
  50   51    0    0    0
SMALL
USER_CHARGES
NO_NAME
@<TRIPOS>ATOM
    1 C1       -0.0173     1.4248     0.0099 C.3    1 <0>       0.0200
    2 O2        0.0021    -0.0041     0.0020 O.3    1 <0>      -0.3100
    3 C3        0.6256    -0.6181     1.0411 C.ar   1 <0>       0.2200
    4 C4        1.2009     0.1431     2.0490 C.ar   1 <0>      -0.3400
    5 C5        1.8372    -0.4761     3.1107 C.ar   1 <0>       0.2300
    6 O6        2.3993     0.2703     4.0964 O.3    1 <0>      -0.3000
    7 C7        2.2964     1.6903     3.9738 C.3    1 <0>       0.0200
    8 C8        1.8998    -1.8739     3.1665 C.ar   1 <0>      -0.2000
    9 C9        2.5764    -2.5411     4.2959 C.2    1 <0>       0.0900
   10 C10       1.9629    -3.5161     4.9546 C.2    1 <0>      -0.7300
   11 S11       2.7705    -4.3125     6.3029 S.o2   1 <0>       2.4800
   12 O12       2.6581    -5.6984     6.0096 O.2    1 <0>      -0.9300
   13 O13       4.0408    -3.6795     6.3739 O.2    1 <0>      -0.9400
   14 C14       1.7642    -3.8845     7.7502 C.3    1 <0>      -0.5500
   15 C15       2.3612    -4.5156     8.9816 C.ar   1 <0>      -0.0800
   16 C16       1.9690    -5.7841     9.3653 C.ar   1 <0>      -0.1200
   17 C17       2.5138    -6.3687    10.4944 C.ar   1 <0>      -0.1600
   18 C18       3.4547    -5.6832    11.2439 C.ar   1 <0>       0.0600
   19 O19       3.9916    -6.2570    12.3541 O.3    1 <0>      -0.3200
   20 C20       3.5388    -7.5703    12.6891 C.3    1 <0>       0.0300
   21 C21       3.8508    -4.4041    10.8578 C.ar   1 <0>       0.2000
   22 N22       4.8019    -3.7066    11.6113 N.pl3  1 <0>      -0.8700
   23 C23       3.3041    -3.8264     9.7216 C.ar   1 <0>      -0.1500
   24 C24       1.3174    -2.6359     2.1462 C.ar   1 <0>       0.2300
   25 O25       1.3733    -3.9922     2.1931 O.3    1 <0>      -0.3000
   26 C26       0.7576    -4.7044     1.1181 C.3    1 <0>       0.0200
   27 C27       0.6795    -2.0040     1.0930 C.ar   1 <0>      -0.2800
   28 H28       1.0053     1.8021     0.0021 H      1 <0>       0.0600
   29 H29      -0.5445     1.7859    -0.8732 H      1 <0>       0.1100
   30 H30      -0.5275     1.7763     0.9067 H      1 <0>       0.0600
   31 H31       1.1521     1.2211     2.0046 H      1 <0>       0.1400
   32 H32       2.7802     2.0113     3.0513 H      1 <0>       0.0600
   33 H33       1.2452     1.9779     3.9519 H      1 <0>       0.0600
   34 H34       2.7852     2.1648     4.8246 H      1 <0>       0.1100
   35 H35       3.5709    -2.2358     4.5862 H      1 <0>       0.1500
   36 H36       0.9684    -3.8214     4.6643 H      1 <0>       0.1600
   37 H37       1.7433    -2.8014     7.8707 H      1 <0>       0.1400
   38 H38       0.7485    -4.2539     7.6086 H      1 <0>       0.1400
   39 H39       1.2349    -6.3203     8.7821 H      1 <0>       0.1300
   40 H40       2.2048    -7.3600    10.7916 H      1 <0>       0.1300
   41 H41       3.7636    -8.2523    11.8690 H      1 <0>       0.0600
   42 H42       4.0448    -7.9095    13.5929 H      1 <0>       0.1000
   43 H43       2.4625    -7.5508    12.8608 H      1 <0>       0.0600
   44 H44       5.1864    -4.1135    12.4034 H      1 <0>       0.4000
   45 H45       5.0767    -2.8164    11.3413 H      1 <0>       0.4000
   46 H46       3.6091    -2.8354     9.4194 H      1 <0>       0.1400
   47 H47       0.8742    -5.7762     1.2784 H      1 <0>       0.1100
   48 H48      -0.3030    -4.4563     1.0781 H      1 <0>       0.0600
   49 H49       1.2321    -4.4240     0.1776 H      1 <0>       0.0600
   50 H50       0.2298    -2.5906     0.3054 H      1 <0>       0.1400
@<TRIPOS>BOND
   1    1    2 1
   2    1   28 1
   3    1   29 1
   4    1   30 1
   5    2    3 1
   6    3   27 ar
   7    3    4 ar
   8    4    5 ar
   9    4   31 1
  10    5    6 1
  11    5    8 ar
  12    6    7 1
  13    7   32 1
  14    7   33 1
  15    7   34 1
  16    8    9 1
  17    8   24 ar
  18    9   10 2
  19    9   35 1
  20   10   11 1
  21   10   36 1
  22   11   12 2
  23   11   13 2
  24   11   14 1
  25   14   15 1
  26   14   37 1
  27   14   38 1
  28   15   23 ar
  29   15   16 ar
  30   16   17 ar
  31   16   39 1
  32   17   18 ar
  33   17   40 1
  34   18   19 1
  35   18   21 ar
  36   19   20 1
  37   20   41 1
  38   20   42 1
  39   20   43 1
  40   21   22 1
  41   21   23 ar
  42   22   44 1
  43   22   45 1
  44   23   46 1
  45   24   25 1
  46   24   27 ar
  47   25   26 1
  48   26   47 1
  49   26   48 1
  50   26   49 1
  51   27   50 1
