@<TRIPOS>MOLECULE
ZINC000043208226
60    63    1     0     0
SMALL
USER_CHARGES
@<TRIPOS>ATOM
1      C1     -1.5498   -0.9940   -0.0863 C.3      1 ZINC000043208226   -0.1400
2      C2     -0.4489   -2.0159   -0.3774 C.3      1 ZINC000043208226   -0.0300
3      C3     -1.0788   -3.3111   -0.8936 C.3      1 ZINC000043208226   -0.1400
4      C4      0.4874   -1.4622   -1.4204 C.ar     1 ZINC000043208226   -0.2500
5      C5      0.0051   -1.1213   -2.6625 C.ar     1 ZINC000043208226   -0.0100
6      C6      0.8723   -0.6068   -3.6316 C.ar     1 ZINC000043208226   -0.3000
7      C7      0.3597   -0.2400   -4.9629 C.2      1 ZINC000043208226    0.6100
8      O8      0.9820   -0.5501   -5.9608 O.2      1 ZINC000043208226   -0.5300
9      N9     -0.7990    0.4391   -5.0752 N.am     1 ZINC000043208226   -0.6300
10     C10    -1.6028    0.9828   -3.9759 C.3      1 ZINC000043208226    0.1500
11     C11    -2.8076    1.6590   -4.5797 C.ar     1 ZINC000043208226   -0.1000
12     C12    -3.8701    2.3235   -3.9923 C.ar     1 ZINC000043208226   -0.1000
13     C13    -4.8687    2.8655   -4.7788 C.ar     1 ZINC000043208226   -0.1100
14     C14    -4.8066    2.7440   -6.1542 C.ar     1 ZINC000043208226   -0.0900
15     C15    -5.8947    3.3351   -7.0131 C.3      1 ZINC000043208226    0.1000
16     N16    -5.5439    4.7173   -7.3656 N.3      1 ZINC000043208226   -0.5300
17     C17    -5.0751    5.4587   -6.1865 C.3      1 ZINC000043208226    0.0500
18     C18    -4.6456    6.8655   -6.6093 C.3      1 ZINC000043208226    0.0600
19     N19    -5.7803    7.5518   -7.2425 N.3      1 ZINC000043208226   -0.5500
20     C20    -5.4294    8.9340   -7.5950 C.3      1 ZINC000043208226    0.0200
21     C21    -6.2490    6.8104   -8.4216 C.3      1 ZINC000043208226    0.0600
22     C22    -6.6786    5.4036   -7.9988 C.3      1 ZINC000043208226    0.0600
23     C23    -3.7460    2.0806   -6.7413 C.ar     1 ZINC000043208226   -0.0800
24     C24    -2.7456    1.5376   -5.9541 C.ar     1 ZINC000043208226   -0.1000
25     C25    -1.4937    0.7812   -6.3204 C.3      1 ZINC000043208226    0.1500
26     C26     2.2325   -0.4411   -3.3304 C.ar     1 ZINC000043208226    0.3200
27     O27     3.0807    0.0576   -4.2643 O.3      1 ZINC000043208226   -0.6900
28     C28     2.7059   -0.7880   -2.0765 C.ar     1 ZINC000043208226   -0.2800
29     C29     1.8361   -1.2923   -1.1213 C.ar     1 ZINC000043208226    0.1600
30     O30     2.3038   -1.6307    0.1069 O.3      1 ZINC000043208226   -0.5100
31     H31    -1.1010   -0.0713    0.2814 H        1 ZINC000043208226    0.0500
32     H32    -2.1056   -0.7883   -1.0011 H        1 ZINC000043208226    0.0500
33     H33    -2.2270   -1.3945    0.6680 H        1 ZINC000043208226    0.0400
34     H34     0.1070   -2.2216    0.5374 H        1 ZINC000043208226    0.0700
35     H35    -1.6347   -3.1054   -1.8084 H        1 ZINC000043208226    0.0500
36     H36    -0.2945   -4.0391   -1.1010 H        1 ZINC000043208226    0.0500
37     H37    -1.7560   -3.7116   -0.1393 H        1 ZINC000043208226    0.0400
38     H38    -1.0428   -1.2511   -2.8895 H        1 ZINC000043208226    0.1000
39     H39    -1.9235    0.1750   -3.3181 H        1 ZINC000043208226    0.0800
40     H40    -1.0157    1.7081   -3.4126 H        1 ZINC000043208226    0.0800
41     H41    -3.9190    2.4183   -2.9176 H        1 ZINC000043208226    0.1300
42     H42    -5.6974    3.3835   -4.3190 H        1 ZINC000043208226    0.1200
43     H43    -6.0010    2.7440   -7.9227 H        1 ZINC000043208226    0.0800
44     H44    -6.8358    3.3280   -6.4633 H        1 ZINC000043208226    0.0400
45     H45    -5.8817    5.5287   -5.4566 H        1 ZINC000043208226    0.0400
46     H46    -4.2269    4.9375   -5.7427 H        1 ZINC000043208226    0.0900
47     H47    -4.3247    7.4269   -5.7318 H        1 ZINC000043208226    0.0800
48     H48    -3.8208    6.7961   -7.3186 H        1 ZINC000043208226    0.0400
49     H49    -4.5909    8.9298   -8.2913 H        1 ZINC000043208226    0.0300
50     H50    -6.2869    9.4188   -8.0618 H        1 ZINC000043208226    0.0700
51     H51    -5.1502    9.4792   -6.6934 H        1 ZINC000043208226    0.0700
52     H52    -7.0973    7.3317   -8.8654 H        1 ZINC000043208226    0.0800
53     H53    -5.4425    6.7404   -9.1515 H        1 ZINC000043208226    0.0400
54     H54    -6.9994    4.8422   -8.8763 H        1 ZINC000043208226    0.0800
55     H55    -7.5034    5.4730   -7.2895 H        1 ZINC000043208226    0.0400
56     H56    -3.6979    1.9855   -7.8160 H        1 ZINC000043208226    0.1200
57     H57    -0.8537    1.4059   -6.9435 H        1 ZINC000043208226    0.0800
58     H58    -1.7566   -0.1305   -6.8568 H        1 ZINC000043208226    0.0700
59     H59     3.7524   -0.6622   -1.8409 H        1 ZINC000043208226    0.1100
60     H60     2.2790   -0.9088    0.7499 H        1 ZINC000043208226    0.3800
@<TRIPOS>BOND
1     1     2     1
2     1     31    1
3     1     32    1
4     1     33    1
5     2     3     1
6     2     4     1
7     2     34    1
8     3     35    1
9     3     36    1
10    3     37    1
11    4     29    ar
12    4     5     ar
13    5     6     ar
14    5     38    1
15    6     7     1
16    6     26    ar
17    7     8     2
18    7     9     am
19    9     25    1
20    9     10    1
21    10    11    1
22    10    39    1
23    10    40    1
24    11    24    ar
25    11    12    ar
26    12    13    ar
27    12    41    1
28    13    14    ar
29    13    42    1
30    14    15    1
31    14    23    ar
32    15    16    1
33    15    43    1
34    15    44    1
35    16    22    1
36    16    17    1
37    17    18    1
38    17    45    1
39    17    46    1
40    18    19    1
41    18    47    1
42    18    48    1
43    19    20    1
44    19    21    1
45    20    49    1
46    20    50    1
47    20    51    1
48    21    22    1
49    21    52    1
50    21    53    1
51    22    54    1
52    22    55    1
53    23    24    ar
54    23    56    1
55    24    25    1
56    25    57    1
57    25    58    1
58    26    27    1
59    26    28    ar
60    28    29    ar
61    28    59    1
62    29    30    1
63    30    60    1
@<TRIPOS>SUBSTRUCTURE
1   ZINC000043208226 1     RESIDUE    1   A     ZIN   1
