@<TRIPOS>MOLECULE
ZINC000004228246
39    41    1     0     0
SMALL
USER_CHARGES
@<TRIPOS>ATOM
1      N1     -0.0167    1.3797    0.0096 N.pl3    1 ZINC000004228246   -0.8200
2      C2      0.0021   -0.0041    0.0020 C.ar     1 ZINC000004228246    0.5000
3      C3     -1.1953   -0.7393    0.0036 C.ar     1 ZINC000004228246   -0.1100
4      N4     -2.5111   -0.4171    0.0123 N.2      1 ZINC000004228246   -0.4700
5      C5     -3.2237   -1.5060    0.0097 C.2      1 ZINC000004228246    0.2800
6      N6     -2.4068   -2.5973   -0.0008 N.pl3    1 ZINC000004228246   -0.4700
7      C7     -2.8327   -3.9990   -0.0071 C.3      1 ZINC000004228246    0.3100
8      H8     -2.1541   -4.6024   -0.6100 H        1 ZINC000004228246    0.1200
9      O9     -4.1868   -4.1167   -0.4941 O.3      1 ZINC000004228246   -0.3400
10     C10    -4.6994   -5.3693   -0.0101 C.3      1 ZINC000004228246    0.0900
11     H11    -4.5330   -6.1497   -0.7527 H        1 ZINC000004228246    0.1100
12     C12    -6.1957   -5.2408    0.2827 C.3      1 ZINC000004228246    0.1400
13     O13    -6.9039   -5.0286   -0.9402 O.3      1 ZINC000004228246   -0.7500
14     P14    -8.5024   -4.8489   -1.0079 P.3      1 ZINC000004228246    2.1800
15     O15    -9.1856   -6.0581   -0.3311 O.co2    1 ZINC000004228246   -1.0500
16     O16    -8.9064   -3.5513   -0.2731 O.co2    1 ZINC000004228246   -1.0700
17     O17    -8.9679   -4.7615   -2.5467 O.3      1 ZINC000004228246   -1.0800
18     S18   -10.4689   -4.5900   -2.7306 S.o2     1 ZINC000004228246    2.7700
19     O19   -10.7575   -4.8885   -4.1247 O.co2    1 ZINC000004228246   -1.1000
20     O20   -11.1124   -5.5305   -1.8264 O.co2    1 ZINC000004228246   -1.0600
21     O21   -10.7779   -3.2093   -2.3926 O.co2    1 ZINC000004228246   -1.0800
22     C22    -3.9359   -5.7070    1.2851 C.3      1 ZINC000004228246    0.0500
23     H23    -4.6181   -5.7314    2.1348 H        1 ZINC000004228246    0.1000
24     O24    -3.2574   -6.9578    1.1541 O.3      1 ZINC000004228246   -0.5400
25     C25    -2.9154   -4.5508    1.4389 C.3      1 ZINC000004228246    0.0400
26     H26    -3.2907   -3.7890    2.1223 H        1 ZINC000004228246    0.0900
27     O27    -1.6475   -5.0443    1.8760 O.3      1 ZINC000004228246   -0.5300
28     C28    -1.1125   -2.1421   -0.0049 C.ar     1 ZINC000004228246    0.3100
29     N29     0.0849   -2.7183   -0.0145 N.ar     1 ZINC000004228246   -0.5400
30     C30     1.1806   -1.9886   -0.0159 C.ar     1 ZINC000004228246    0.3500
31     N31     1.1531   -0.6685   -0.0125 N.ar     1 ZINC000004228246   -0.6000
32     H32     0.8167    1.8761    0.0043 H        1 ZINC000004228246    0.4100
33     H33    -0.8632    1.8532    0.0162 H        1 ZINC000004228246    0.4200
34     H34    -4.3032   -1.5401    0.0154 H        1 ZINC000004228246    0.2300
35     H35    -6.5532   -6.1555    0.7556 H        1 ZINC000004228246    0.0800
36     H36    -6.3638   -4.3965    0.9512 H        1 ZINC000004228246    0.0600
37     H37    -2.7601   -7.2198    1.9409 H        1 ZINC000004228246    0.3800
38     H38    -1.6711   -5.4789    2.7395 H        1 ZINC000004228246    0.3800
39     H39     2.1380   -2.4885   -0.0238 H        1 ZINC000004228246    0.2000
@<TRIPOS>BOND
1     1     2     1
2     1     32    1
3     1     33    1
4     2     31    ar
5     2     3     ar
6     3     28    ar
7     3     4     1
8     4     5     2
9     5     6     1
10    5     34    1
11    6     7     1
12    6     28    1
13    7     8     1
14    7     25    1
15    7     9     1
16    9     10    1
17    10    11    1
18    10    12    1
19    10    22    1
20    12    13    1
21    12    35    1
22    12    36    1
23    13    14    1
24    14    15    ar
25    14    16    ar
26    14    17    1
27    17    18    1
28    18    19    ar
29    18    20    ar
30    18    21    ar
31    22    23    1
32    22    24    1
33    22    25    1
34    24    37    1
35    25    26    1
36    25    27    1
37    27    38    1
38    28    29    ar
39    29    30    ar
40    30    31    ar
41    30    39    1
@<TRIPOS>SUBSTRUCTURE
1   ZINC000004228246 1     RESIDUE    1   A     ZIN   1
