@<TRIPOS>MOLECULE
ZINC000029564143
  34   35    0    0    0
SMALL
USER_CHARGES
NO_NAME
@<TRIPOS>ATOM
    1 N1       -1.1773     0.0686     0.8896 N.4    1 <0>      -0.6400
    2 H2       -1.4732    -0.8432     1.2044 H      1 <0>       0.4400
    3 H3       -0.1787     0.0670     0.7453 H      1 <0>       0.4400
    4 H4       -1.6422     0.2922     0.0224 H      1 <0>       0.4400
    5 C5       -1.5238     1.0730     1.9041 C.3    1 <0>      -0.0100
    6 C6       -1.0752     2.4557     1.4268 C.3    1 <0>      -0.1500
    7 C7       -1.4361     3.5018     2.4834 C.3    1 <0>       0.0100
    8 C8       -0.6477     3.2388     3.7405 C.ar   1 <0>      -0.0700
    9 C9       -1.2996     3.1274     4.9542 C.ar   1 <0>      -0.1200
   10 C10      -0.5775     2.8861     6.1084 C.ar   1 <0>      -0.0800
   11 C11       0.7968     2.7560     6.0497 C.ar   1 <0>      -0.1500
   12 C12       1.4510     2.8670     4.8342 C.ar   1 <0>       0.1100
   13 F13       2.7948     2.7400     4.7756 F      1 <0>      -0.1300
   14 C14       0.7265     3.1034     3.6785 C.ar   1 <0>      -0.1600
   15 C15      -1.1064     4.8768     1.9621 C.ar   1 <0>      -0.0600
   16 C16       0.1515     5.1392     1.4528 C.ar   1 <0>      -0.1300
   17 C17       0.4555     6.4003     0.9741 C.ar   1 <0>      -0.0800
   18 C18      -0.4981     7.3997     1.0044 C.ar   1 <0>      -0.1500
   19 C19      -1.7589     7.1379     1.5140 C.ar   1 <0>       0.1100
   20 F20      -2.6921     8.1143     1.5442 F      1 <0>      -0.1300
   21 C21      -2.0637     5.8734     1.9882 C.ar   1 <0>      -0.1400
   22 H22      -2.6026     1.0748     2.0600 H      1 <0>       0.1400
   23 H23      -1.0217     0.8314     2.8409 H      1 <0>       0.1400
   24 H24       0.0036     2.4540     1.2709 H      1 <0>       0.0900
   25 H25      -1.5774     2.6973     0.4900 H      1 <0>       0.1000
   26 H26      -2.5019     3.4428     2.7039 H      1 <0>       0.1100
   27 H27      -2.3737     3.2293     5.0011 H      1 <0>       0.1300
   28 H28      -1.0879     2.7997     7.0563 H      1 <0>       0.1400
   29 H29       1.3607     2.5683     6.9515 H      1 <0>       0.1400
   30 H30       1.2356     3.1897     2.7299 H      1 <0>       0.1400
   31 H31       0.8976     4.3587     1.4290 H      1 <0>       0.1300
   32 H32       1.4388     6.6043     0.5767 H      1 <0>       0.1400
   33 H33      -0.2603     8.3849     0.6311 H      1 <0>       0.1400
   34 H34      -3.0467     5.6680     2.3855 H      1 <0>       0.1400
@<TRIPOS>BOND
   1    1    2 1
   2    1    3 1
   3    1    4 1
   4    1    5 1
   5    5    6 1
   6    5   22 1
   7    5   23 1
   8    6    7 1
   9    6   24 1
  10    6   25 1
  11    7    8 1
  12    7   15 1
  13    7   26 1
  14    8   14 ar
  15    8    9 ar
  16    9   10 ar
  17    9   27 1
  18   10   11 ar
  19   10   28 1
  20   11   12 ar
  21   11   29 1
  22   12   13 1
  23   12   14 ar
  24   14   30 1
  25   15   21 ar
  26   15   16 ar
  27   16   17 ar
  28   16   31 1
  29   17   18 ar
  30   17   32 1
  31   18   19 ar
  32   18   33 1
  33   19   20 1
  34   19   21 ar
  35   21   34 1
