@<TRIPOS>MOLECULE
ZINC000072317493
52    55    1     0     0
SMALL
USER_CHARGES
@<TRIPOS>ATOM
1      C1      1.6148    1.8400    0.7387 C.3      1 ZINC000072317493   -0.6500
2      S2      1.4276    0.0378    0.6525 S.o2     1 ZINC000072317493    2.5000
3      O3      2.3315   -0.6006    1.5439 O.2      1 ZINC000072317493   -0.9300
4      O4      0.0527   -0.3199    0.6227 O.2      1 ZINC000072317493   -0.9300
5      C5      2.0227   -0.3899   -0.9499 C.ar     1 ZINC000072317493   -0.6200
6      C6      1.1529   -0.4158   -2.0242 C.ar     1 ZINC000072317493   -0.0200
7      C7      1.6151   -0.7510   -3.2824 C.ar     1 ZINC000072317493   -0.0900
8      C8      2.9548   -1.0619   -3.4684 C.ar     1 ZINC000072317493    0.1200
9      N9      3.4264   -1.4018   -4.7432 N.am     1 ZINC000072317493   -0.4700
10     C10     3.4121   -2.7047   -5.1373 C.2      1 ZINC000072317493    0.1800
11     C11     3.8603   -3.0632   -6.3604 C.2      1 ZINC000072317493   -0.1400
12     Cl12    3.8328   -4.7304   -6.8437 Cl       1 ZINC000072317493   -0.0200
13     C13     4.3498   -2.0789   -7.2432 C.2      1 ZINC000072317493    0.2400
14     O14     4.8023   -2.4222   -8.4732 O.3      1 ZINC000072317493   -0.2800
15     C15     5.1711   -1.3556   -9.3498 C.3      1 ZINC000072317493    0.0800
16     C16     6.6184   -0.9411   -9.0707 C.3      1 ZINC000072317493   -0.1500
17     C17     7.0272    0.1592  -10.0527 C.3      1 ZINC000072317493    0.0700
18     N18     6.8981   -0.3380  -11.4284 N.3      1 ZINC000072317493   -0.4600
19     C19     7.3833    0.5866  -12.3378 C.ar     1 ZINC000072317493    0.5000
20     N20     7.8791    1.7317  -11.8931 N.ar     1 ZINC000072317493   -0.5400
21     C21     8.3509    2.6368  -12.7347 C.ar     1 ZINC000072317493    0.1900
22     C22     8.3216    2.3744  -14.0963 C.ar     1 ZINC000072317493   -0.1800
23     Cl23    8.9304    3.5334  -15.2364 Cl       1 ZINC000072317493   -0.0300
24     C24     7.7956    1.1654  -14.5269 C.ar     1 ZINC000072317493    0.1900
25     N25     7.3454    0.3023  -13.6311 N.ar     1 ZINC000072317493   -0.5200
26     C26     5.5078   -0.6978  -11.7347 C.3      1 ZINC000072317493    0.0700
27     C27     5.0536   -1.8237  -10.8029 C.3      1 ZINC000072317493   -0.1100
28     C28     4.3608   -0.7580   -6.8349 C.2      1 ZINC000072317493   -0.3400
29     C29     3.8813   -0.4342   -5.5608 C.2      1 ZINC000072317493    0.5400
30     O30     3.8842    0.7283   -5.1862 O.2      1 ZINC000072317493   -0.5300
31     C31     3.8284   -1.0348   -2.3863 C.ar     1 ZINC000072317493    0.1100
32     F32     5.1334   -1.3367   -2.5624 F        1 ZINC000072317493   -0.1200
33     C33     3.3597   -0.6933   -1.1309 C.ar     1 ZINC000072317493   -0.0500
34     H34     2.6649    2.1028    0.6111 H        1 ZINC000072317493    0.1400
35     H35     1.0254    2.3048   -0.0516 H        1 ZINC000072317493    0.1400
36     H36     1.2666    2.1955    1.7085 H        1 ZINC000072317493    0.1400
37     H37     0.1103   -0.1739   -1.8797 H        1 ZINC000072317493    0.1600
38     H38     0.9343   -0.7715   -4.1205 H        1 ZINC000072317493    0.1500
39     H39     3.0382   -3.4614   -4.4636 H        1 ZINC000072317493    0.1800
40     H40     4.5096   -0.5048   -9.1866 H        1 ZINC000072317493    0.0800
41     H41     6.6994   -0.5666   -8.0503 H        1 ZINC000072317493    0.0900
42     H42     7.2743   -1.8026   -9.1959 H        1 ZINC000072317493    0.0900
43     H43     6.3797    1.0256   -9.9175 H        1 ZINC000072317493    0.0600
44     H44     8.0619    0.4466   -9.8660 H        1 ZINC000072317493    0.1000
45     H45     8.7535    3.5687  -12.3660 H        1 ZINC000072317493    0.1800
46     H46     7.7576    0.9300  -15.5802 H        1 ZINC000072317493    0.1800
47     H47     4.8674    0.1726  -11.5916 H        1 ZINC000072317493    0.0500
48     H48     5.4389   -1.0329  -12.7696 H        1 ZINC000072317493    0.1100
49     H49     5.6849   -2.6991  -10.9554 H        1 ZINC000072317493    0.0900
50     H50     4.0167   -2.0798  -11.0201 H        1 ZINC000072317493    0.0900
51     H51     4.7311    0.0145   -7.4924 H        1 ZINC000072317493    0.1700
52     H52     4.0367   -0.6715   -0.2897 H        1 ZINC000072317493    0.1700
@<TRIPOS>BOND
1     1     2     1
2     1     34    1
3     1     35    1
4     1     36    1
5     2     3     2
6     2     4     2
7     2     5     1
8     5     33    ar
9     5     6     ar
10    6     7     ar
11    6     37    1
12    7     8     ar
13    7     38    1
14    8     9     1
15    8     31    ar
16    9     29    am
17    9     10    1
18    10    11    2
19    10    39    1
20    11    12    1
21    11    13    1
22    13    14    1
23    13    28    2
24    14    15    1
25    15    27    1
26    15    16    1
27    15    40    1
28    16    17    1
29    16    41    1
30    16    42    1
31    17    18    1
32    17    43    1
33    17    44    1
34    18    19    1
35    18    26    1
36    19    25    ar
37    19    20    ar
38    20    21    ar
39    21    22    ar
40    21    45    1
41    22    23    1
42    22    24    ar
43    24    25    ar
44    24    46    1
45    26    27    1
46    26    47    1
47    26    48    1
48    27    49    1
49    27    50    1
50    28    29    1
51    28    51    1
52    29    30    2
53    31    32    1
54    31    33    ar
55    33    52    1
@<TRIPOS>SUBSTRUCTURE
1   ZINC000072317493 1     RESIDUE    1   A     ZIN   1
