@<TRIPOS>MOLECULE
ZINC000003812144
74    77    1     0     0
SMALL
USER_CHARGES
@<TRIPOS>ATOM
1      C1      0.1831    1.8206   -0.3221 C.3      1 ZINC000003812144   -0.1500
2      C2      0.2359    0.2922   -0.2755 C.3      1 ZINC000003812144   -0.1200
3      C3      0.8912   -0.2347   -1.5537 C.3      1 ZINC000003812144   -0.1400
4      C4      0.9440   -1.7631   -1.5070 C.3      1 ZINC000003812144    0.1100
5      N5      1.5715   -2.2676   -2.7309 N.am     1 ZINC000003812144   -0.6200
6      C6      3.0224   -2.4635   -2.7831 C.3      1 ZINC000003812144    0.1200
7      C7      3.3618   -3.8845   -2.3285 C.3      1 ZINC000003812144   -0.1300
8      C8      4.8771   -4.0891   -2.3830 C.3      1 ZINC000003812144   -0.1200
9      C9      5.2165   -5.5101   -1.9284 C.3      1 ZINC000003812144   -0.1500
10     C10     0.8140   -2.5515   -3.8089 C.2      1 ZINC000003812144    0.5200
11     O11     1.3334   -2.9692   -4.8221 O.2      1 ZINC000003812144   -0.5200
12     C12    -0.6785   -2.3500   -3.7553 C.3      1 ZINC000003812144    0.0200
13     N13    -1.2704   -2.7283   -5.0454 N.3      1 ZINC000003812144   -0.4800
14     C14    -0.7187   -1.8995   -6.1476 C.3      1 ZINC000003812144    0.0400
15     C15    -1.7808   -2.0449   -7.2663 C.3      1 ZINC000003812144   -0.0400
16     H16    -1.6436   -2.9801   -7.8092 H        1 ZINC000003812144    0.1100
17     C17    -1.7267   -0.8704   -8.2090 C.ar     1 ZINC000003812144   -0.0300
18     C18    -1.9087    0.4113   -7.7248 C.ar     1 ZINC000003812144   -0.1200
19     C19    -1.8599    1.4923   -8.5858 C.ar     1 ZINC000003812144   -0.1000
20     C20    -1.6289    1.2925   -9.9368 C.ar     1 ZINC000003812144    0.0100
21     O21    -1.5356    2.1695  -10.9786 O.3      1 ZINC000003812144   -0.3100
22     C22    -0.8890    1.4402  -12.0384 C.3      1 ZINC000003812144    0.2100
23     O23    -1.2374    0.0687  -11.7720 O.3      1 ZINC000003812144   -0.3100
24     C24    -1.4455    0.0006  -10.4247 C.ar     1 ZINC000003812144    0.0300
25     C25    -1.4895   -1.0768   -9.5555 C.ar     1 ZINC000003812144   -0.0800
26     C26    -3.1116   -2.0592   -6.4798 C.3      1 ZINC000003812144   -0.1400
27     H27    -3.5566   -1.0642   -6.4710 H        1 ZINC000003812144    0.0700
28     C28    -4.0675   -3.0534   -7.0871 C.2      1 ZINC000003812144    0.5000
29     O29    -3.7428   -3.6838   -8.0789 O.co2    1 ZINC000003812144   -0.6900
30     O30    -5.1656   -3.2275   -6.5867 O.co2    1 ZINC000003812144   -0.7000
31     C31    -2.7295   -2.4864   -5.0505 C.3      1 ZINC000003812144    0.1300
32     H32    -3.2584   -3.4010   -4.7823 H        1 ZINC000003812144    0.1000
33     C33    -3.0755   -1.3894   -4.0769 C.ar     1 ZINC000003812144   -0.1200
34     C34    -2.4994   -0.1397   -4.2121 C.ar     1 ZINC000003812144   -0.0900
35     C35    -2.8150    0.8676   -3.3210 C.ar     1 ZINC000003812144   -0.1500
36     C36    -3.7110    0.6247   -2.2901 C.ar     1 ZINC000003812144    0.1200
37     O37    -4.0234    1.6142   -1.4125 O.3      1 ZINC000003812144   -0.3200
38     C38    -4.9533    1.2925   -0.3762 C.3      1 ZINC000003812144    0.0300
39     C39    -4.2881   -0.6299   -2.1569 C.ar     1 ZINC000003812144   -0.2000
40     C40    -3.9729   -1.6325   -3.0535 C.ar     1 ZINC000003812144   -0.0600
41     H41     1.1954    2.2168   -0.4013 H        1 ZINC000003812144    0.0500
42     H42    -0.3999    2.1378   -1.1867 H        1 ZINC000003812144    0.0600
43     H43    -0.2838    2.1960    0.5885 H        1 ZINC000003812144    0.0500
44     H44     0.8189   -0.0250    0.5891 H        1 ZINC000003812144    0.0600
45     H45    -0.7765   -0.1040   -0.1962 H        1 ZINC000003812144    0.0600
46     H46     0.3082    0.0825   -2.4183 H        1 ZINC000003812144    0.0700
47     H47     1.9035    0.1615   -1.6329 H        1 ZINC000003812144    0.0600
48     H48     1.5270   -2.0803   -0.6424 H        1 ZINC000003812144    0.0800
49     H49    -0.0684   -2.1593   -1.4278 H        1 ZINC000003812144    0.0800
50     H50     3.3725   -2.3155   -3.8046 H        1 ZINC000003812144    0.0800
51     H51     3.5099   -1.7451   -2.1241 H        1 ZINC000003812144    0.0700
52     H52     3.0116   -4.0326   -1.3070 H        1 ZINC000003812144    0.0600
53     H53     2.8742   -4.6030   -2.9874 H        1 ZINC000003812144    0.0700
54     H54     5.2272   -3.9410   -3.4045 H        1 ZINC000003812144    0.0600
55     H55     5.3646   -3.3706   -1.7240 H        1 ZINC000003812144    0.0600
56     H56     6.2960   -5.6558   -1.9672 H        1 ZINC000003812144    0.0500
57     H57     4.8663   -5.6581   -0.9069 H        1 ZINC000003812144    0.0500
58     H58     4.7289   -6.2285   -2.5874 H        1 ZINC000003812144    0.0600
59     H59    -1.1009   -2.9713   -2.9656 H        1 ZINC000003812144    0.1000
60     H60    -0.8965   -1.3021   -3.5489 H        1 ZINC000003812144    0.0800
61     H61    -0.6269   -0.8586   -5.8374 H        1 ZINC000003812144    0.0400
62     H62     0.2438   -2.2900   -6.4779 H        1 ZINC000003812144    0.1000
63     H63    -2.0898    0.5689   -6.6719 H        1 ZINC000003812144    0.1300
64     H64    -2.0024    2.4927   -8.2047 H        1 ZINC000003812144    0.1300
65     H65    -1.2752    1.7519  -13.0088 H        1 ZINC000003812144    0.1300
66     H66     0.1915    1.5766  -11.9933 H        1 ZINC000003812144    0.0800
67     H67    -1.3417   -2.0789   -9.9302 H        1 ZINC000003812144    0.1400
68     H68    -1.8019    0.0489   -5.0148 H        1 ZINC000003812144    0.1300
69     H69    -2.3642    1.8434   -3.4265 H        1 ZINC000003812144    0.1300
70     H70    -4.5550    0.4786    0.2296 H        1 ZINC000003812144    0.0500
71     H71    -5.1141    2.1683    0.2524 H        1 ZINC000003812144    0.1000
72     H72    -5.9002    0.9852   -0.8202 H        1 ZINC000003812144    0.0500
73     H73    -4.9857   -0.8216   -1.3551 H        1 ZINC000003812144    0.1300
74     H74    -4.4221   -2.6092   -2.9505 H        1 ZINC000003812144    0.1300
@<TRIPOS>BOND
1     1     2     1
2     1     41    1
3     1     42    1
4     1     43    1
5     2     3     1
6     2     44    1
7     2     45    1
8     3     4     1
9     3     46    1
10    3     47    1
11    4     5     1
12    4     48    1
13    4     49    1
14    5     6     1
15    5     10    am
16    6     7     1
17    6     50    1
18    6     51    1
19    7     8     1
20    7     52    1
21    7     53    1
22    8     9     1
23    8     54    1
24    8     55    1
25    9     56    1
26    9     57    1
27    9     58    1
28    10    11    2
29    10    12    1
30    12    13    1
31    12    59    1
32    12    60    1
33    13    31    1
34    13    14    1
35    14    15    1
36    14    61    1
37    14    62    1
38    15    16    1
39    15    17    1
40    15    26    1
41    17    25    ar
42    17    18    ar
43    18    19    ar
44    18    63    1
45    19    20    ar
46    19    64    1
47    20    24    ar
48    20    21    1
49    21    22    1
50    22    23    1
51    22    65    1
52    22    66    1
53    23    24    1
54    24    25    ar
55    25    67    1
56    26    27    1
57    26    28    1
58    26    31    1
59    28    29    ar
60    28    30    ar
61    31    32    1
62    31    33    1
63    33    40    ar
64    33    34    ar
65    34    35    ar
66    34    68    1
67    35    36    ar
68    35    69    1
69    36    37    1
70    36    39    ar
71    37    38    1
72    38    70    1
73    38    71    1
74    38    72    1
75    39    40    ar
76    39    73    1
77    40    74    1
@<TRIPOS>SUBSTRUCTURE
1   ZINC000003812144 1     RESIDUE    1   A     ZIN   1
