@<TRIPOS>MOLECULE
ZINC000000600547
48    51    1     0     0
SMALL
USER_CHARGES
@<TRIPOS>ATOM
1      C1     -0.0187    1.5258    0.0104 C.3      1 ZINC000000600547   -0.1500
2      C2      0.0021   -0.0041    0.0020 C.3      1 ZINC000000600547   -0.0400
3      H3      0.5293   -0.3651    0.8851 H        1 ZINC000000600547    0.1200
4      C4     -1.4117   -0.5257    0.0127 C.2      1 ZINC000000600547    0.0400
5      N5     -1.9096   -1.2767    0.9323 N.2      1 ZINC000000600547   -0.4600
6      C6     -3.1741   -1.6492    0.7901 C.2      1 ZINC000000600547    0.1000
7      C7     -3.8760   -2.5114    1.7693 C.ar     1 ZINC000000600547    0.0100
8      C8     -3.2405   -2.8786    2.9566 C.ar     1 ZINC000000600547   -0.0900
9      C9     -3.8891   -3.6765    3.8636 C.ar     1 ZINC000000600547   -0.0700
10     C10    -5.1875   -4.1224    3.5988 C.ar     1 ZINC000000600547   -0.0200
11     C11    -5.8661   -4.9555    4.5455 C.1      1 ZINC000000600547    0.2500
12     N12    -6.4044   -5.6163    5.2965 N.1      1 ZINC000000600547   -0.4100
13     C13    -5.8229   -3.7540    2.4092 C.ar     1 ZINC000000600547   -0.0700
14     C14    -5.1744   -2.9513    1.5063 C.ar     1 ZINC000000600547   -0.1100
15     C15    -3.7650   -1.1730   -0.3262 C.2      1 ZINC000000600547   -0.2600
16     S16    -2.5801   -0.1969   -1.1905 S.3      1 ZINC000000600547    0.2000
17     C17     0.7182   -0.4975   -1.2568 C.3      1 ZINC000000600547    0.1800
18     O18     0.0271   -0.0241   -2.4145 O.3      1 ZINC000000600547   -0.5200
19     C19     0.7390   -2.0273   -1.2652 C.3      1 ZINC000000600547    0.1500
20     N20     1.5269   -2.4987   -2.4067 N.pl3    1 ZINC000000600547   -0.3700
21     C21     2.5752   -3.3395   -2.3700 C.2      1 ZINC000000600547    0.2500
22     N22     3.0008   -3.5116   -3.5951 N.2      1 ZINC000000600547   -0.5400
23     C23     2.2527   -2.8002   -4.4375 C.2      1 ZINC000000600547    0.1900
24     N24     1.3334   -2.1669   -3.7576 N.2      1 ZINC000000600547   -0.2800
25     C25     2.1320    0.0241   -1.2675 C.ar     1 ZINC000000600547   -0.1600
26     C26     2.5613    0.8349   -2.3009 C.ar     1 ZINC000000600547   -0.0400
27     C27     3.8577    1.3144   -2.3118 C.ar     1 ZINC000000600547   -0.1600
28     C28     4.7276    0.9829   -1.2871 C.ar     1 ZINC000000600547    0.1400
29     F29     5.9945    1.4521   -1.2977 F        1 ZINC000000600547   -0.1300
30     C30     4.2987    0.1707   -0.2512 C.ar     1 ZINC000000600547   -0.1900
31     C31     2.9989   -0.3045   -0.2386 C.ar     1 ZINC000000600547    0.1400
32     F32     2.5790   -1.0972    0.7716 F        1 ZINC000000600547   -0.1300
33     H33     1.0039    1.9031    0.0027 H        1 ZINC000000600547    0.0800
34     H34    -0.5459    1.8868   -0.8726 H        1 ZINC000000600547    0.0600
35     H35    -0.5289    1.8773    0.9072 H        1 ZINC000000600547    0.0800
36     H36    -2.2374   -2.5343    3.1608 H        1 ZINC000000600547    0.1400
37     H37    -3.3970   -3.9608    4.7821 H        1 ZINC000000600547    0.1400
38     H38    -6.8259   -4.0978    2.2035 H        1 ZINC000000600547    0.1400
39     H39    -5.6650   -2.6665    0.5873 H        1 ZINC000000600547    0.1400
40     H40    -4.7844   -1.3549   -0.6330 H        1 ZINC000000600547    0.1800
41     H41    -0.0248    0.9396   -2.4749 H        1 ZINC000000600547    0.3800
42     H42     1.1870   -2.3897   -0.3400 H        1 ZINC000000600547    0.1200
43     H43    -0.2806   -2.4041   -1.3471 H        1 ZINC000000600547    0.1000
44     H44     2.9935   -3.7933   -1.4836 H        1 ZINC000000600547    0.2100
45     H45     2.3823   -2.7573   -5.5089 H        1 ZINC000000600547    0.2100
46     H46     1.8835    1.0937   -3.1009 H        1 ZINC000000600547    0.1500
47     H47     4.1922    1.9477   -3.1202 H        1 ZINC000000600547    0.1500
48     H48     4.9766   -0.0884    0.5486 H        1 ZINC000000600547    0.1500
@<TRIPOS>BOND
1     1     2     1
2     1     33    1
3     1     34    1
4     1     35    1
5     2     3     1
6     2     4     1
7     2     17    1
8     4     16    1
9     4     5     2
10    5     6     1
11    6     7     1
12    6     15    2
13    7     14    ar
14    7     8     ar
15    8     9     ar
16    8     36    1
17    9     10    ar
18    9     37    1
19    10    11    1
20    10    13    ar
21    11    12    3
22    13    14    ar
23    13    38    1
24    14    39    1
25    15    16    1
26    15    40    1
27    17    18    1
28    17    19    1
29    17    25    1
30    18    41    1
31    19    20    1
32    19    42    1
33    19    43    1
34    20    24    1
35    20    21    1
36    21    22    2
37    21    44    1
38    22    23    1
39    23    24    2
40    23    45    1
41    25    31    ar
42    25    26    ar
43    26    27    ar
44    26    46    1
45    27    28    ar
46    27    47    1
47    28    29    1
48    28    30    ar
49    30    31    ar
50    30    48    1
51    31    32    1
@<TRIPOS>SUBSTRUCTURE
1   ZINC000000600547 1     RESIDUE    1   A     ZIN   1
