@<TRIPOS>MOLECULE
ZINC000000359757
45    47    1     0     0
SMALL
USER_CHARGES
@<TRIPOS>ATOM
1      O1     -0.7042   -2.5272    1.1682 O.3      1 ZINC000000359757   -0.5800
2      C2     -1.4018   -2.0633    0.0105 C.3      1 ZINC000000359757    0.0900
3      H3     -2.4217   -2.4478    0.0226 H        1 ZINC000000359757    0.0800
4      C4     -0.6857   -2.5567   -1.2483 C.3      1 ZINC000000359757   -0.1500
5      C5     -1.4326   -2.0601   -2.4878 C.3      1 ZINC000000359757   -0.1300
6      C6     -1.4641   -0.5304   -2.4854 C.3      1 ZINC000000359757   -0.1200
7      C7     -2.1802   -0.0370   -1.2266 C.3      1 ZINC000000359757   -0.1400
8      C8     -1.4333   -0.5336    0.0129 C.3      1 ZINC000000359757    0.0400
9      H9     -0.4134   -0.1492    0.0008 H        1 ZINC000000359757    0.1400
10     N10    -2.1209   -0.0599    1.2215 N.4      1 ZINC000000359757   -0.3800
11     H11    -1.6816   -0.4613    2.0363 H        1 ZINC000000359757    0.4300
12     C12    -3.5292   -0.4709    1.1743 C.3      1 ZINC000000359757   -0.0100
13     C13    -4.2308   -0.0505    2.4675 C.3      1 ZINC000000359757   -0.1400
14     C14    -4.1462    1.4713    2.6163 C.3      1 ZINC000000359757   -0.0500
15     C15    -4.7664    1.8849    3.9260 C.ar     1 ZINC000000359757   -0.1000
16     C16    -4.2491    1.4094    5.1164 C.ar     1 ZINC000000359757   -0.1200
17     C17    -4.8180    1.7887    6.3178 C.ar     1 ZINC000000359757   -0.1100
18     C18    -5.9040    2.6440    6.3288 C.ar     1 ZINC000000359757   -0.1100
19     C19    -6.4208    3.1202    5.1384 C.ar     1 ZINC000000359757   -0.1100
20     C20    -5.8492    2.7442    3.9372 C.ar     1 ZINC000000359757   -0.1100
21     C21    -2.6751    1.8960    2.5896 C.3      1 ZINC000000359757   -0.1400
22     C22    -2.0327    1.4036    1.2909 C.3      1 ZINC000000359757   -0.0100
23     H23    -0.6454   -3.4903    1.2323 H        1 ZINC000000359757    0.4100
24     H24     0.3342   -2.1723   -1.2604 H        1 ZINC000000359757    0.0800
25     H25    -0.6632   -3.6465   -1.2500 H        1 ZINC000000359757    0.0900
26     H26    -0.9224   -2.4116   -3.3846 H        1 ZINC000000359757    0.0800
27     H27    -2.4525   -2.4445   -2.4757 H        1 ZINC000000359757    0.0700
28     H28    -0.4442   -0.1460   -2.4975 H        1 ZINC000000359757    0.0800
29     H29    -1.9962   -0.1766   -3.3684 H        1 ZINC000000359757    0.0900
30     H30    -2.2027    1.0528   -1.2249 H        1 ZINC000000359757    0.0900
31     H31    -3.2001   -0.4214   -1.2145 H        1 ZINC000000359757    0.0900
32     H32    -4.0181    0.0059    0.3247 H        1 ZINC000000359757    0.1300
33     H33    -3.5878   -1.5538    1.0652 H        1 ZINC000000359757    0.1300
34     H34    -5.2767   -0.3549    2.4298 H        1 ZINC000000359757    0.1100
35     H35    -3.7428   -0.5270    3.3178 H        1 ZINC000000359757    0.0900
36     H36    -4.6794    1.9481    1.7938 H        1 ZINC000000359757    0.1000
37     H37    -3.4006    0.7412    5.1079 H        1 ZINC000000359757    0.1200
38     H38    -4.4143    1.4167    7.2478 H        1 ZINC000000359757    0.1300
39     H39    -6.3489    2.9398    7.2674 H        1 ZINC000000359757    0.1300
40     H40    -7.2694    3.7881    5.1469 H        1 ZINC000000359757    0.1300
41     H41    -6.2529    3.1163    3.0072 H        1 ZINC000000359757    0.1200
42     H42    -2.6091    2.9829    2.6391 H        1 ZINC000000359757    0.1100
43     H43    -2.1549    1.4599    3.4424 H        1 ZINC000000359757    0.0900
44     H44    -0.9852    1.7040    1.2676 H        1 ZINC000000359757    0.1300
45     H45    -2.5542    1.8410    0.4395 H        1 ZINC000000359757    0.1300
@<TRIPOS>BOND
1     1     2     1
2     1     23    1
3     2     3     1
4     2     8     1
5     2     4     1
6     4     5     1
7     4     24    1
8     4     25    1
9     5     6     1
10    5     26    1
11    5     27    1
12    6     7     1
13    6     28    1
14    6     29    1
15    7     8     1
16    7     30    1
17    7     31    1
18    8     9     1
19    8     10    1
20    10    11    1
21    10    22    1
22    10    12    1
23    12    13    1
24    12    32    1
25    12    33    1
26    13    14    1
27    13    34    1
28    13    35    1
29    14    15    1
30    14    21    1
31    14    36    1
32    15    20    ar
33    15    16    ar
34    16    17    ar
35    16    37    1
36    17    18    ar
37    17    38    1
38    18    19    ar
39    18    39    1
40    19    20    ar
41    19    40    1
42    20    41    1
43    21    22    1
44    21    42    1
45    21    43    1
46    22    44    1
47    22    45    1
@<TRIPOS>SUBSTRUCTURE
1   ZINC000000359757 1     RESIDUE    1   A     ZIN   1
