@<TRIPOS>MOLECULE
ZINC000003874559
  63   65    0    0    0
SMALL
USER_CHARGES
NO_NAME
@<TRIPOS>ATOM
    1 C1        0.3208    -0.5552    -1.7552 C.3    1 <0>      -0.1500
    2 C2       -0.5911    -0.1710    -0.5882 C.3    1 <0>      -0.1000
    3 C3       -0.7892     1.3460    -0.5737 C.3    1 <0>      -0.1400
    4 C4       -1.9469    -0.8608    -0.7519 C.3    1 <0>       0.1300
    5 H5       -2.5966    -0.5870     0.0793 H      1 <0>       0.1000
    6 N6       -2.5616    -0.4368    -2.0123 N.am   1 <0>      -0.7200
    7 C7       -3.2803     0.7023    -2.0619 C.2    1 <0>       0.5100
    8 O8       -3.4183     1.3762    -1.0630 O.2    1 <0>      -0.5100
    9 C9       -3.9126     1.1385    -3.3584 C.3    1 <0>       0.0600
   10 N10      -4.6335     2.3969    -3.1511 N.am   1 <0>      -0.4900
   11 C11      -5.9590     2.3841    -2.8930 C.2    1 <0>       0.5200
   12 O12      -6.5710     1.3307    -2.8294 O.2    1 <0>      -0.5400
   13 C13      -6.6233     3.6192    -2.6975 C.2    1 <0>       0.0700
   14 N14      -7.9970     3.6553    -2.4270 N.pl3  1 <0>      -0.8500
   15 C15      -5.8983     4.7763    -2.7772 C.2    1 <0>       0.0200
   16 N16      -4.5921     4.7297    -3.0351 N.2    1 <0>      -0.4700
   17 C17      -3.9668     3.5862    -3.2123 C.2    1 <0>       0.3800
   18 C18      -2.5170     3.5900    -3.4959 C.ar   1 <0>      -0.0500
   19 C19      -2.0201     2.9238    -4.6179 C.ar   1 <0>      -0.1100
   20 C20      -0.6652     2.9318    -4.8770 C.ar   1 <0>      -0.1200
   21 C21       0.2009     3.5975    -4.0277 C.ar   1 <0>      -0.1000
   22 C22      -0.2847     4.2593    -2.9138 C.ar   1 <0>      -0.1200
   23 C23      -1.6380     4.2647    -2.6463 C.ar   1 <0>      -0.0600
   24 C24      -1.7489    -2.3779    -0.7661 C.3    1 <0>       0.2000
   25 H25      -1.0633    -2.6473    -1.5695 H      1 <0>       0.1400
   26 O26      -1.2043    -2.7989     0.4861 O.3    1 <0>      -0.5200
   27 C27      -3.0761    -3.0557    -0.9900 C.2    1 <0>       0.1200
   28 N28      -4.0468    -3.1540    -0.1268 N.2    1 <0>      -0.2700
   29 N29      -5.0275    -3.7955    -0.6582 N.2    1 <0>      -0.2800
   30 C30      -4.7157    -4.1282    -1.8785 C.2    1 <0>       0.1800
   31 C31      -5.5860    -4.8889    -2.8455 C.3    1 <0>       0.0300
   32 C32      -6.8795    -4.1091    -3.0896 C.3    1 <0>      -0.1400
   33 C33      -4.8410    -5.0683    -4.1697 C.3    1 <0>      -0.1500
   34 C34      -5.9211    -6.2616    -2.2588 C.3    1 <0>      -0.1400
   35 O35      -3.4777    -3.6643    -2.1185 O.3    1 <0>      -0.2200
   36 H36       1.2867    -0.0638    -1.6386 H      1 <0>       0.0600
   37 H37       0.4619    -1.6360    -1.7655 H      1 <0>       0.0600
   38 H38      -0.1366    -0.2395    -2.6929 H      1 <0>       0.0600
   39 H39      -0.1337    -0.4867     0.3495 H      1 <0>       0.0900
   40 H40      -1.1399     1.6760    -1.5516 H      1 <0>       0.0500
   41 H41      -1.5267     1.6089     0.1846 H      1 <0>       0.0700
   42 H42       0.1581     1.8339    -0.3438 H      1 <0>       0.0500
   43 H43      -2.4512    -0.9757    -2.8112 H      1 <0>       0.4000
   44 H44      -3.1368     1.2838    -4.1101 H      1 <0>       0.1300
   45 H45      -4.6093     0.3725    -3.6987 H      1 <0>       0.1300
   46 H46      -8.5024     2.8292    -2.3721 H      1 <0>       0.4100
   47 H47      -8.4430     4.5064    -2.2945 H      1 <0>       0.4100
   48 H48      -6.3855     5.7290    -2.6313 H      1 <0>       0.1600
   49 H49      -2.6949     2.4032    -5.2812 H      1 <0>       0.1300
   50 H50      -0.2796     2.4169    -5.7445 H      1 <0>       0.1300
   51 H51       1.2608     3.6003    -4.2350 H      1 <0>       0.1300
   52 H52       0.3969     4.7764    -2.2547 H      1 <0>       0.1300
   53 H53      -2.0157     4.7819    -1.7767 H      1 <0>       0.1300
   54 H54      -1.7628    -2.5912     1.2477 H      1 <0>       0.3900
   55 H55      -6.6408    -3.1311    -3.5075 H      1 <0>       0.0600
   56 H56      -7.5090    -4.6593    -3.7889 H      1 <0>       0.0800
   57 H57      -7.4103    -3.9813    -2.1461 H      1 <0>       0.0700
   58 H58      -3.9195    -5.6239    -3.9958 H      1 <0>       0.0600
   59 H59      -5.4705    -5.6185    -4.8691 H      1 <0>       0.0800
   60 H60      -4.6023    -4.0903    -4.5877 H      1 <0>       0.0600
   61 H61      -6.4519    -6.1338    -1.3153 H      1 <0>       0.0700
   62 H62      -6.5506    -6.8118    -2.9581 H      1 <0>       0.0800
   63 H63      -4.9996    -6.8172    -2.0849 H      1 <0>       0.0600
@<TRIPOS>BOND
   1    1    2 1
   2    1   36 1
   3    1   37 1
   4    1   38 1
   5    2    3 1
   6    2    4 1
   7    2   39 1
   8    3   40 1
   9    3   41 1
  10    3   42 1
  11    4    5 1
  12    4    6 1
  13    4   24 1
  14    6    7 am
  15    6   43 1
  16    7    8 2
  17    7    9 1
  18    9   10 1
  19    9   44 1
  20    9   45 1
  21   10   17 1
  22   10   11 am
  23   11   12 2
  24   11   13 1
  25   13   14 1
  26   13   15 2
  27   14   46 1
  28   14   47 1
  29   15   16 1
  30   15   48 1
  31   16   17 2
  32   17   18 1
  33   18   23 ar
  34   18   19 ar
  35   19   20 ar
  36   19   49 1
  37   20   21 ar
  38   20   50 1
  39   21   22 ar
  40   21   51 1
  41   22   23 ar
  42   22   52 1
  43   23   53 1
  44   24   25 1
  45   24   26 1
  46   24   27 1
  47   26   54 1
  48   27   35 1
  49   27   28 2
  50   28   29 1
  51   29   30 2
  52   30   31 1
  53   30   35 1
  54   31   32 1
  55   31   33 1
  56   31   34 1
  57   32   55 1
  58   32   56 1
  59   32   57 1
  60   33   58 1
  61   33   59 1
  62   33   60 1
  63   34   61 1
  64   34   62 1
  65   34   63 1
