@<TRIPOS>MOLECULE
ZINC000003977862
  54   59    0    0    0
SMALL
USER_CHARGES
NO_NAME
@<TRIPOS>ATOM
    1 O1       -2.4958     0.6163     0.2528 O.3    1 <0>      -0.4800
    2 C2       -1.8029    -0.5490     0.1462 C.ar   1 <0>       0.1300
    3 C3       -1.1608    -0.9113    -1.0399 C.ar   1 <0>      -0.1100
    4 C4       -0.4771    -2.1072    -1.2195 C.ar   1 <0>      -0.1000
    5 C5       -0.3771    -3.0030    -0.1755 C.ar   1 <0>      -0.0700
    6 C6        0.1443    -4.4046    -0.2183 C.3    1 <0>      -0.0800
    7 C7        0.3388    -5.0222     1.1610 C.3    1 <0>       0.0400
    8 H8        0.4545    -6.0990     1.0376 H      1 <0>       0.1400
    9 N9        1.5721    -4.4999     1.7903 N.4    1 <0>      -0.3700
   10 H10       2.3258    -4.5808     1.1243 H      1 <0>       0.4200
   11 C11       1.8916    -5.3447     2.9488 C.3    1 <0>       0.0000
   12 C12       3.4100    -5.4213     3.1209 C.3    1 <0>      -0.1600
   13 C13       3.9911    -4.2837     3.9771 C.3    1 <0>      -0.1500
   14 C14       4.9214    -5.3360     4.6033 C.3    1 <0>      -0.1400
   15 C15       3.8559    -6.3822     4.2356 C.3    1 <0>      -0.1200
   16 C16       1.5080    -3.1163     2.2420 C.3    1 <0>      -0.0100
   17 C17       0.2828    -2.8107     3.1339 C.3    1 <0>      -0.0900
   18 C18      -0.8982    -3.2924     2.3272 C.3    1 <0>      -0.0700
   19 C19      -0.9082    -2.5702     1.0102 C.ar   1 <0>      -0.1800
   20 C20      -1.6963    -1.4319     1.2146 C.ar   1 <0>       0.0800
   21 O21      -2.2938    -1.5130     2.4563 O.3    1 <0>      -0.2500
   22 C22      -2.3371    -2.9195     2.6799 C.3    1 <0>       0.1000
   23 H23      -2.9262    -3.3316     1.8605 H      1 <0>       0.0800
   24 C24      -2.7261    -3.6918     3.8949 C.3    1 <0>       0.1300
   25 H25      -1.9404    -3.6299     4.6478 H      1 <0>       0.0800
   26 O26      -3.9561    -3.1926     4.4241 O.3    1 <0>      -0.5500
   27 C27      -2.8996    -5.1581     3.4213 C.3    1 <0>      -0.1400
   28 C28      -2.1503    -5.4285     2.1005 C.3    1 <0>      -0.1300
   29 C29      -0.7553    -4.7819     2.1684 C.3    1 <0>       0.1300
   30 O30      -0.2072    -5.2177     3.4141 O.3    1 <0>      -0.5600
   31 H31      -1.9619     1.3654     0.5509 H      1 <0>       0.4000
   32 H32      -1.1984    -0.2195    -1.8684 H      1 <0>       0.1400
   33 H33      -0.0256    -2.3349    -2.1738 H      1 <0>       0.1400
   34 H34      -0.5568    -5.0209    -0.7811 H      1 <0>       0.1300
   35 H35       1.1017    -4.4052    -0.7393 H      1 <0>       0.1000
   36 H36       1.4455    -4.9152     3.8458 H      1 <0>       0.1700
   37 H37       1.4931    -6.3466     2.7889 H      1 <0>       0.1200
   38 H38       3.9357    -5.5723     2.1781 H      1 <0>       0.1000
   39 H39       4.5172    -3.5256     3.3970 H      1 <0>       0.0800
   40 H40       3.2762    -3.8585     4.6816 H      1 <0>       0.0900
   41 H41       5.8613    -5.4627     4.0661 H      1 <0>       0.0900
   42 H42       5.0598    -5.2126     5.6774 H      1 <0>       0.0800
   43 H43       3.1041    -6.5308     5.0107 H      1 <0>       0.0900
   44 H44       4.2730    -7.3183     3.8642 H      1 <0>       0.0800
   45 H45       2.4137    -2.8912     2.8051 H      1 <0>       0.1300
   46 H46       1.4738    -2.4657     1.3682 H      1 <0>       0.1200
   47 H47       0.3504    -3.3580     4.0741 H      1 <0>       0.1200
   48 H48       0.2052    -1.7395     3.3201 H      1 <0>       0.1100
   49 H49      -4.2604    -3.6562     5.2163 H      1 <0>       0.3900
   50 H50      -2.5149    -5.8274     4.1908 H      1 <0>       0.0900
   51 H51      -3.9606    -5.3606     3.2751 H      1 <0>       0.0900
   52 H52      -2.0507    -6.5047     1.9588 H      1 <0>       0.0900
   53 H53      -2.7220    -5.0102     1.2721 H      1 <0>       0.0900
   54 H54      -0.2261    -6.1765     3.5381 H      1 <0>       0.3900
@<TRIPOS>BOND
   1    1    2 1
   2    1   31 1
   3    2   20 ar
   4    2    3 ar
   5    3    4 ar
   6    3   32 1
   7    4    5 ar
   8    4   33 1
   9    5   19 ar
  10    5    6 1
  11    6    7 1
  12    6   34 1
  13    6   35 1
  14    7    8 1
  15    7   29 1
  16    7    9 1
  17    9   10 1
  18    9   11 1
  19    9   16 1
  20   11   12 1
  21   11   36 1
  22   11   37 1
  23   12   15 1
  24   12   13 1
  25   12   38 1
  26   13   14 1
  27   13   39 1
  28   13   40 1
  29   14   15 1
  30   14   41 1
  31   14   42 1
  32   15   43 1
  33   15   44 1
  34   16   17 1
  35   16   45 1
  36   16   46 1
  37   17   18 1
  38   17   47 1
  39   17   48 1
  40   18   22 1
  41   18   29 1
  42   18   19 1
  43   19   20 ar
  44   20   21 1
  45   21   22 1
  46   22   23 1
  47   22   24 1
  48   24   25 1
  49   24   26 1
  50   24   27 1
  51   26   49 1
  52   27   28 1
  53   27   50 1
  54   27   51 1
  55   28   29 1
  56   28   52 1
  57   28   53 1
  58   29   30 1
  59   30   54 1
