@<TRIPOS>MOLECULE
ZINC000001481955
  42   45    0    0    0
SMALL
USER_CHARGES
NO_NAME
@<TRIPOS>ATOM
    1 O1        0.0021    -0.0041     0.0020 O.2    1 <0>      -0.5100
    2 C2       -0.0144     1.2115     0.0087 C.2    1 <0>       0.5800
    3 N3       -1.1024     1.9843     0.0291 N.pl3  1 <0>      -0.7200
    4 C4       -1.0073     3.3034     0.0346 C.2    1 <0>       0.5200
    5 O5       -1.9725     4.0367     0.0533 O.2    1 <0>      -0.5400
    6 C6        0.4173     3.8128     0.0160 C.3    1 <0>      -0.0900
    7 H7        0.6036     4.4037    -0.8808 H      1 <0>       0.1100
    8 C8        0.7152     4.6325     1.2731 C.3    1 <0>      -0.0500
    9 C9        2.0960     5.2272     1.1695 C.ar   1 <0>      -0.0700
   10 C10       3.1898     4.5100     1.6496 C.ar   1 <0>      -0.0700
   11 C11       4.4502     5.0182     1.5709 C.ar   1 <0>      -0.1200
   12 C12       4.6547     6.2848     0.9974 C.ar   1 <0>      -0.0100
   13 C13       5.9408     6.8408     0.8987 C.ar   1 <0>      -0.1500
   14 C14       6.1016     8.0742     0.3349 C.ar   1 <0>       0.1200
   15 O15       7.3463     8.6109     0.2400 O.3    1 <0>      -0.3100
   16 C16       7.4513     9.9040    -0.3592 C.3    1 <0>       0.1100
   17 C17       8.8958    10.3333    -0.3776 C.ar   1 <0>      -0.1200
   18 C18       9.8711     9.5000     0.1359 C.ar   1 <0>      -0.0700
   19 C19      11.1964     9.8937     0.1192 C.ar   1 <0>      -0.1300
   20 C20      11.5472    11.1212    -0.4106 C.ar   1 <0>      -0.0900
   21 C21      10.5733    11.9566    -0.9243 C.ar   1 <0>      -0.1500
   22 C22       9.2468    11.5607    -0.9142 C.ar   1 <0>       0.1000
   23 F23       8.2939    12.3765    -1.4161 F      1 <0>      -0.1400
   24 C24       5.0021     8.7920    -0.1466 C.ar   1 <0>      -0.2000
   25 C25       3.7443     8.2815    -0.0659 C.ar   1 <0>      -0.0600
   26 C26       3.5416     7.0145     0.5090 C.ar   1 <0>      -0.0800
   27 C27       2.2565     6.4547     0.6031 C.ar   1 <0>      -0.1000
   28 S28       1.4025     2.2770     0.0009 S.3    1 <0>      -0.3900
   29 H29      -0.0189     5.4327     1.3676 H      1 <0>       0.0900
   30 H30       0.6628     3.9861     2.1492 H      1 <0>       0.0800
   31 H31       3.0353     3.5366     2.0912 H      1 <0>       0.1300
   32 H32       5.2886     4.4511     1.9476 H      1 <0>       0.1300
   33 H33       6.7976     6.2961     1.2670 H      1 <0>       0.1300
   34 H34       7.0714     9.8633    -1.3800 H      1 <0>       0.0800
   35 H35       6.8667    10.6204     0.2179 H      1 <0>       0.0800
   36 H36       9.5980     8.5410     0.5507 H      1 <0>       0.1400
   37 H37      11.9580     9.2417     0.5207 H      1 <0>       0.1300
   38 H38      12.5827    11.4278    -0.4228 H      1 <0>       0.1300
   39 H39      10.8476    12.9160    -1.3376 H      1 <0>       0.1400
   40 H40       5.1541     9.7656    -0.5884 H      1 <0>       0.1300
   41 H41       2.9045     8.8471    -0.4415 H      1 <0>       0.1300
   42 H42       1.3997     6.9972     0.2316 H      1 <0>       0.1300
@<TRIPOS>BOND
   1    1    2 2
   2    2   28 1
   3    2    3 1
   4    3    4 1
   5    4    5 2
   6    4    6 1
   7    6    7 1
   8    6    8 1
   9    6   28 1
  10    8    9 1
  11    8   29 1
  12    8   30 1
  13    9   27 ar
  14    9   10 ar
  15   10   11 ar
  16   10   31 1
  17   11   12 ar
  18   11   32 1
  19   12   26 ar
  20   12   13 ar
  21   13   14 ar
  22   13   33 1
  23   14   15 1
  24   14   24 ar
  25   15   16 1
  26   16   17 1
  27   16   34 1
  28   16   35 1
  29   17   22 ar
  30   17   18 ar
  31   18   19 ar
  32   18   36 1
  33   19   20 ar
  34   19   37 1
  35   20   21 ar
  36   20   38 1
  37   21   22 ar
  38   21   39 1
  39   22   23 1
  40   24   25 ar
  41   24   40 1
  42   25   26 ar
  43   25   41 1
  44   26   27 ar
  45   27   42 1
