@<TRIPOS>MOLECULE
ZINC000003781855
  35   37    0    0    0
SMALL
USER_CHARGES
NO_NAME
@<TRIPOS>ATOM
    1 C1       -0.0187     1.5258     0.0104 C.3    1 <0>      -0.1900
    2 C2        0.0021    -0.0041     0.0020 C.3    1 <0>       0.1200
    3 H3        0.5123    -0.3556    -0.8948 H      1 <0>       0.1100
    4 O4        0.6932    -0.4774     1.1597 O.3    1 <0>      -0.5500
    5 C5       -1.4333    -0.5336     0.0129 C.3    1 <0>      -0.1800
    6 H6       -2.0461    -0.0836     0.7939 H      1 <0>       0.1400
    7 C7       -2.0915    -0.5381    -1.3514 C.2    1 <0>       0.5200
    8 O8       -2.3702     0.3246    -2.1577 O.2    1 <0>      -0.4100
    9 N9       -2.2478    -1.8949    -1.3178 N.am   1 <0>      -0.4600
   10 C10      -3.5410    -2.4153    -1.3059 C.2    1 <0>       0.0600
   11 C11      -4.3175    -2.4216    -2.4654 C.2    1 <0>       0.4600
   12 O12      -5.5561    -2.9243    -2.4378 O.co2  1 <0>      -0.6600
   13 O13      -3.8229    -1.9249    -3.6039 O.co2  1 <0>      -0.6700
   14 C14      -4.0340    -2.9218    -0.1293 C.2    1 <0>      -0.1600
   15 S15      -5.6442    -3.5910     0.1235 S.3    1 <0>       0.1400
   16 C16      -5.5307    -4.0297     1.8759 C.3    1 <0>      -0.1600
   17 H17      -4.6602    -4.6689     2.0232 H      1 <0>       0.0900
   18 C18      -6.7874    -4.8049     2.2746 C.3    1 <0>      -0.0800
   19 C19      -7.0787    -4.5540     3.7777 C.3    1 <0>      -0.4200
   20 S20      -6.7289    -2.7521     3.9043 S.o    1 <0>       1.2100
   21 O21      -6.2287    -2.4567     5.2011 O.2    1 <0>      -0.8600
   22 C22      -5.3497    -2.7447     2.6998 C.3    1 <0>      -0.4100
   23 S23      -2.7560    -2.7810     1.0874 S.3    1 <0>      -0.1100
   24 C24      -1.5269    -2.0631    -0.0401 C.3    1 <0>       0.0900
   25 H25      -0.5816    -2.6036    -0.0880 H      1 <0>       0.1600
   26 H26       1.0039     1.9031     0.0027 H      1 <0>       0.0700
   27 H27      -0.5459     1.8868    -0.8726 H      1 <0>       0.0800
   28 H28      -0.5289     1.8773     0.9072 H      1 <0>       0.0600
   29 H29       0.2938    -0.2021     1.9962 H      1 <0>       0.3800
   30 H30      -7.6325    -4.4641     1.6765 H      1 <0>       0.0900
   31 H31      -6.6291    -5.8700     2.1055 H      1 <0>       0.0900
   32 H32      -8.1199    -4.7700     4.0176 H      1 <0>       0.1200
   33 H33      -6.4039    -5.1307     4.4104 H      1 <0>       0.0900
   34 H34      -4.3921    -2.7631     3.2201 H      1 <0>       0.1000
   35 H35      -5.4146    -1.8684     2.0548 H      1 <0>       0.1300
@<TRIPOS>BOND
   1    1    2 1
   2    1   26 1
   3    1   27 1
   4    1   28 1
   5    2    3 1
   6    2    4 1
   7    2    5 1
   8    4   29 1
   9    5    6 1
  10    5   24 1
  11    5    7 1
  12    7    8 2
  13    7    9 am
  14    9   24 1
  15    9   10 1
  16   10   11 1
  17   10   14 2
  18   11   12 ar
  19   11   13 ar
  20   14   15 1
  21   14   23 1
  22   15   16 1
  23   16   17 1
  24   16   22 1
  25   16   18 1
  26   18   19 1
  27   18   30 1
  28   18   31 1
  29   19   20 1
  30   19   32 1
  31   19   33 1
  32   20   21 2
  33   20   22 1
  34   22   34 1
  35   22   35 1
  36   23   24 1
  37   24   25 1
