@<TRIPOS>MOLECULE
ZINC000003975327
56    64    1     0     0
SMALL
USER_CHARGES
@<TRIPOS>ATOM
1      C1     -0.0184    1.5028    0.0103 C.3      1 ZINC000003975327   -0.0800
2      C2      0.0021   -0.0041    0.0020 C.2      1 ZINC000003975327    0.0200
3      C3     -1.0736   -0.8199    0.0024 C.2      1 ZINC000003975327    0.0500
4      N4     -0.6154   -2.1039    0.0138 N.2      1 ZINC000003975327   -0.3900
5      C5      0.6947   -2.0704   -0.0023 C.2      1 ZINC000003975327    0.2800
6      O6      1.1012   -0.7916   -0.0132 O.3      1 ZINC000003975327   -0.1800
7      C7      1.5422   -3.2822    0.0004 C.2      1 ZINC000003975327    0.0500
8      C8      2.8779   -3.3551   -0.2148 C.2      1 ZINC000003975327    0.0200
9      C9      3.8022   -2.2033   -0.5150 C.3      1 ZINC000003975327   -0.0800
10     O10     3.2223   -4.6525   -0.1088 O.3      1 ZINC000003975327   -0.1900
11     C11     2.1173   -5.3555    0.1866 C.2      1 ZINC000003975327    0.2000
12     N12     1.0971   -4.5510    0.2138 N.2      1 ZINC000003975327   -0.3900
13     C13     2.0812   -6.8256    0.4928 C.3      1 ZINC000003975327    0.1700
14     H14     2.3644   -6.9696    1.5430 H        1 ZINC000003975327    0.1400
15     C15     3.0943   -7.5857   -0.3808 C.3      1 ZINC000003975327   -0.1100
16     S16     2.1702   -9.1005   -0.8091 S.3      1 ZINC000003975327   -0.1600
17     C17     0.6003   -8.5079   -0.2565 C.2      1 ZINC000003975327    0.2800
18     N18     0.7453   -7.3595    0.3171 N.2      1 ZINC000003975327   -0.4500
19     C19    -0.6868   -9.2203   -0.3987 C.2      1 ZINC000003975327    0.0300
20     C20    -0.8651  -10.5310   -0.7143 C.2      1 ZINC000003975327    0.0000
21     O21    -2.1947  -10.7580   -0.7273 O.3      1 ZINC000003975327   -0.1800
22     C22    -2.8162   -9.6059   -0.4539 C.2      1 ZINC000003975327    0.2700
23     N23    -1.9156   -8.6776   -0.2137 N.2      1 ZINC000003975327   -0.3900
24     C24    -4.2697   -9.3348   -0.4406 C.2      1 ZINC000003975327    0.0600
25     C25    -5.3058  -10.2015   -0.5200 C.2      1 ZINC000003975327   -0.0100
26     O26    -6.4422   -9.4658   -0.4889 O.3      1 ZINC000003975327   -0.1800
27     C27    -6.0980   -8.1801   -0.3989 C.2      1 ZINC000003975327    0.2700
28     N28    -4.7854   -8.0870   -0.3380 N.2      1 ZINC000003975327   -0.3900
29     C29    -6.9472   -6.9694   -0.3880 C.2      1 ZINC000003975327    0.0600
30     C30    -8.2883   -6.8349   -0.4484 C.2      1 ZINC000003975327    0.0000
31     O31    -8.5566   -5.5064   -0.4187 O.3      1 ZINC000003975327   -0.1800
32     C32    -7.3965   -4.8546   -0.3386 C.2      1 ZINC000003975327    0.2700
33     N33    -6.4099   -5.7260   -0.3120 N.2      1 ZINC000003975327   -0.3900
34     C34    -7.1150   -3.4036   -0.2850 C.2      1 ZINC000003975327    0.0600
35     C35    -7.9430   -2.3396   -0.3015 C.2      1 ZINC000003975327    0.0000
36     O36    -7.1672   -1.2298   -0.2280 O.3      1 ZINC000003975327   -0.1800
37     C37    -5.8941   -1.6214   -0.1731 C.2      1 ZINC000003975327    0.2700
38     N38    -5.8429   -2.9364   -0.2048 N.2      1 ZINC000003975327   -0.3900
39     C39    -4.6485   -0.8282   -0.0922 C.2      1 ZINC000003975327    0.0600
40     C40    -4.4513    0.5040   -0.0312 C.2      1 ZINC000003975327    0.0000
41     O41    -3.1122    0.7067    0.0191 O.3      1 ZINC000003975327   -0.1800
42     C42    -2.5145   -0.4874   -0.0105 C.2      1 ZINC000003975327    0.2800
43     N43    -3.4301   -1.4282   -0.0667 N.2      1 ZINC000003975327   -0.3900
44     H44     1.0042    1.8801    0.0026 H        1 ZINC000003975327    0.0900
45     H45    -0.5455    1.8639   -0.8728 H        1 ZINC000003975327    0.1000
46     H46    -0.5286    1.8543    0.9071 H        1 ZINC000003975327    0.1000
47     H47     4.1941   -1.7991    0.4184 H        1 ZINC000003975327    0.1000
48     H48     4.6281   -2.5522   -1.1349 H        1 ZINC000003975327    0.0900
49     H49     3.2531   -1.4254   -1.0455 H        1 ZINC000003975327    0.1000
50     H50     3.3414   -7.0148   -1.2758 H        1 ZINC000003975327    0.1200
51     H51     3.9935   -7.8261    0.1864 H        1 ZINC000003975327    0.1400
52     H52    -0.0886  -11.2538   -0.9168 H        1 ZINC000003975327    0.2400
53     H53    -5.2390  -11.2769   -0.5941 H        1 ZINC000003975327    0.2400
54     H54    -9.0115   -7.6346   -0.5096 H        1 ZINC000003975327    0.2400
55     H55    -9.0210   -2.3662   -0.3619 H        1 ZINC000003975327    0.2400
56     H56    -5.2164    1.2662   -0.0242 H        1 ZINC000003975327    0.2400
@<TRIPOS>BOND
1     1     2     1
2     1     44    1
3     1     45    1
4     1     46    1
5     2     6     1
6     2     3     2
7     3     42    1
8     3     4     1
9     4     5     2
10    5     6     1
11    5     7     1
12    7     12    1
13    7     8     2
14    8     9     1
15    8     10    1
16    9     47    1
17    9     48    1
18    9     49    1
19    10    11    1
20    11    12    2
21    11    13    1
22    13    14    1
23    13    18    1
24    13    15    1
25    15    16    1
26    15    50    1
27    15    51    1
28    16    17    1
29    17    18    2
30    17    19    1
31    19    23    1
32    19    20    2
33    20    21    1
34    20    52    1
35    21    22    1
36    22    23    2
37    22    24    1
38    24    28    1
39    24    25    2
40    25    26    1
41    25    53    1
42    26    27    1
43    27    28    2
44    27    29    1
45    29    33    1
46    29    30    2
47    30    31    1
48    30    54    1
49    31    32    1
50    32    33    2
51    32    34    1
52    34    38    1
53    34    35    2
54    35    36    1
55    35    55    1
56    36    37    1
57    37    38    2
58    37    39    1
59    39    43    1
60    39    40    2
61    40    41    1
62    40    56    1
63    41    42    1
64    42    43    2
@<TRIPOS>SUBSTRUCTURE
1   ZINC000003975327 1     RESIDUE    1   A     ZIN   1
