@<TRIPOS>MOLECULE
ZINC000003964747
  52   55    0    0    0
SMALL
NO_CHARGES
@<TRIPOS>ATOM
   1 C1            -0.0178     1.4608     0.0101 C.3     
   2 N2             0.0021    -0.0041     0.0020 N.pl3   
   3 C3             0.6168    -0.6892     1.0242 C.2     
   4 N4             0.6345    -1.9927     1.0171 N.am    
   5 S5            -0.0831    -2.8237    -0.2226 S.o2    
   6 O6            -1.4779    -2.5723    -0.1198 O.2     
   7 O7             0.6745    -2.5361    -1.3899 O.2     
   8 C8             0.1383    -4.5410     0.1037 C.ar    
   9 C9             1.2590    -5.1958    -0.3721 C.ar    
  10 C10            1.4333    -6.5429    -0.1164 C.ar    
  11 C11            0.4858    -7.2360     0.6157 C.ar    
  12 Cl12           0.7042    -8.9279     0.9376 Cl      
  13 C13           -0.6356    -6.5801     1.0915 C.ar    
  14 C14           -0.8060    -5.2318     0.8401 C.ar    
  15 N15            1.2133     0.0014     2.0546 N.pl3   
  16 C16            1.9075    -0.6041     3.2021 C.3     
  17 C17            2.3713     0.6126     4.0272 C.3     
  18 H18            3.4585     0.6309     4.1035 H       
  19 C19            1.7468     0.5905     5.3985 C.ar    
  20 C20            0.3712     0.6154     5.5321 C.ar    
  21 C21           -0.2016     0.5951     6.7900 C.ar    
  22 C22            0.6012     0.5494     7.9144 C.ar    
  23 C23            1.9769     0.5235     7.7808 C.ar    
  24 C24            2.5496     0.5395     6.5228 C.ar    
  25 C25            1.8752     1.8007     3.2344 C.2     
  26 C26            2.0674     3.2141     3.6092 C.ar    
  27 C27            2.7603     3.5421     4.7769 C.ar    
  28 C28            2.9366     4.8657     5.1217 C.ar    
  29 C29            2.4280     5.8686     4.3134 C.ar    
  30 Cl30           2.6542     7.5323     4.7546 Cl      
  31 C31            1.7401     5.5501     3.1544 C.ar    
  32 C32            1.5623     4.2306     2.7950 C.ar    
  33 N33            1.2636     1.3884     2.1784 N.2     
  34 H34            1.0048     1.8381     0.0023 H       
  35 H35           -0.5450     1.8219    -0.8730 H       
  36 H36           -0.5280     1.8123     0.9069 H       
  37 H37           -0.4183    -0.4908    -0.7241 H       
  38 H38            1.9984    -4.6547    -0.9439 H       
  39 H39            2.3087    -7.0544    -0.4885 H       
  40 H40           -1.3757    -7.1207     1.6628 H       
  41 H41           -1.6811    -4.7196     1.2118 H       
  42 H42            1.2224    -1.2224     3.7823 H       
  43 H43            2.7638    -1.1894     2.8671 H       
  44 H44           -0.2561     0.6512     4.6536 H       
  45 H45           -1.2764     0.6153     6.8944 H       
  46 H46            0.1537     0.5342     8.8972 H       
  47 H47            2.6041     0.4882     8.6593 H       
  48 H48            3.6243     0.5193     6.4184 H       
  49 H49            3.1569     2.7609     5.4085 H       
  50 H50            3.4721     5.1207     6.0243 H       
  51 H51            1.3456     6.3369     2.5285 H       
  52 H52            1.0259     3.9835     1.8907 H       
@<TRIPOS>BOND
   1    1    2 1
   2    1   34 1
   3    1   35 1
   4    1   36 1
   5    2    3 1
   6    2   37 1
   7    3    4 2
   8    3   15 1
   9    4    5 am
  10    5    6 2
  11    5    7 2
  12    5    8 1
  13    8   14 ar
  14    8    9 ar
  15    9   10 ar
  16    9   38 1
  17   10   11 ar
  18   10   39 1
  19   11   12 1
  20   11   13 ar
  21   13   14 ar
  22   13   40 1
  23   14   41 1
  24   15   33 1
  25   15   16 1
  26   16   17 1
  27   16   42 1
  28   16   43 1
  29   17   18 1
  30   17   19 1
  31   17   25 1
  32   19   24 ar
  33   19   20 ar
  34   20   21 ar
  35   20   44 1
  36   21   22 ar
  37   21   45 1
  38   22   23 ar
  39   22   46 1
  40   23   24 ar
  41   23   47 1
  42   24   48 1
  43   25   26 1
  44   25   33 2
  45   26   32 ar
  46   26   27 ar
  47   27   28 ar
  48   27   49 1
  49   28   29 ar
  50   28   50 1
  51   29   30 1
  52   29   31 ar
  53   31   32 ar
  54   31   51 1
  55   32   52 1
