@<TRIPOS>MOLECULE
ZINC000003870818
  48   51    0    0    0
SMALL
USER_CHARGES
NO_NAME
@<TRIPOS>ATOM
    1 C1        0.0601     1.3286    -0.0233 C.3    1 <0>       0.0300
    2 O2        0.0924    -0.1000    -0.0162 O.3    1 <0>      -0.3100
    3 C3        0.7104    -0.6986     1.0376 C.ar   1 <0>       0.1000
    4 C4        1.2743     0.0666     2.0405 C.ar   1 <0>      -0.1900
    5 C5        1.9080    -0.5362     3.1220 C.ar   1 <0>      -0.0400
    6 C6        1.9768    -1.9086     3.1911 C.ar   1 <0>      -0.0900
    7 C7        1.4124    -2.6832     2.1851 C.ar   1 <0>      -0.1100
    8 C8        0.7799    -2.0872     1.1107 C.ar   1 <0>       0.0800
    9 O9        0.2292    -2.8528     0.1312 O.3    1 <0>      -0.4900
   10 C10       2.6468    -2.6278     4.3350 C.3    1 <0>      -0.0800
   11 C11       2.7115    -1.6934     5.5524 C.3    1 <0>      -0.1100
   12 C12       3.4140    -0.4162     5.1115 C.3    1 <0>      -0.0600
   13 H13       4.2992    -0.7209     4.5153 H      1 <0>       0.0700
   14 C14       3.8909     0.4744     6.2110 C.3    1 <0>      -0.0800
   15 H15       4.5096     1.2756     5.7404 H      1 <0>       0.0700
   16 C16       4.7351    -0.1207     7.3410 C.3    1 <0>      -0.1100
   17 C17       4.7400     1.0256     8.3933 C.3    1 <0>      -0.1600
   18 C18       3.5692     1.9716     8.0187 C.3    1 <0>       0.1000
   19 H19       3.9385     2.8846     7.5665 H      1 <0>       0.0600
   20 O20       2.7629     2.2477     9.1627 O.3    1 <0>      -0.5600
   21 C21       2.7549     1.1666     6.9881 C.3    1 <0>      -0.0500
   22 C22       1.8741     0.1898     7.7642 C.3    1 <0>      -0.1300
   23 C23       1.9243     1.9915     6.0313 C.3    1 <0>      -0.1000
   24 C24       1.3768     1.0760     4.9283 C.3    1 <0>      -0.1100
   25 C25       2.4983     0.3718     4.1699 C.3    1 <0>      -0.0400
   26 H26       3.1025     1.1353     3.6650 H      1 <0>       0.0800
   27 H27       1.0793     1.7151    -0.0233 H      1 <0>       0.0600
   28 H28      -0.4602     1.6759    -0.9159 H      1 <0>       0.1000
   29 H29      -0.4634     1.6846     0.8641 H      1 <0>       0.0600
   30 H30       1.2242     1.1443     1.9842 H      1 <0>       0.1300
   31 H31       1.4660    -3.7602     2.2443 H      1 <0>       0.1300
   32 H32      -0.6949    -3.0895     0.2896 H      1 <0>       0.3900
   33 H33       2.0701    -3.5113     4.5959 H      1 <0>       0.0800
   34 H34       3.6554    -2.9102     4.0478 H      1 <0>       0.0800
   35 H35       1.6868    -1.4851     5.8607 H      1 <0>       0.0700
   36 H36       3.2610    -2.1795     6.3534 H      1 <0>       0.0700
   37 H37       4.2950    -1.0255     7.7452 H      1 <0>       0.0700
   38 H38       5.7533    -0.3150     6.9930 H      1 <0>       0.0600
   39 H39       4.5899     0.6179     9.3914 H      1 <0>       0.0700
   40 H40       5.6843     1.5680     8.3458 H      1 <0>       0.0700
   41 H41       3.2354     2.6943     9.8785 H      1 <0>       0.3700
   42 H42       1.2859     0.7373     8.5007 H      1 <0>       0.0700
   43 H43       1.2049    -0.3234     7.0736 H      1 <0>       0.0600
   44 H44       2.5027    -0.5416     8.2721 H      1 <0>       0.0500
   45 H45       1.0919     2.4553     6.5677 H      1 <0>       0.0700
   46 H46       2.5400     2.7767     5.5856 H      1 <0>       0.0600
   47 H47       0.7022     0.3379     5.3502 H      1 <0>       0.0700
   48 H48       0.8118     1.6893     4.2190 H      1 <0>       0.0600
@<TRIPOS>BOND
   1    1    2 1
   2    1   27 1
   3    1   28 1
   4    1   29 1
   5    2    3 1
   6    3    8 ar
   7    3    4 ar
   8    4    5 ar
   9    4   30 1
  10    5   25 1
  11    5    6 ar
  12    6    7 ar
  13    6   10 1
  14    7    8 ar
  15    7   31 1
  16    8    9 1
  17    9   32 1
  18   10   11 1
  19   10   33 1
  20   10   34 1
  21   11   12 1
  22   11   35 1
  23   11   36 1
  24   12   13 1
  25   12   25 1
  26   12   14 1
  27   14   15 1
  28   14   21 1
  29   14   16 1
  30   16   17 1
  31   16   37 1
  32   16   38 1
  33   17   18 1
  34   17   39 1
  35   17   40 1
  36   18   19 1
  37   18   20 1
  38   18   21 1
  39   20   41 1
  40   21   22 1
  41   21   23 1
  42   22   42 1
  43   22   43 1
  44   22   44 1
  45   23   24 1
  46   23   45 1
  47   23   46 1
  48   24   25 1
  49   24   47 1
  50   24   48 1
  51   25   26 1
