@<TRIPOS>MOLECULE
ZINC000257354192
51    52    1     0     0
SMALL
USER_CHARGES
@<TRIPOS>ATOM
1      C1      1.5199    2.1911    0.0072 C.3      1 ZINC000257354192   -0.1400
2      C2      0.6056    1.0081    0.3320 C.3      1 ZINC000257354192   -0.5600
3      C3      1.0750    0.3411    1.6265 C.3      1 ZINC000257354192   -0.1500
4      C4     -0.8304    1.5062    0.5066 C.3      1 ZINC000257354192   -0.1400
5      S5      0.6677   -0.1944   -1.0247 S.o2     1 ZINC000257354192    2.6100
6      O6      0.0942   -1.4306   -0.6220 O.2      1 ZINC000257354192   -0.9500
7      O7      0.2986    0.4191   -2.2521 O.2      1 ZINC000257354192   -0.9500
8      N8      2.2791   -0.5313   -1.2049 N.am     1 ZINC000257354192   -1.1100
9      C9      3.0055   -1.2271   -0.1398 C.3      1 ZINC000257354192    0.1400
10     H10     2.3375   -1.3969    0.7046 H        1 ZINC000257354192    0.1000
11     C11     3.5163   -2.5705   -0.6643 C.3      1 ZINC000257354192   -0.1300
12     C12     4.2750   -3.2972    0.4480 C.3      1 ZINC000257354192   -0.1000
13     C13     5.4605   -2.4419    0.8997 C.3      1 ZINC000257354192   -0.1100
14     H14     6.1285   -2.2720    0.0553 H        1 ZINC000257354192    0.1100
15     C15     6.2078   -3.1576    1.9953 C.2      1 ZINC000257354192    0.5100
16     O16     5.8294   -4.2447    2.3773 O.2      1 ZINC000257354192   -0.4600
17     N17     7.2966   -2.5897    2.5506 N.am     1 ZINC000257354192   -0.6600
18     C18     8.0285   -3.2813    3.5147 C.ar     1 ZINC000257354192    0.3900
19     C19     9.1037   -2.6604    4.1395 C.ar     1 ZINC000257354192   -0.2100
20     C20     9.8218   -3.3584    5.0948 C.ar     1 ZINC000257354192    0.0100
21     C21     9.4377   -4.6584    5.3930 C.ar     1 ZINC000257354192   -0.2800
22     C22    10.1899   -5.4564    6.4267 C.3      1 ZINC000257354192    0.5200
23     F23     9.6146   -5.2494    7.6850 F        1 ZINC000257354192   -0.1700
24     F24    10.1267   -6.8160    6.1030 F        1 ZINC000257354192   -0.1700
25     F25    11.5267   -5.0447    6.4516 F        1 ZINC000257354192   -0.1800
26     C26     8.3587   -5.2129    4.7328 C.ar     1 ZINC000257354192    0.1900
27     N27     7.6897   -4.5214    3.8305 N.ar     1 ZINC000257354192   -0.4800
28     C28     4.9497   -1.0985    1.4242 C.3      1 ZINC000257354192   -0.1100
29     C29     4.1910   -0.3718    0.3118 C.3      1 ZINC000257354192   -0.1400
30     H30     2.5429    1.8362   -0.1171 H        1 ZINC000257354192    0.0700
31     H31     1.1855    2.6662   -0.9150 H        1 ZINC000257354192    0.0700
32     H32     1.4825    2.9136    0.8225 H        1 ZINC000257354192    0.0800
33     H33     0.9021    1.0148    2.4658 H        1 ZINC000257354192    0.0800
34     H34     0.5182   -0.5830    1.7818 H        1 ZINC000257354192    0.0800
35     H35     2.1391    0.1164    1.5543 H        1 ZINC000257354192    0.0800
36     H36    -1.1648    1.9814   -0.4156 H        1 ZINC000257354192    0.0700
37     H37    -1.4818    0.6634    0.7380 H        1 ZINC000257354192    0.0700
38     H38    -0.8678    2.2288    1.3218 H        1 ZINC000257354192    0.0800
39     H39     2.7419   -0.2679   -2.0156 H        1 ZINC000257354192    0.4200
40     H40     2.6717   -3.1798   -0.9861 H        1 ZINC000257354192    0.0800
41     H41     4.1843   -2.4006   -1.5087 H        1 ZINC000257354192    0.0700
42     H42     3.6070   -3.4670    1.2924 H        1 ZINC000257354192    0.0800
43     H43     4.6389   -4.2542    0.0743 H        1 ZINC000257354192    0.0800
44     H44     7.5709   -1.6997    2.2795 H        1 ZINC000257354192    0.4200
45     H45     9.3753   -1.6472    3.8828 H        1 ZINC000257354192    0.1500
46     H46    10.6622   -2.9020    5.5966 H        1 ZINC000257354192    0.1500
47     H47     8.0561   -6.2241    4.9615 H        1 ZINC000257354192    0.1700
48     H48     4.2817   -1.2683    2.2686 H        1 ZINC000257354192    0.0800
49     H49     5.7943   -0.4892    1.7459 H        1 ZINC000257354192    0.0700
50     H50     4.8591   -0.2019   -0.5325 H        1 ZINC000257354192    0.0800
51     H51     3.8271    0.5853    0.6855 H        1 ZINC000257354192    0.0800
@<TRIPOS>BOND
1     1     2     1
2     1     30    1
3     1     31    1
4     1     32    1
5     2     3     1
6     2     4     1
7     2     5     1
8     3     33    1
9     3     34    1
10    3     35    1
11    4     36    1
12    4     37    1
13    4     38    1
14    5     6     2
15    5     7     2
16    5     8     am
17    8     9     1
18    8     39    1
19    9     10    1
20    9     29    1
21    9     11    1
22    11    12    1
23    11    40    1
24    11    41    1
25    12    13    1
26    12    42    1
27    12    43    1
28    13    14    1
29    13    15    1
30    13    28    1
31    15    16    2
32    15    17    am
33    17    18    1
34    17    44    1
35    18    27    ar
36    18    19    ar
37    19    20    ar
38    19    45    1
39    20    21    ar
40    20    46    1
41    21    22    1
42    21    26    ar
43    22    23    1
44    22    24    1
45    22    25    1
46    26    27    ar
47    26    47    1
48    28    29    1
49    28    48    1
50    28    49    1
51    29    50    1
52    29    51    1
@<TRIPOS>SUBSTRUCTURE
1   ZINC000257354192 1     RESIDUE    1   A     ZIN   1
