@<TRIPOS>MOLECULE
ZINC000003936035
58    60    1     0     0
SMALL
USER_CHARGES
@<TRIPOS>ATOM
1      C1     -3.2645   -0.3206    1.4701 C.3      1 ZINC000003936035   -0.1200
2      C2     -2.4907   -1.6067    1.3359 C.ar     1 ZINC000003936035   -0.0300
3      C3     -2.5295   -2.3156    0.1504 C.ar     1 ZINC000003936035   -0.1800
4      C4     -1.8180   -3.4972    0.0272 C.ar     1 ZINC000003936035    0.1200
5      F5     -1.8549   -4.1909   -1.1315 F        1 ZINC000003936035   -0.1400
6      C6     -1.0685   -3.9669    1.0922 C.ar     1 ZINC000003936035   -0.1900
7      C7     -1.0311   -3.2561    2.2770 C.ar     1 ZINC000003936035    0.0100
8      C8     -1.7375   -2.0741    2.3971 C.ar     1 ZINC000003936035   -0.1400
9      C9     -1.6955   -1.2997    3.6893 C.3      1 ZINC000003936035    0.1700
10     H10    -1.7275   -0.2311    3.4769 H        1 ZINC000003936035    0.0900
11     C11    -2.8948   -1.6874    4.5609 C.3      1 ZINC000003936035    0.0500
12     N12    -2.7660   -1.0486    5.8774 N.3      1 ZINC000003936035   -0.6800
13     C13    -1.5733   -1.5283    6.5881 C.3      1 ZINC000003936035    0.0400
14     C14    -0.3199   -1.1341    5.7996 C.3      1 ZINC000003936035    0.0400
15     N15    -0.4595   -1.6219    4.4183 N.am     1 ZINC000003936035   -0.6300
16     C16     0.5161   -2.3500    3.8399 C.2      1 ZINC000003936035    0.7000
17     O17     0.6657   -2.3166    2.6337 O.2      1 ZINC000003936035   -0.5400
18     N18     1.3259   -3.1150    4.5985 N.am     1 ZINC000003936035   -0.6200
19     C19     1.0238   -3.3182    6.0175 C.3      1 ZINC000003936035    0.0600
20     C20     2.5082   -3.7434    4.0040 C.3      1 ZINC000003936035    0.1900
21     H21     2.5094   -3.5701    2.9278 H        1 ZINC000003936035    0.1300
22     C22     2.4782   -5.2483    4.2782 C.3      1 ZINC000003936035   -0.1700
23     C23     3.7524   -3.1471    4.6102 C.ar     1 ZINC000003936035   -0.1000
24     C24     3.8603   -1.7770    4.7593 C.ar     1 ZINC000003936035   -0.0200
25     C25     5.0016   -1.2300    5.3153 C.ar     1 ZINC000003936035   -0.1800
26     C26     5.1194    0.2636    5.4774 C.3      1 ZINC000003936035    0.5100
27     F27     4.6135    0.6385    6.7267 F        1 ZINC000003936035   -0.1700
28     F28     6.4645    0.6377    5.3876 F        1 ZINC000003936035   -0.1700
29     F29     4.3897    0.9011    4.4683 F        1 ZINC000003936035   -0.1700
30     C30     6.0346   -2.0532    5.7231 C.ar     1 ZINC000003936035   -0.0200
31     C31     5.9265   -3.4232    5.5745 C.ar     1 ZINC000003936035   -0.1800
32     C32     7.0528   -4.3205    6.0187 C.3      1 ZINC000003936035    0.5100
33     F33     8.0896   -3.5421    6.5443 F        1 ZINC000003936035   -0.1700
34     F34     6.5875   -5.2019    7.0005 F        1 ZINC000003936035   -0.1700
35     F35     7.5270   -5.0506    4.9235 F        1 ZINC000003936035   -0.1700
36     C36     4.7834   -3.9705    5.0224 C.ar     1 ZINC000003936035   -0.0300
37     H37    -2.6382    0.5147    1.1568 H        1 ZINC000003936035    0.0700
38     H38    -4.1535   -0.3641    0.8409 H        1 ZINC000003936035    0.0700
39     H39    -3.5615   -0.1820    2.5097 H        1 ZINC000003936035    0.0700
40     H40    -3.1149   -1.9484   -0.6796 H        1 ZINC000003936035    0.1300
41     H41    -0.5134   -4.8885    0.9974 H        1 ZINC000003936035    0.1300
42     H42    -0.4465   -3.6223    3.1080 H        1 ZINC000003936035    0.1200
43     H43    -3.8153   -1.3527    4.0827 H        1 ZINC000003936035    0.1000
44     H44    -2.9208   -2.7703    4.6830 H        1 ZINC000003936035    0.0800
45     H45    -2.7562   -0.0433    5.7921 H        1 ZINC000003936035    0.3500
46     H46    -1.5354   -1.0783    7.5802 H        1 ZINC000003936035    0.0900
47     H47    -1.6176   -2.6134    6.6820 H        1 ZINC000003936035    0.0800
48     H48    -0.2177   -0.0490    5.7930 H        1 ZINC000003936035    0.0700
49     H49     0.5593   -1.5847    6.2602 H        1 ZINC000003936035    0.1100
50     H50    -0.0485   -3.2091    6.1800 H        1 ZINC000003936035    0.0900
51     H51     1.3365   -4.3188    6.3159 H        1 ZINC000003936035    0.0800
52     H52     1.5586   -2.5778    6.6125 H        1 ZINC000003936035    0.0600
53     H53     3.3579   -5.7159    3.8359 H        1 ZINC000003936035    0.0800
54     H54     2.4770   -5.4216    5.3544 H        1 ZINC000003936035    0.0700
55     H55     1.5783   -5.6796    3.8398 H        1 ZINC000003936035    0.0700
56     H56     3.0531   -1.1340    4.4410 H        1 ZINC000003936035    0.1400
57     H57     6.9262   -1.6258    6.1576 H        1 ZINC000003936035    0.1500
58     H58     4.6990   -5.0409    4.9062 H        1 ZINC000003936035    0.1500
@<TRIPOS>BOND
1     1     2     1
2     1     37    1
3     1     38    1
4     1     39    1
5     2     8     ar
6     2     3     ar
7     3     4     ar
8     3     40    1
9     4     5     1
10    4     6     ar
11    6     7     ar
12    6     41    1
13    7     8     ar
14    7     42    1
15    8     9     1
16    9     10    1
17    9     15    1
18    9     11    1
19    11    12    1
20    11    43    1
21    11    44    1
22    12    13    1
23    12    45    1
24    13    14    1
25    13    46    1
26    13    47    1
27    14    15    1
28    14    48    1
29    14    49    1
30    15    16    am
31    16    17    2
32    16    18    am
33    18    19    1
34    18    20    1
35    19    50    1
36    19    51    1
37    19    52    1
38    20    21    1
39    20    22    1
40    20    23    1
41    22    53    1
42    22    54    1
43    22    55    1
44    23    36    ar
45    23    24    ar
46    24    25    ar
47    24    56    1
48    25    26    1
49    25    30    ar
50    26    27    1
51    26    28    1
52    26    29    1
53    30    31    ar
54    30    57    1
55    31    32    1
56    31    36    ar
57    32    33    1
58    32    34    1
59    32    35    1
60    36    58    1
@<TRIPOS>SUBSTRUCTURE
1   ZINC000003936035 1     RESIDUE    1   A     ZIN   1
