@<TRIPOS>MOLECULE
ZINC000013980453
49    51    1     0     0
SMALL
USER_CHARGES
@<TRIPOS>ATOM
1      C1     -0.0003    1.4428    0.2842 C.3      1 ZINC000013980453    0.0900
2      N2      0.0151   -0.0184    0.1801 N.am     1 ZINC000013980453   -0.7300
3      C3     -1.1435   -0.7069    0.1895 C.2      1 ZINC000013980453    0.5600
4      O4     -2.2012   -0.1155    0.2843 O.2      1 ZINC000013980453   -0.5300
5      C5     -1.1280   -2.1817    0.0845 C.ar     1 ZINC000013980453   -0.1300
6      C6      0.0856   -2.8636   -0.0188 C.ar     1 ZINC000013980453   -0.0600
7      C7      0.0972   -4.2403   -0.1167 C.ar     1 ZINC000013980453   -0.1200
8      C8     -1.0899   -4.9480   -0.1135 C.ar     1 ZINC000013980453   -0.0300
9      C9     -1.0684   -6.4510   -0.2214 C.3      1 ZINC000013980453   -0.1200
10     C10    -2.3034   -4.2783   -0.0107 C.ar     1 ZINC000013980453    0.0900
11     N11    -3.5037   -5.0004   -0.0070 N.am     1 ZINC000013980453   -0.4500
12     C12    -4.0265   -5.4243    1.1758 C.2      1 ZINC000013980453    0.2100
13     C13    -3.3066   -5.1106    2.4620 C.3      1 ZINC000013980453   -0.1300
14     C14    -5.1819   -6.1220    1.2121 C.2      1 ZINC000013980453   -0.2600
15     C15    -5.8597   -6.4178    0.0125 C.2      1 ZINC000013980453    0.2500
16     O16    -7.0203   -7.1165    0.0327 O.3      1 ZINC000013980453   -0.3100
17     C17    -6.9527   -8.4741    0.4736 C.3      1 ZINC000013980453    0.1200
18     C18    -8.3032   -9.1228    0.3116 C.ar     1 ZINC000013980453   -0.1400
19     C19    -9.3601   -8.3979   -0.2052 C.ar     1 ZINC000013980453   -0.0400
20     C20   -10.5993   -8.9917   -0.3548 C.ar     1 ZINC000013980453   -0.1600
21     C21   -10.7830  -10.3137    0.0130 C.ar     1 ZINC000013980453    0.1300
22     F22   -11.9942  -10.8940   -0.1337 F        1 ZINC000013980453   -0.1300
23     C23    -9.7249  -11.0410    0.5309 C.ar     1 ZINC000013980453   -0.1900
24     C24    -8.4833  -10.4470    0.6753 C.ar     1 ZINC000013980453    0.1400
25     F25    -7.4498  -11.1555    1.1805 F        1 ZINC000013980453   -0.1300
26     C26    -5.3224   -5.9837   -1.1856 C.2      1 ZINC000013980453   -0.2600
27     Br27   -6.1979   -6.3581   -2.8194 Br       1 ZINC000013980453    0.0100
28     C28    -4.1245   -5.2592   -1.1728 C.2      1 ZINC000013980453    0.5400
29     O29    -3.6372   -4.8688   -2.2225 O.2      1 ZINC000013980453   -0.5100
30     C30    -2.3257   -2.8966    0.0940 C.ar     1 ZINC000013980453   -0.0300
31     H31     1.0222    1.8196    0.2596 H        1 ZINC000013980453    0.0800
32     H32    -0.5618    1.8607   -0.5514 H        1 ZINC000013980453    0.0600
33     H33    -0.4729    1.7353    1.2219 H        1 ZINC000013980453    0.0600
34     H34     0.8591   -0.4904    0.1045 H        1 ZINC000013980453    0.4000
35     H35     1.0153   -2.3140   -0.0223 H        1 ZINC000013980453    0.1400
36     H36     1.0372   -4.7662   -0.1965 H        1 ZINC000013980453    0.1400
37     H37    -1.0170   -6.8862    0.7766 H        1 ZINC000013980453    0.0800
38     H38    -1.9753   -6.7925   -0.7204 H        1 ZINC000013980453    0.0700
39     H39    -0.1973   -6.7615   -0.7984 H        1 ZINC000013980453    0.0800
40     H40    -3.6609   -4.1570    2.8535 H        1 ZINC000013980453    0.1000
41     H41    -3.5033   -5.8978    3.1899 H        1 ZINC000013980453    0.1000
42     H42    -2.2348   -5.0501    2.2731 H        1 ZINC000013980453    0.0800
43     H43    -5.5854   -6.4526    2.1578 H        1 ZINC000013980453    0.1600
44     H44    -6.2166   -9.0135   -0.1226 H        1 ZINC000013980453    0.0800
45     H45    -6.6602   -8.5011    1.5233 H        1 ZINC000013980453    0.0800
46     H46    -9.2178   -7.3664   -0.4921 H        1 ZINC000013980453    0.1600
47     H47   -11.4247   -8.4240   -0.7585 H        1 ZINC000013980453    0.1500
48     H48    -9.8673  -12.0723    0.8181 H        1 ZINC000013980453    0.1500
49     H49    -3.2677   -2.3744    0.1739 H        1 ZINC000013980453    0.1400
@<TRIPOS>BOND
1     1     2     1
2     1     31    1
3     1     32    1
4     1     33    1
5     2     3     am
6     2     34    1
7     3     4     2
8     3     5     1
9     5     30    ar
10    5     6     ar
11    6     7     ar
12    6     35    1
13    7     8     ar
14    7     36    1
15    8     9     1
16    8     10    ar
17    9     37    1
18    9     38    1
19    9     39    1
20    10    11    1
21    10    30    ar
22    11    28    am
23    11    12    1
24    12    13    1
25    12    14    2
26    13    40    1
27    13    41    1
28    13    42    1
29    14    15    1
30    14    43    1
31    15    16    1
32    15    26    2
33    16    17    1
34    17    18    1
35    17    44    1
36    17    45    1
37    18    24    ar
38    18    19    ar
39    19    20    ar
40    19    46    1
41    20    21    ar
42    20    47    1
43    21    22    1
44    21    23    ar
45    23    24    ar
46    23    48    1
47    24    25    1
48    26    27    1
49    26    28    1
50    28    29    2
51    30    49    1
@<TRIPOS>SUBSTRUCTURE
1   ZINC000013980453 1     RESIDUE    1   A     ZIN   1
