@<TRIPOS>MOLECULE
ZINC000144293869
77    77    1     0     0
SMALL
USER_CHARGES
@<TRIPOS>ATOM
1      C1     -0.0187    1.5258    0.0104 C.3      1 ZINC000144293869   -0.1500
2      C2      0.0021   -0.0041    0.0020 C.3      1 ZINC000144293869   -0.1300
3      C3     -1.4333   -0.5336    0.0129 C.3      1 ZINC000144293869   -0.1200
4      C4     -1.4126   -2.0635    0.0045 C.3      1 ZINC000144293869   -0.1200
5      C5     -2.8479   -2.5931    0.0153 C.3      1 ZINC000144293869   -0.1200
6      C6     -2.8272   -4.1229    0.0069 C.3      1 ZINC000144293869   -0.1200
7      C7     -4.2626   -4.6525    0.0178 C.3      1 ZINC000144293869   -0.1200
8      C8     -4.2418   -6.1823    0.0094 C.3      1 ZINC000144293869   -0.1200
9      C9     -5.6772   -6.7119    0.0202 C.3      1 ZINC000144293869   -0.1200
10     C10    -5.6565   -8.2417    0.0118 C.3      1 ZINC000144293869   -0.1200
11     C11    -7.0918   -8.7713    0.0227 C.3      1 ZINC000144293869   -0.1200
12     C12    -7.0711  -10.3012    0.0143 C.3      1 ZINC000144293869   -0.1200
13     C13    -8.5065  -10.8307    0.0251 C.3      1 ZINC000144293869   -0.1200
14     C14    -8.4857  -12.3606    0.0167 C.3      1 ZINC000144293869    0.0500
15     O15    -9.8264  -12.8552    0.0268 O.3      1 ZINC000144293869   -0.2600
16     C16    -9.9855  -14.1993    0.0211 C.2      1 ZINC000144293869    0.2500
17     C17   -11.1784  -14.8556    0.0236 C.2      1 ZINC000144293869   -0.2500
18     C18   -10.8965  -16.2252    0.0157 C.2      1 ZINC000144293869   -0.0500
19     C19    -9.5223  -16.3465    0.0087 C.2      1 ZINC000144293869   -0.1100
20     C20    -8.7931  -17.5604   -0.0005 C.2      1 ZINC000144293869    0.5600
21     O21    -9.3832  -18.6248   -0.0028 O.2      1 ZINC000144293869   -0.4900
22     O22    -7.4435  -17.5369   -0.0067 O.3      1 ZINC000144293869   -0.3200
23     C23    -6.7727  -18.7987   -0.0158 C.3      1 ZINC000144293869    0.0500
24     C24    -5.2824  -18.5753   -0.0217 C.2      1 ZINC000144293869    0.5200
25     O25    -4.8384  -17.4467   -0.0184 O.2      1 ZINC000144293869   -0.5100
26     N26    -4.4430  -19.6297   -0.0307 N.am     1 ZINC000144293869   -0.6000
27     C27    -4.9793  -20.9930   -0.0347 C.3      1 ZINC000144293869    0.0700
28     C28    -2.9942  -19.4125   -0.0364 C.3      1 ZINC000144293869    0.1300
29     C29    -2.4908  -19.3448    1.3824 C.2      1 ZINC000144293869    0.4400
30     O30    -3.2630  -19.4656    2.3038 O.2      1 ZINC000144293869   -0.5000
31     O31    -1.1845  -19.1504    1.6225 O.3      1 ZINC000144293869   -0.3600
32     C32    -0.7709  -19.0960    3.0133 C.3      1 ZINC000144293869    0.0600
33     C33     0.7405  -18.8699    3.0874 C.3      1 ZINC000144293869   -0.1500
34     O34    -8.9948  -15.1014    0.0064 O.3      1 ZINC000144293869   -0.1700
35     H35     1.0039    1.9031    0.0027 H        1 ZINC000144293869    0.0500
36     H36    -0.5459    1.8868   -0.8726 H        1 ZINC000144293869    0.0500
37     H37    -0.5289    1.8773    0.9072 H        1 ZINC000144293869    0.0500
38     H38     0.5123   -0.3556   -0.8948 H        1 ZINC000144293869    0.0600
39     H39     0.5293   -0.3651    0.8851 H        1 ZINC000144293869    0.0600
40     H40    -1.9435   -0.1821    0.9097 H        1 ZINC000144293869    0.0600
41     H41    -1.9605   -0.1726   -0.8702 H        1 ZINC000144293869    0.0600
42     H42    -0.9024   -2.4150   -0.8923 H        1 ZINC000144293869    0.0600
43     H43    -0.8854   -2.4246    0.8875 H        1 ZINC000144293869    0.0600
44     H44    -3.3581   -2.2415    0.9121 H        1 ZINC000144293869    0.0600
45     H45    -3.3751   -2.2320   -0.8677 H        1 ZINC000144293869    0.0600
46     H46    -2.3170   -4.4744   -0.8899 H        1 ZINC000144293869    0.0600
47     H47    -2.3000   -4.4840    0.8900 H        1 ZINC000144293869    0.0600
48     H48    -4.7728   -4.3010    0.9146 H        1 ZINC000144293869    0.0600
49     H49    -4.7898   -4.2914   -0.8653 H        1 ZINC000144293869    0.0600
50     H50    -3.7316   -6.5338   -0.8874 H        1 ZINC000144293869    0.0600
51     H51    -3.7146   -6.5434    0.8924 H        1 ZINC000144293869    0.0600
52     H52    -6.1874   -6.3604    0.9170 H        1 ZINC000144293869    0.0600
53     H53    -6.2044   -6.3508   -0.8628 H        1 ZINC000144293869    0.0600
54     H54    -5.1463   -8.5933   -0.8850 H        1 ZINC000144293869    0.0600
55     H55    -5.1293   -8.6028    0.8949 H        1 ZINC000144293869    0.0600
56     H56    -7.6020   -8.4198    0.9195 H        1 ZINC000144293869    0.0600
57     H57    -7.6190   -8.4102   -0.8604 H        1 ZINC000144293869    0.0600
58     H58    -6.5609  -10.6527   -0.8825 H        1 ZINC000144293869    0.0700
59     H59    -6.5439  -10.6622    0.8973 H        1 ZINC000144293869    0.0700
60     H60    -9.0167  -10.4792    0.9219 H        1 ZINC000144293869    0.0800
61     H61    -9.0337  -10.4697   -0.8579 H        1 ZINC000144293869    0.0800
62     H62    -7.9755  -12.7121   -0.8801 H        1 ZINC000144293869    0.0700
63     H63    -7.9586  -12.7217    0.8998 H        1 ZINC000144293869    0.0700
64     H64   -12.1589  -14.4030    0.0306 H        1 ZINC000144293869    0.1700
65     H65   -11.6151  -17.0314    0.0155 H        1 ZINC000144293869    0.1800
66     H66    -7.0518  -19.3650    0.8728 H        1 ZINC000144293869    0.1100
67     H67    -7.0601  -19.3565   -0.9072 H        1 ZINC000144293869    0.1100
68     H68    -5.1172  -21.3262   -1.0633 H        1 ZINC000144293869    0.0700
69     H69    -4.2818  -21.6593    0.4727 H        1 ZINC000144293869    0.0800
70     H70    -5.9381  -21.0077    0.4836 H        1 ZINC000144293869    0.0800
71     H71    -2.5054  -20.2363   -0.5565 H        1 ZINC000144293869    0.1300
72     H72    -2.7692  -18.4761   -0.5468 H        1 ZINC000144293869    0.1300
73     H73    -1.2859  -18.2760    3.5137 H        1 ZINC000144293869    0.0700
74     H74    -1.0221  -20.0363    3.5041 H        1 ZINC000144293869    0.0700
75     H75     1.0510  -18.8291    4.1314 H        1 ZINC000144293869    0.0800
76     H76     1.2555  -19.6899    2.5869 H        1 ZINC000144293869    0.0700
77     H77     0.9917  -17.9296    2.5966 H        1 ZINC000144293869    0.0700
@<TRIPOS>BOND
1     1     2     1
2     1     35    1
3     1     36    1
4     1     37    1
5     2     3     1
6     2     38    1
7     2     39    1
8     3     4     1
9     3     40    1
10    3     41    1
11    4     5     1
12    4     42    1
13    4     43    1
14    5     6     1
15    5     44    1
16    5     45    1
17    6     7     1
18    6     46    1
19    6     47    1
20    7     8     1
21    7     48    1
22    7     49    1
23    8     9     1
24    8     50    1
25    8     51    1
26    9     10    1
27    9     52    1
28    9     53    1
29    10    11    1
30    10    54    1
31    10    55    1
32    11    12    1
33    11    56    1
34    11    57    1
35    12    13    1
36    12    58    1
37    12    59    1
38    13    14    1
39    13    60    1
40    13    61    1
41    14    15    1
42    14    62    1
43    14    63    1
44    15    16    1
45    16    34    1
46    16    17    2
47    17    18    1
48    17    64    1
49    18    19    2
50    18    65    1
51    19    20    1
52    19    34    1
53    20    21    2
54    20    22    1
55    22    23    1
56    23    24    1
57    23    66    1
58    23    67    1
59    24    25    2
60    24    26    am
61    26    27    1
62    26    28    1
63    27    68    1
64    27    69    1
65    27    70    1
66    28    29    1
67    28    71    1
68    28    72    1
69    29    30    2
70    29    31    1
71    31    32    1
72    32    33    1
73    32    73    1
74    32    74    1
75    33    75    1
76    33    76    1
77    33    77    1
@<TRIPOS>SUBSTRUCTURE
1   ZINC000144293869 1     RESIDUE    1   A     ZIN   1
