@<TRIPOS>MOLECULE
ZINC000113459996
80    84    1     0     0
SMALL
USER_CHARGES
@<TRIPOS>ATOM
1      C1     -0.3864    0.6709    0.4628 C.3      1 ZINC000113459996    0.0200
2      O2     -0.2449   -0.7509    0.4381 O.3      1 ZINC000113459996   -0.3100
3      C3      0.3573   -1.2921   -0.6534 C.ar     1 ZINC000113459996    0.1900
4      C4      0.8080   -0.4712   -1.6769 C.ar     1 ZINC000113459996   -0.2300
5      C5      1.4202   -1.0238   -2.7851 C.ar     1 ZINC000113459996    0.0400
6      C6      1.5835   -2.3939   -2.8750 C.ar     1 ZINC000113459996   -0.6900
7      S7      2.3643   -3.0956   -4.2901 S.o2     1 ZINC000113459996    2.7000
8      O8      1.9098   -4.4393   -4.3742 O.2      1 ZINC000113459996   -0.9700
9      O9      2.2070   -2.1546   -5.3432 O.2      1 ZINC000113459996   -0.9700
10     N10     3.9870   -3.1702   -3.9682 N.am     1 ZINC000113459996   -1.1000
11     C11     4.4821   -4.0382   -2.8969 C.3      1 ZINC000113459996    0.0600
12     H12     3.7740   -4.8500   -2.7305 H        1 ZINC000113459996    0.1000
13     C13     5.8395   -4.6194   -3.2977 C.3      1 ZINC000113459996    0.1200
14     N14     5.7176   -5.2983   -4.5902 N.pl3    1 ZINC000113459996   -0.6200
15     C15     6.8249   -5.9065   -5.1608 C.ar     1 ZINC000113459996    0.4800
16     N16     8.0028   -5.8843   -4.5399 N.ar     1 ZINC000113459996   -0.5100
17     C17     9.0603   -6.4599   -5.0751 C.ar     1 ZINC000113459996    0.4400
18     C18    10.3729   -6.4097   -4.3366 C.3      1 ZINC000113459996   -0.1300
19     N19     9.0033   -7.0782   -6.2369 N.ar     1 ZINC000113459996   -0.5700
20     H20     9.8030   -7.4909   -6.5990 H        1 ZINC000113459996    0.4300
21     C21     7.8623   -7.1446   -6.9208 C.ar     1 ZINC000113459996    0.3500
22     N22     7.8115   -7.7978   -8.1425 N.3      1 ZINC000113459996   -0.4800
23     C23     8.1935   -9.2087   -8.0011 C.3      1 ZINC000113459996    0.0400
24     C24     7.9868   -9.9306   -9.3346 C.3      1 ZINC000113459996   -0.1100
25     C25     8.8410   -9.2567  -10.4120 C.3      1 ZINC000113459996   -0.0700
26     C26     8.5961   -9.9254  -11.7401 C.ar     1 ZINC000113459996    0.1700
27     C27     7.3343  -10.3941  -12.0451 C.ar     1 ZINC000113459996   -0.1600
28     C28     7.1176  -11.0110  -13.2695 C.ar     1 ZINC000113459996    0.0300
29     C29     8.1815  -11.1353  -14.1479 C.ar     1 ZINC000113459996   -0.1400
30     C30     7.9617  -11.8104  -15.4744 C.3      1 ZINC000113459996   -0.0800
31     C31     9.0602  -11.4162  -16.4622 C.3      1 ZINC000113459996   -0.1500
32     C32    10.4252  -11.6378  -15.7976 C.3      1 ZINC000113459996    0.1100
33     N33    10.5141  -10.7393  -14.6391 N.pl3    1 ZINC000113459996   -0.7000
34     C34     9.4235  -10.6374  -13.7778 C.ar     1 ZINC000113459996    0.4500
35     N35     9.5888  -10.0510  -12.5990 N.ar     1 ZINC000113459996   -0.5000
36     H36    10.4647   -9.7090  -12.3609 H        1 ZINC000113459996    0.4400
37     C37     8.4570   -7.7774  -10.5054 C.3      1 ZINC000113459996   -0.1100
38     C38     8.6500   -7.1179   -9.1380 C.3      1 ZINC000113459996    0.0500
39     C39     6.7206   -6.5542   -6.3881 C.ar     1 ZINC000113459996   -0.1600
40     C40     5.4078   -6.6049   -7.1264 C.3      1 ZINC000113459996   -0.1100
41     C41     4.6334   -3.2362   -1.6300 C.2      1 ZINC000113459996    0.4900
42     O42     4.3536   -2.0495   -1.6227 O.co2    1 ZINC000113459996   -0.6500
43     O43     5.0356   -3.7739   -0.6124 O.co2    1 ZINC000113459996   -0.6800
44     C44     1.1356   -3.2141   -1.8560 C.ar     1 ZINC000113459996    0.0200
45     C45     0.5275   -2.6660   -0.7433 C.ar     1 ZINC000113459996   -0.1700
46     H46     0.5985    1.1350    0.4114 H        1 ZINC000113459996    0.0600
47     H47    -0.9841    0.9914   -0.3906 H        1 ZINC000113459996    0.0600
48     H48    -0.8816    0.9707    1.3863 H        1 ZINC000113459996    0.1000
49     H49     0.6800    0.5989   -1.6075 H        1 ZINC000113459996    0.1300
50     H50     1.7712   -0.3852   -3.5822 H        1 ZINC000113459996    0.1400
51     H51     4.6097   -2.6392   -4.4889 H        1 ZINC000113459996    0.4100
52     H52     6.5701   -3.8145   -3.3775 H        1 ZINC000113459996    0.1000
53     H53     6.1665   -5.3333   -2.5417 H        1 ZINC000113459996    0.1100
54     H54     4.8621   -5.3221   -5.0467 H        1 ZINC000113459996    0.4300
55     H55    10.4537   -7.2759   -3.6799 H        1 ZINC000113459996    0.1200
56     H56    11.1938   -6.4196   -5.0536 H        1 ZINC000113459996    0.1000
57     H57    10.4207   -5.4974   -3.7421 H        1 ZINC000113459996    0.1300
58     H58     9.2424   -9.2737   -7.7117 H        1 ZINC000113459996    0.0500
59     H59     7.5758   -9.6772   -7.2349 H        1 ZINC000113459996    0.1100
60     H60     8.2851  -10.9741   -9.2336 H        1 ZINC000113459996    0.1000
61     H61     6.9356   -9.8778   -9.6178 H        1 ZINC000113459996    0.1000
62     H62     9.8951   -9.3444  -10.1488 H        1 ZINC000113459996    0.1000
63     H63     6.5247  -10.2825  -11.3390 H        1 ZINC000113459996    0.1800
64     H64     6.1396  -11.3867  -13.5319 H        1 ZINC000113459996    0.1800
65     H65     7.9732  -12.8914  -15.3350 H        1 ZINC000113459996    0.1000
66     H66     6.9928  -11.5118  -15.8747 H        1 ZINC000113459996    0.1100
67     H67     8.9852  -12.0335  -17.3575 H        1 ZINC000113459996    0.1100
68     H68     8.9506  -10.3654  -16.7303 H        1 ZINC000113459996    0.0800
69     H69    10.5114  -12.6733  -15.4686 H        1 ZINC000113459996    0.0900
70     H70    11.2216  -11.4073  -16.5051 H        1 ZINC000113459996    0.1100
71     H71    11.3200  -10.2246  -14.4760 H        1 ZINC000113459996    0.4200
72     H72     9.0912   -7.2825  -11.2409 H        1 ZINC000113459996    0.0900
73     H73     7.4131   -7.6908  -10.8071 H        1 ZINC000113459996    0.1000
74     H74     8.3639   -6.0679   -9.1976 H        1 ZINC000113459996    0.1100
75     H75     9.6967   -7.1928   -8.8432 H        1 ZINC000113459996    0.0500
76     H76     4.8170   -7.4443   -6.7598 H        1 ZINC000113459996    0.1000
77     H77     4.8616   -5.6763   -6.9606 H        1 ZINC000113459996    0.0800
78     H78     5.5952   -6.7307   -8.1927 H        1 ZINC000113459996    0.1000
79     H79     1.2647   -4.2840   -1.9284 H        1 ZINC000113459996    0.1400
80     H80     0.1778   -3.3072    0.0524 H        1 ZINC000113459996    0.1400
@<TRIPOS>BOND
1     1     2     1
2     1     46    1
3     1     47    1
4     1     48    1
5     2     3     1
6     3     45    ar
7     3     4     ar
8     4     5     ar
9     4     49    1
10    5     6     ar
11    5     50    1
12    6     7     1
13    6     44    ar
14    7     8     2
15    7     9     2
16    7     10    am
17    10    11    1
18    10    51    1
19    11    12    1
20    11    13    1
21    11    41    1
22    13    14    1
23    13    52    1
24    13    53    1
25    14    15    1
26    14    54    1
27    15    39    ar
28    15    16    ar
29    16    17    ar
30    17    18    1
31    17    19    ar
32    18    55    1
33    18    56    1
34    18    57    1
35    19    20    1
36    19    21    ar
37    21    22    1
38    21    39    ar
39    22    38    1
40    22    23    1
41    23    24    1
42    23    58    1
43    23    59    1
44    24    25    1
45    24    60    1
46    24    61    1
47    25    26    1
48    25    37    1
49    25    62    1
50    26    35    ar
51    26    27    ar
52    27    28    ar
53    27    63    1
54    28    29    ar
55    28    64    1
56    29    34    ar
57    29    30    1
58    30    31    1
59    30    65    1
60    30    66    1
61    31    32    1
62    31    67    1
63    31    68    1
64    32    33    1
65    32    69    1
66    32    70    1
67    33    34    1
68    33    71    1
69    34    35    ar
70    35    36    1
71    37    38    1
72    37    72    1
73    37    73    1
74    38    74    1
75    38    75    1
76    39    40    1
77    40    76    1
78    40    77    1
79    40    78    1
80    41    42    ar
81    41    43    ar
82    44    45    ar
83    44    79    1
84    45    80    1
@<TRIPOS>SUBSTRUCTURE
1   ZINC000113459996 1     RESIDUE    1   A     ZIN   1
