@<TRIPOS>MOLECULE
ZINC000248087828
95    100   1     0     0
SMALL
USER_CHARGES
@<TRIPOS>ATOM
1      C1      2.0017    1.9299    0.4765 C.3      1 ZINC000248087828   -0.1500
2      C2      0.9502    1.6401   -0.5964 C.3      1 ZINC000248087828   -0.1500
3      C3      0.0067    0.5416   -0.1024 C.3      1 ZINC000248087828    0.0700
4      H4     -0.4655    0.8622    0.8262 H        1 ZINC000248087828    0.1400
5      C5      0.7952   -0.7182    0.1477 C.2      1 ZINC000248087828    0.5300
6      O6      1.1820   -0.9866    1.2657 O.2      1 ZINC000248087828   -0.5000
7      N7      1.0677   -1.5458   -0.8850 N.am     1 ZINC000248087828   -0.5400
8      C8      1.9362   -2.7113   -0.7015 C.3      1 ZINC000248087828    0.0700
9      C9      0.5004   -1.2648   -2.1362 C.ar     1 ZINC000248087828   -0.0300
10     C10     0.9411   -1.9038   -3.2804 C.ar     1 ZINC000248087828    0.1800
11     N11     0.3839   -1.5898   -4.4436 N.ar     1 ZINC000248087828   -0.5500
12     C12    -0.5758   -0.6808   -4.5153 C.ar     1 ZINC000248087828    0.5600
13     N13    -1.1229   -0.3771   -5.7533 N.pl3    1 ZINC000248087828   -0.6200
14     C14    -0.7477   -1.1082   -6.8796 C.ar     1 ZINC000248087828    0.1700
15     C15    -0.2747   -2.4074   -6.7376 C.ar     1 ZINC000248087828   -0.1000
16     C16     0.0975   -3.1331   -7.8478 C.ar     1 ZINC000248087828   -0.0900
17     C17    -0.0003   -2.5639   -9.1200 C.ar     1 ZINC000248087828   -0.1200
18     C18     0.3977   -3.3406  -10.3096 C.2      1 ZINC000248087828    0.5600
19     O19     0.3121   -2.8443  -11.4163 O.2      1 ZINC000248087828   -0.5400
20     N20     0.8560   -4.6003  -10.1696 N.am     1 ZINC000248087828   -0.7200
21     C21     1.2512   -5.3715  -11.3508 C.3      1 ZINC000248087828    0.1500
22     H22     0.5996   -5.1158  -12.1864 H        1 ZINC000248087828    0.0900
23     C23     2.7002   -5.0410  -11.7144 C.3      1 ZINC000248087828   -0.1300
24     C24     3.1129   -5.8464  -12.9480 C.3      1 ZINC000248087828   -0.1100
25     C25     2.9913   -7.3412  -12.6453 C.3      1 ZINC000248087828    0.0900
26     H26     3.6429   -7.5969  -11.8098 H        1 ZINC000248087828    0.0800
27     N27     3.3875   -8.1145  -13.8297 N.3      1 ZINC000248087828   -0.5300
28     C28     2.5882   -7.7300  -15.0014 C.3      1 ZINC000248087828    0.0500
29     C29     3.0840   -8.4987  -16.2285 C.3      1 ZINC000248087828    0.0600
30     N30     2.9795   -9.9423  -15.9740 N.3      1 ZINC000248087828   -0.5400
31     C31     3.3758  -10.7157  -17.1585 C.3      1 ZINC000248087828    0.0900
32     C32     3.0212  -12.1890  -16.9477 C.3      1 ZINC000248087828   -0.1500
33     C33     1.9846  -12.8076  -17.8877 C.3      1 ZINC000248087828   -0.1700
34     C34     3.4616  -13.1827  -18.0246 C.3      1 ZINC000248087828   -0.1800
35     C35     3.7789  -10.3269  -14.8024 C.3      1 ZINC000248087828    0.0600
36     C36     3.2831   -9.5581  -13.5753 C.3      1 ZINC000248087828    0.0500
37     C37     1.5423   -7.6717  -12.2817 C.3      1 ZINC000248087828   -0.1500
38     C38     1.1296   -6.8663  -11.0481 C.3      1 ZINC000248087828   -0.1200
39     C39    -0.4765   -1.2571   -9.2639 C.ar     1 ZINC000248087828   -0.1200
40     C40    -0.8531   -0.5360   -8.1490 C.ar     1 ZINC000248087828    0.0900
41     O41    -1.3170    0.7351   -8.2857 O.3      1 ZINC000248087828   -0.3200
42     C42    -1.3880    1.2606   -9.6127 C.3      1 ZINC000248087828    0.0300
43     N43    -1.0302   -0.0523   -3.4404 N.ar     1 ZINC000248087828   -0.5600
44     C44    -0.5268   -0.3207   -2.2410 C.ar     1 ZINC000248087828    0.3900
45     N45    -1.0261    0.2981   -1.1132 N.3      1 ZINC000248087828   -0.4600
46     C46    -1.7217    1.5443   -1.4609 C.3      1 ZINC000248087828    0.0900
47     C47    -3.0398    1.2137   -2.1639 C.3      1 ZINC000248087828   -0.1500
48     C48    -2.0092    2.3406   -0.1864 C.3      1 ZINC000248087828   -0.1700
49     H49     2.7244    2.6496    0.0920 H        1 ZINC000248087828    0.0600
50     H50     1.5148    2.3410    1.3608 H        1 ZINC000248087828    0.0700
51     H51     2.5151    1.0055    0.7411 H        1 ZINC000248087828    0.0600
52     H52     0.3787    2.5459   -0.7990 H        1 ZINC000248087828    0.0900
53     H53     1.4447    1.3105   -1.5102 H        1 ZINC000248087828    0.0700
54     H54     2.2727   -2.7541    0.3344 H        1 ZINC000248087828    0.1000
55     H55     1.3820   -3.6187   -0.9413 H        1 ZINC000248087828    0.0700
56     H56     2.8000   -2.6281   -1.3610 H        1 ZINC000248087828    0.0700
57     H57     1.7249   -2.6449   -3.2287 H        1 ZINC000248087828    0.1800
58     H58    -1.7666    0.3439   -5.8353 H        1 ZINC000248087828    0.4300
59     H59    -0.1985   -2.8488   -5.7549 H        1 ZINC000248087828    0.1600
60     H60     0.4654   -4.1422   -7.7347 H        1 ZINC000248087828    0.1300
61     H61     0.9243   -4.9962   -9.2867 H        1 ZINC000248087828    0.4000
62     H62     2.7868   -3.9760  -11.9301 H        1 ZINC000248087828    0.0700
63     H63     3.3518   -5.2966  -10.8789 H        1 ZINC000248087828    0.0700
64     H64     2.4612   -5.5908  -13.7836 H        1 ZINC000248087828    0.0700
65     H65     4.1451   -5.6109  -13.2071 H        1 ZINC000248087828    0.0700
66     H66     1.5402   -7.9696  -14.8212 H        1 ZINC000248087828    0.0500
67     H67     2.6918   -6.6592  -15.1768 H        1 ZINC000248087828    0.0800
68     H68     2.4737   -8.2367  -17.0928 H        1 ZINC000248087828    0.0800
69     H69     4.1240   -8.2384  -16.4249 H        1 ZINC000248087828    0.0400
70     H70     2.8477  -10.3364  -18.0334 H        1 ZINC000248087828    0.0800
71     H71     4.4505  -10.6191  -17.3126 H        1 ZINC000248087828    0.0400
72     H72     3.0304  -12.5314  -15.9129 H        1 ZINC000248087828    0.1100
73     H73     1.3115  -13.5571  -17.4714 H        1 ZINC000248087828    0.0900
74     H74     1.5552  -12.1649  -18.6563 H        1 ZINC000248087828    0.0900
75     H75     4.0039  -12.7867  -18.8832 H        1 ZINC000248087828    0.0900
76     H76     3.7601  -14.1789  -17.6983 H        1 ZINC000248087828    0.0900
77     H77     3.6753  -11.3977  -14.6270 H        1 ZINC000248087828    0.0800
78     H78     4.8269  -10.0873  -14.9826 H        1 ZINC000248087828    0.0400
79     H79     3.8934   -9.8202  -12.7110 H        1 ZINC000248087828    0.0800
80     H80     2.2431   -9.8185  -13.3789 H        1 ZINC000248087828    0.0500
81     H81     0.8907   -7.4161  -13.1173 H        1 ZINC000248087828    0.0700
82     H82     1.4557   -8.7367  -12.0660 H        1 ZINC000248087828    0.0700
83     H83     1.7813   -7.1220  -10.2125 H        1 ZINC000248087828    0.0700
84     H84     0.0974   -7.1018  -10.7891 H        1 ZINC000248087828    0.0700
85     H85    -0.5533   -0.8143  -10.2460 H        1 ZINC000248087828    0.1500
86     H86    -2.0523    0.6401  -10.2141 H        1 ZINC000248087828    0.0600
87     H87    -1.7735    2.2797   -9.5798 H        1 ZINC000248087828    0.1000
88     H88    -0.3924    1.2629  -10.0563 H        1 ZINC000248087828    0.0600
89     H89    -1.0940    2.1374   -2.1260 H        1 ZINC000248087828    0.0700
90     H90    -3.7022    0.6968   -1.4695 H        1 ZINC000248087828    0.0500
91     H91    -3.5138    2.1360   -2.4998 H        1 ZINC000248087828    0.0600
92     H92    -2.8425    0.5727   -3.0231 H        1 ZINC000248087828    0.0900
93     H93    -1.0684    2.6546    0.2658 H        1 ZINC000248087828    0.0600
94     H94    -2.6047    3.2194   -0.4336 H        1 ZINC000248087828    0.0800
95     H95    -2.5592    1.7149    0.5165 H        1 ZINC000248087828    0.0700
@<TRIPOS>BOND
1     1     2     1
2     1     49    1
3     1     50    1
4     1     51    1
5     2     3     1
6     2     52    1
7     2     53    1
8     3     4     1
9     3     45    1
10    3     5     1
11    5     6     2
12    5     7     am
13    7     8     1
14    7     9     1
15    8     54    1
16    8     55    1
17    8     56    1
18    9     44    ar
19    9     10    ar
20    10    11    ar
21    10    57    1
22    11    12    ar
23    12    13    1
24    12    43    ar
25    13    14    1
26    13    58    1
27    14    40    ar
28    14    15    ar
29    15    16    ar
30    15    59    1
31    16    17    ar
32    16    60    1
33    17    18    1
34    17    39    ar
35    18    19    2
36    18    20    am
37    20    21    1
38    20    61    1
39    21    22    1
40    21    38    1
41    21    23    1
42    23    24    1
43    23    62    1
44    23    63    1
45    24    25    1
46    24    64    1
47    24    65    1
48    25    26    1
49    25    27    1
50    25    37    1
51    27    36    1
52    27    28    1
53    28    29    1
54    28    66    1
55    28    67    1
56    29    30    1
57    29    68    1
58    29    69    1
59    30    31    1
60    30    35    1
61    31    32    1
62    31    70    1
63    31    71    1
64    32    34    1
65    32    33    1
66    32    72    1
67    33    34    1
68    33    73    1
69    33    74    1
70    34    75    1
71    34    76    1
72    35    36    1
73    35    77    1
74    35    78    1
75    36    79    1
76    36    80    1
77    37    38    1
78    37    81    1
79    37    82    1
80    38    83    1
81    38    84    1
82    39    40    ar
83    39    85    1
84    40    41    1
85    41    42    1
86    42    86    1
87    42    87    1
88    42    88    1
89    43    44    ar
90    44    45    1
91    45    46    1
92    46    47    1
93    46    48    1
94    46    89    1
95    47    90    1
96    47    91    1
97    47    92    1
98    48    93    1
99    48    94    1
100   48    95    1
@<TRIPOS>SUBSTRUCTURE
1   ZINC000248087828 1     RESIDUE    1   A     ZIN   1
