@<TRIPOS>MOLECULE
ZINC000253533390
  22   23    0    0    0
SMALL
USER_CHARGES
NO_NAME
@<TRIPOS>ATOM
    1 O1        2.0485     1.2027    -0.0248 O.2    1 <0>      -0.5300
    2 C2        0.9960     1.8039    -0.0037 C.2    1 <0>       0.5000
    3 C3        0.8002     3.3070     0.0073 C.3    1 <0>      -0.0400
    4 N4       -0.6642     3.4652     0.0322 N.am   1 <0>      -0.4000
    5 N5       -1.3192     4.5764     0.0481 N.2    1 <0>      -0.0800
    6 C6       -0.6627     5.7392     0.1461 C.2    1 <0>      -0.0800
    7 C7       -1.3659     6.9206     0.2680 C.2    1 <0>       0.2000
    8 C8       -0.7949     8.2777     0.3796 C.2    1 <0>      -0.2200
    9 C9       -1.8592     9.1236     0.4779 C.2    1 <0>      -0.0400
   10 C10      -3.0229     8.3516     0.4314 C.2    1 <0>      -0.0200
   11 N11      -4.4066     8.8911     0.5084 N.pl3  1 <0>       0.0400
   12 O12      -4.6020    10.1878     0.6300 O.2    1 <0>      -0.2000
   13 O13      -5.4366     8.0721     0.4549 O.2    1 <0>      -0.1900
   14 O14      -2.7118     7.0590     0.3023 O.3    1 <0>      -0.1200
   15 C15      -1.1852     2.2250     0.0343 C.2    1 <0>       0.6500
   16 O16      -2.3770     1.9936     0.0527 O.2    1 <0>      -0.5400
   17 N17      -0.2435     1.2750     0.0088 N.pl3  1 <0>      -0.6800
   18 H18       1.2485     3.7456     0.8988 H      1 <0>       0.1100
   19 H19       1.2191     3.7549    -0.8939 H      1 <0>       0.1100
   20 H20       0.4171     5.7527     0.1299 H      1 <0>       0.1600
   21 H21       0.2514     8.5452     0.3831 H      1 <0>       0.1800
   22 H22      -1.8116    10.1982     0.5748 H      1 <0>       0.1800
@<TRIPOS>BOND
   1    1    2 2
   2    2   17 1
   3    2    3 1
   4    3    4 1
   5    3   18 1
   6    3   19 1
   7    4    5 1
   8    4   15 am
   9    5    6 2
  10    6    7 1
  11    6   20 1
  12    7   14 1
  13    7    8 2
  14    8    9 1
  15    8   21 1
  16    9   10 2
  17    9   22 1
  18   10   11 1
  19   10   14 1
  20   11   12 2
  21   11   13 2
  22   15   16 2
  23   15   17 1
