@<TRIPOS>MOLECULE
ZINC000043127515
74    75    1     0     0
SMALL
USER_CHARGES
@<TRIPOS>ATOM
1      C1     -0.6229    1.0246   -0.9999 C.3      1 ZINC000043127515   -0.1500
2      C2     -0.8357   -0.4831   -1.1500 C.3      1 ZINC000043127515    0.0600
3      O3     -2.0350   -0.8765   -0.4322 O.3      1 ZINC000043127515   -0.3300
4      C4     -2.3655   -2.1770   -0.4644 C.2      1 ZINC000043127515    0.4800
5      O5     -1.6755   -2.9608   -1.0723 O.2      1 ZINC000043127515   -0.5000
6      C6     -3.5972   -2.6596    0.2575 C.3      1 ZINC000043127515    0.1100
7      C7     -4.8205   -2.4772   -0.6430 C.3      1 ZINC000043127515   -0.2200
8      C8     -3.4366   -4.1408    0.6059 C.3      1 ZINC000043127515   -0.1800
9      N9     -3.7773   -1.8831    1.4914 N.3      1 ZINC000043127515   -1.0500
10     P10    -5.3719   -1.9588    2.0244 P.3      1 ZINC000043127515    2.5500
11     O11    -5.4511   -1.4611    3.4159 O.2      1 ZINC000043127515   -1.0000
12     N12    -6.3410   -1.0061    1.0317 N.3      1 ZINC000043127515   -1.0600
13     C13    -6.0004    0.4161    1.1715 C.3      1 ZINC000043127515    0.1400
14     C14    -6.7553    1.0064    2.3643 C.3      1 ZINC000043127515   -0.1500
15     C15    -4.4943    0.5597    1.3995 C.3      1 ZINC000043127515   -0.2200
16     C16    -6.3909    1.1520   -0.0842 C.2      1 ZINC000043127515    0.4700
17     O17    -6.8012    2.2864   -0.0168 O.2      1 ZINC000043127515   -0.4900
18     O18    -6.2828    0.5472   -1.2777 O.3      1 ZINC000043127515   -0.3700
19     C19    -6.6770    1.3163   -2.4445 C.3      1 ZINC000043127515    0.0600
20     C20    -6.4855    0.4677   -3.7031 C.3      1 ZINC000043127515   -0.1600
21     C21    -5.9489   -3.6775    1.9632 C.2      1 ZINC000043127515   -0.6000
22     C22    -6.9723   -4.1370    1.2134 C.2      1 ZINC000043127515   -0.1500
23     C23    -7.0804   -5.5170    1.4633 C.2      1 ZINC000043127515   -0.1700
24     C24    -6.1053   -5.8303    2.3633 C.2      1 ZINC000043127515    0.0800
25     C25    -5.8385   -7.1670    2.9182 C.2      1 ZINC000043127515    0.2800
26     C26    -4.5592   -7.6869    3.0764 C.2      1 ZINC000043127515   -0.3600
27     C27    -3.3596   -7.0455    2.7445 C.2      1 ZINC000043127515    0.4300
28     O28    -3.3800   -5.9288    2.2633 O.2      1 ZINC000043127515   -0.4400
29     C29    -2.0432   -7.7391    2.9837 C.3      1 ZINC000043127515   -0.1100
30     C30    -0.8981   -6.8276    2.5378 C.3      1 ZINC000043127515   -0.1300
31     C31    -1.8950   -8.0521    4.4740 C.3      1 ZINC000043127515   -0.1400
32     C32    -2.0000   -9.0416    2.1822 C.3      1 ZINC000043127515   -0.1400
33     S33    -4.7197   -9.2984    3.7697 S.3      1 ZINC000043127515    0.2000
34     C34    -6.4207   -9.1427    3.7872 C.2      1 ZINC000043127515    0.3200
35     N35    -7.2871  -10.1108    4.2421 N.pl3    1 ZINC000043127515   -0.8000
36     N36    -6.7885   -7.9873    3.3195 N.2      1 ZINC000043127515   -0.5400
37     O37    -5.4247   -4.7032    2.6517 O.3      1 ZINC000043127515   -0.0900
38     H38     0.2774    1.3199   -1.5387 H        1 ZINC000043127515    0.0800
39     H39    -1.4822    1.5554   -1.4098 H        1 ZINC000043127515    0.0700
40     H40    -0.5124    1.2726    0.0557 H        1 ZINC000043127515    0.0700
41     H41    -0.9463   -0.7311   -2.2056 H        1 ZINC000043127515    0.0700
42     H42     0.0236   -1.0139   -0.7401 H        1 ZINC000043127515    0.0700
43     H43    -4.6780   -3.0372   -1.5673 H        1 ZINC000043127515    0.1200
44     H44    -5.7084   -2.8450   -0.1287 H        1 ZINC000043127515    0.0700
45     H45    -4.9467   -1.4196   -0.8747 H        1 ZINC000043127515    0.1000
46     H46    -2.7066   -4.2482    1.4082 H        1 ZINC000043127515    0.1000
47     H47    -4.3958   -4.5435    0.9312 H        1 ZINC000043127515    0.0900
48     H48    -3.0931   -4.6857   -0.2734 H        1 ZINC000043127515    0.0800
49     H49    -3.1407   -2.1934    2.2101 H        1 ZINC000043127515    0.4000
50     H50    -6.2732   -1.3011    0.0692 H        1 ZINC000043127515    0.3800
51     H51    -6.4729    0.4741    3.2726 H        1 ZINC000043127515    0.1100
52     H52    -6.5026    2.0616    2.4680 H        1 ZINC000043127515    0.0800
53     H53    -7.8283    0.9040    2.2019 H        1 ZINC000043127515    0.0700
54     H54    -3.9565    0.1392    0.5498 H        1 ZINC000043127515    0.1000
55     H55    -4.2416    1.6149    1.5033 H        1 ZINC000043127515    0.0900
56     H56    -4.2119    0.0274    2.3078 H        1 ZINC000043127515    0.1000
57     H57    -7.7251    1.6015   -2.3546 H        1 ZINC000043127515    0.0700
58     H58    -6.0610    2.2129   -2.5137 H        1 ZINC000043127515    0.0700
59     H59    -5.4374    0.1824   -3.7931 H        1 ZINC000043127515    0.0700
60     H60    -7.1015   -0.4290   -3.6339 H        1 ZINC000043127515    0.0700
61     H61    -6.7814    1.0450   -4.5790 H        1 ZINC000043127515    0.0800
62     H62    -7.5918   -3.5549    0.5473 H        1 ZINC000043127515    0.1600
63     H63    -7.7973   -6.1968    1.0269 H        1 ZINC000043127515    0.1600
64     H64    -0.9289   -5.8996    3.1087 H        1 ZINC000043127515    0.0600
65     H65     0.0540   -7.3292    2.7107 H        1 ZINC000043127515    0.0600
66     H66    -1.0037   -6.6046    1.4760 H        1 ZINC000043127515    0.0600
67     H67    -2.7108   -8.7014    4.7917 H        1 ZINC000043127515    0.0600
68     H68    -0.9429   -8.5537    4.6470 H        1 ZINC000043127515    0.0700
69     H69    -1.9259   -7.1241    5.0450 H        1 ZINC000043127515    0.0700
70     H70    -2.1055   -8.8186    1.1205 H        1 ZINC000043127515    0.0600
71     H71    -1.0478   -9.5432    2.3552 H        1 ZINC000043127515    0.0700
72     H72    -2.8157   -9.6910    2.4999 H        1 ZINC000043127515    0.0600
73     H73    -6.9407  -10.9505    4.5826 H        1 ZINC000043127515    0.4200
74     H74    -8.2441   -9.9534    4.2222 H        1 ZINC000043127515    0.4200
@<TRIPOS>BOND
1     1     2     1
2     1     38    1
3     1     39    1
4     1     40    1
5     2     3     1
6     2     41    1
7     2     42    1
8     3     4     1
9     4     5     2
10    4     6     1
11    6     7     1
12    6     8     1
13    6     9     1
14    7     43    1
15    7     44    1
16    7     45    1
17    8     46    1
18    8     47    1
19    8     48    1
20    9     10    1
21    9     49    1
22    10    11    2
23    10    12    1
24    10    21    1
25    12    13    1
26    12    50    1
27    13    14    1
28    13    15    1
29    13    16    1
30    14    51    1
31    14    52    1
32    14    53    1
33    15    54    1
34    15    55    1
35    15    56    1
36    16    17    2
37    16    18    1
38    18    19    1
39    19    20    1
40    19    57    1
41    19    58    1
42    20    59    1
43    20    60    1
44    20    61    1
45    21    37    1
46    21    22    2
47    22    23    1
48    22    62    1
49    23    24    2
50    23    63    1
51    24    25    1
52    24    37    1
53    25    36    1
54    25    26    2
55    26    27    1
56    26    33    1
57    27    28    2
58    27    29    1
59    29    30    1
60    29    31    1
61    29    32    1
62    30    64    1
63    30    65    1
64    30    66    1
65    31    67    1
66    31    68    1
67    31    69    1
68    32    70    1
69    32    71    1
70    32    72    1
71    33    34    1
72    34    35    1
73    34    36    2
74    35    73    1
75    35    74    1
@<TRIPOS>SUBSTRUCTURE
1   ZINC000043127515 1     RESIDUE    1   A     ZIN   1
