@<TRIPOS>MOLECULE
ZINC000001536777
37    39    1     0     0
SMALL
USER_CHARGES
@<TRIPOS>ATOM
1      C1     -0.0178    1.4608    0.0101 C.3      1 ZINC000001536777    0.0500
2      N2      0.0021   -0.0041    0.0020 N.pl3    1 ZINC000001536777   -0.3800
3      C3      0.0077   -0.7903   -1.1140 C.2      1 ZINC000001536777    0.0800
4      C4     -0.0052   -0.3097   -2.5034 C.2      1 ZINC000001536777   -0.0900
5      C5     -0.9026    0.5956   -2.8861 C.2      1 ZINC000001536777   -0.1300
6      C6     -0.9158    1.0883   -4.3102 C.3      1 ZINC000001536777    0.1000
7      O7     -2.2606    1.1143   -4.7928 O.3      1 ZINC000001536777   -0.5700
8      C8      0.0275   -2.1153   -0.7175 C.2      1 ZINC000001536777   -0.0900
9      C9      0.0401   -3.3197   -1.6233 C.3      1 ZINC000001536777    0.1400
10     O10     1.3913   -3.6815   -1.9158 O.3      1 ZINC000001536777   -0.5700
11     C11     0.0341   -2.1288    0.6853 C.2      1 ZINC000001536777   -0.1700
12     C12     0.0240   -0.8042    1.1118 C.2      1 ZINC000001536777   -0.0100
13     C13     0.0271   -0.5056    2.5514 C.2      1 ZINC000001536777    0.4700
14     O14     0.0179    0.6516    2.9308 O.2      1 ZINC000001536777   -0.4700
15     C15     0.0409   -1.5944    3.5314 C.2      1 ZINC000001536777   -0.3100
16     C16     0.0512   -2.8850    3.1308 C.2      1 ZINC000001536777    0.2600
17     N17     0.0641   -3.8965    4.0697 N.pl3    1 ZINC000001536777   -0.6800
18     C18     0.0846   -5.3325    4.3589 C.3      1 ZINC000001536777    0.0900
19     C19     0.0730   -4.2918    5.4803 C.3      1 ZINC000001536777    0.0800
20     C20     0.0530   -3.2184    1.6835 C.2      1 ZINC000001536777    0.4500
21     O21     0.0620   -4.3776    1.3231 O.2      1 ZINC000001536777   -0.4200
22     H22     1.0048    1.8381    0.0023 H        1 ZINC000001536777    0.0900
23     H23    -0.5450    1.8219   -0.8730 H        1 ZINC000001536777    0.0900
24     H24    -0.5280    1.8123    0.9069 H        1 ZINC000001536777    0.1000
25     H25     0.7135   -0.6912   -3.2135 H        1 ZINC000001536777    0.1400
26     H26    -1.6214    0.9772   -2.1760 H        1 ZINC000001536777    0.1200
27     H27    -0.4957    2.0933   -4.3509 H        1 ZINC000001536777    0.0600
28     H28    -0.3197    0.4199   -4.9314 H        1 ZINC000001536777    0.0600
29     H29    -2.3451    1.4221   -5.7056 H        1 ZINC000001536777    0.3900
30     H30    -0.4599   -4.1520   -1.1281 H        1 ZINC000001536777    0.0600
31     H31    -0.4813   -3.0823   -2.5506 H        1 ZINC000001536777    0.0600
32     H32     1.4757   -4.4508   -2.4955 H        1 ZINC000001536777    0.3800
33     H33     0.0431   -1.3630    4.5863 H        1 ZINC000001536777    0.1500
34     H34    -0.8301   -5.8976    4.1795 H        1 ZINC000001536777    0.1100
35     H35     1.0159   -5.8707    4.1824 H        1 ZINC000001536777    0.1100
36     H36     0.9955   -4.1427    6.0415 H        1 ZINC000001536777    0.1100
37     H37    -0.8504   -4.1681    6.0460 H        1 ZINC000001536777    0.1100
@<TRIPOS>BOND
1     1     2     1
2     1     22    1
3     1     23    1
4     1     24    1
5     2     12    1
6     2     3     1
7     3     4     1
8     3     8     2
9     4     5     2
10    4     25    1
11    5     6     1
12    5     26    1
13    6     7     1
14    6     27    1
15    6     28    1
16    7     29    1
17    8     9     1
18    8     11    1
19    9     10    1
20    9     30    1
21    9     31    1
22    10    32    1
23    11    20    1
24    11    12    2
25    12    13    1
26    13    14    2
27    13    15    1
28    15    16    2
29    15    33    1
30    16    17    1
31    16    20    1
32    17    19    1
33    17    18    1
34    18    19    1
35    18    34    1
36    18    35    1
37    19    36    1
38    19    37    1
39    20    21    2
@<TRIPOS>SUBSTRUCTURE
1   ZINC000001536777 1     RESIDUE    1   A     ZIN   1
