@<TRIPOS>MOLECULE
ZINC000004900230
  56   59    0    0    0
SMALL
USER_CHARGES
NO_NAME
@<TRIPOS>ATOM
    1 C1        0.2413     1.5938     0.0334 C.3    1 <0>      -0.1600
    2 C2        0.1342     0.0676     0.0448 C.3    1 <0>      -0.0500
    3 C3       -1.2955    -0.3434     0.3371 C.3    1 <0>      -0.1100
    4 C4       -1.7070     0.3342     1.6551 C.3    1 <0>      -0.1200
    5 C5       -0.7656    -0.0462     2.7928 C.3    1 <0>      -0.0700
    6 H6       -0.8551    -1.1158     2.9827 H      1 <0>       0.0700
    7 C7        0.6965     0.2772     2.4453 C.3    1 <0>      -0.0800
    8 H8        0.8047     1.3477     2.2710 H      1 <0>       0.0900
    9 C9        1.5971    -0.1499     3.6043 C.3    1 <0>      -0.1200
   10 C10       1.1944     0.6078     4.8716 C.3    1 <0>      -0.1200
   11 C11      -0.2624     0.2803     5.2156 C.3    1 <0>      -0.0700
   12 H12      -0.5486     0.7985     6.1308 H      1 <0>       0.0800
   13 C13      -0.3957    -1.2340     5.4165 C.3    1 <0>      -0.1700
   14 C14      -1.8589    -1.5719     5.5935 C.2    1 <0>       0.3600
   15 O15      -2.2332    -2.2321     6.5328 O.2    1 <0>      -0.4600
   16 C16      -2.8414    -1.0606     4.5631 C.3    1 <0>      -0.1700
   17 C17      -2.6250     0.4468     4.3937 C.3    1 <0>      -0.1100
   18 C18      -1.1426     0.7152     4.0632 C.3    1 <0>      -0.0500
   19 C19      -0.9434     2.2111     3.8115 C.3    1 <0>      -0.1500
   20 C20       1.0261    -0.5127     1.1759 C.3    1 <0>      -0.0800
   21 H21       0.8261    -1.5736     1.3269 H      1 <0>       0.0800
   22 C22       2.4353    -0.3105     0.6085 C.3    1 <0>      -0.1200
   23 C23       2.2692    -0.7079    -0.8838 C.3    1 <0>      -0.1200
   24 C24       0.7612    -0.5025    -1.2231 C.3    1 <0>      -0.1300
   25 H25       0.2957    -1.4573    -1.4673 H      1 <0>       0.1000
   26 C26       0.6112     0.4599    -2.3731 C.2    1 <0>       0.3600
   27 O27       1.4644     1.2885    -2.5822 O.2    1 <0>      -0.4300
   28 C28      -0.6035     0.3881    -3.2621 C.3    1 <0>       0.0200
   29 O29      -0.5153     1.3959    -4.2714 O.3    1 <0>      -0.5600
   30 H30       1.2829     1.8839    -0.1041 H      1 <0>       0.0600
   31 H31      -0.3584     1.9941    -0.7840 H      1 <0>       0.0500
   32 H32      -0.1244     1.9907     0.9805 H      1 <0>       0.0700
   33 H33      -1.9489    -0.0119    -0.4699 H      1 <0>       0.0600
   34 H34      -1.3556    -1.4266     0.4426 H      1 <0>       0.0700
   35 H35      -1.6864     1.4158     1.5216 H      1 <0>       0.0700
   36 H36      -2.7205     0.0269     1.9129 H      1 <0>       0.0700
   37 H37       1.4892    -1.2215     3.7721 H      1 <0>       0.0600
   38 H38       2.6350     0.0766     3.3602 H      1 <0>       0.0700
   39 H39       1.8397     0.3060     5.6965 H      1 <0>       0.0600
   40 H40       1.2962     1.6798     4.7025 H      1 <0>       0.0700
   41 H41      -0.0031    -1.7548     4.5432 H      1 <0>       0.1100
   42 H42       0.1593    -1.5353     6.3050 H      1 <0>       0.0900
   43 H43      -2.6713    -1.5649     3.6118 H      1 <0>       0.1000
   44 H44      -3.8601    -1.2492     4.9020 H      1 <0>       0.0900
   45 H45      -3.2582     0.8161     3.5870 H      1 <0>       0.0800
   46 H46      -2.8844     0.9573     5.3212 H      1 <0>       0.0700
   47 H47      -1.2253     2.7704     4.7036 H      1 <0>       0.0500
   48 H48       0.1036     2.4039     3.5776 H      1 <0>       0.0700
   49 H49      -1.5665     2.5248     2.9740 H      1 <0>       0.0600
   50 H50       2.7414     0.7317     0.6984 H      1 <0>       0.0700
   51 H51       3.1491    -0.9675     1.1055 H      1 <0>       0.0700
   52 H52       2.8834    -0.0637    -1.5130 H      1 <0>       0.0800
   53 H53       2.5518    -1.7509    -1.0269 H      1 <0>       0.0700
   54 H54      -0.6519    -0.5940    -3.7326 H      1 <0>       0.0800
   55 H55      -1.5009     0.5495    -2.6649 H      1 <0>       0.0800
   56 H56      -1.2656     1.4084    -4.8813 H      1 <0>       0.3800
@<TRIPOS>BOND
   1    1    2 1
   2    1   30 1
   3    1   31 1
   4    1   32 1
   5    2   20 1
   6    2   24 1
   7    2    3 1
   8    3    4 1
   9    3   33 1
  10    3   34 1
  11    4    5 1
  12    4   35 1
  13    4   36 1
  14    5    6 1
  15    5   18 1
  16    5    7 1
  17    7    8 1
  18    7    9 1
  19    7   20 1
  20    9   10 1
  21    9   37 1
  22    9   38 1
  23   10   11 1
  24   10   39 1
  25   10   40 1
  26   11   12 1
  27   11   18 1
  28   11   13 1
  29   13   14 1
  30   13   41 1
  31   13   42 1
  32   14   15 2
  33   14   16 1
  34   16   17 1
  35   16   43 1
  36   16   44 1
  37   17   18 1
  38   17   45 1
  39   17   46 1
  40   18   19 1
  41   19   47 1
  42   19   48 1
  43   19   49 1
  44   20   21 1
  45   20   22 1
  46   22   23 1
  47   22   50 1
  48   22   51 1
  49   23   24 1
  50   23   52 1
  51   23   53 1
  52   24   25 1
  53   24   26 1
  54   26   27 2
  55   26   28 1
  56   28   29 1
  57   28   54 1
  58   28   55 1
  59   29   56 1
