@<TRIPOS>MOLECULE
ZINC000100369618
  50   54    0    0    0
SMALL
USER_CHARGES
NO_NAME
@<TRIPOS>ATOM
    1 C1       -0.0187     1.5258     0.0104 C.3    1 <0>      -0.1500
    2 C2        0.0021    -0.0041     0.0020 C.3    1 <0>      -0.1400
    3 C3        0.7421    -0.5109     1.2415 C.3    1 <0>      -0.1000
    4 C4        0.7628    -2.0407     1.2331 C.3    1 <0>      -0.1500
    5 H5        1.1969    -2.3629     0.2866 H      1 <0>       0.1400
    6 C6       -0.6718    -2.5279     1.2793 C.2    1 <0>       0.4400
    7 O7       -1.4733    -2.2067     0.4253 O.2    1 <0>      -0.4200
    8 C8       -1.0436    -3.3719     2.3545 C.2    1 <0>      -0.1200
    9 C9       -0.1209    -3.7331     3.3239 C.2    1 <0>       0.3000
   10 N10      -0.7892    -4.5385     4.2023 N.pl3  1 <0>      -0.5600
   11 C11      -2.0751    -4.6526     3.7659 C.2    1 <0>       0.2400
   12 C12      -3.1552    -5.4545     4.4451 C.3    1 <0>       0.0000
   13 H13      -3.9119    -5.7601     3.7224 H      1 <0>       0.1200
   14 C14      -2.5482    -6.6916     5.1455 C.3    1 <0>      -0.1200
   15 C15      -2.8865    -6.4955     6.6550 C.3    1 <0>      -0.0900
   16 H16      -2.2759    -7.0625     7.3577 H      1 <0>       0.1200
   17 C17      -2.8052    -4.9323     6.7698 C.3    1 <0>      -0.1300
   18 C18      -3.8052    -4.6263     5.5952 C.3    1 <0>      -0.0800
   19 H19      -3.9992    -3.5736     5.3897 H      1 <0>       0.1200
   20 C20      -5.0377    -5.4726     6.0382 C.3    1 <0>      -0.0100
   21 H21      -5.8921    -5.5302     5.3638 H      1 <0>       0.1400
   22 O22      -5.2114    -5.6844     7.4407 O.3    1 <0>      -0.3400
   23 C23      -4.4252    -6.7318     6.7441 C.3    1 <0>      -0.0300
   24 H24      -4.8278    -7.7387     6.6337 H      1 <0>       0.1500
   25 N25      -2.2272    -3.9644     2.6748 N.2    1 <0>      -0.4000
   26 N26       1.1866    -3.3048     3.3059 N.am   1 <0>      -0.5200
   27 C27       2.0822    -3.7444     4.3787 C.3    1 <0>       0.0900
   28 C28       2.7618    -5.0533     3.9715 C.3    1 <0>      -0.1400
   29 C29       3.6972    -5.5124     5.0919 C.3    1 <0>      -0.1500
   30 C30       1.6782    -2.5013     2.3472 C.2    1 <0>       0.5500
   31 O31       2.8386    -2.1501     2.3739 O.2    1 <0>      -0.4800
   32 H32       1.0039     1.9031     0.0027 H      1 <0>       0.0500
   33 H33      -0.5459     1.8868    -0.8726 H      1 <0>       0.0600
   34 H34      -0.5289     1.8773     0.9072 H      1 <0>       0.0500
   35 H35      -1.0205    -0.3814     0.0098 H      1 <0>       0.0900
   36 H36       0.5123    -0.3556    -0.8948 H      1 <0>       0.0700
   37 H37       1.7647    -0.1336     1.2338 H      1 <0>       0.0900
   38 H38       0.2319    -0.1594     2.1383 H      1 <0>       0.0700
   39 H39      -0.4151    -4.9550     4.9945 H      1 <0>       0.4200
   40 H40      -3.0079    -7.6053     4.7687 H      1 <0>       0.0900
   41 H41      -1.4686    -6.7198     4.9986 H      1 <0>       0.0700
   42 H42      -3.1789    -4.5728     7.7285 H      1 <0>       0.0900
   43 H43      -1.8028    -4.5587     6.5610 H      1 <0>       0.0700
   44 H44       2.8401    -2.9811     4.5550 H      1 <0>       0.1100
   45 H45       1.5066    -3.9024     5.2907 H      1 <0>       0.0800
   46 H46       2.0040    -5.8166     3.7952 H      1 <0>       0.0600
   47 H47       3.3375    -4.8953     3.0595 H      1 <0>       0.0800
   48 H48       4.4550    -4.7490     5.2682 H      1 <0>       0.0600
   49 H49       3.1215    -5.6703     6.0039 H      1 <0>       0.0600
   50 H50       4.1813    -6.4449     4.8018 H      1 <0>       0.0600
@<TRIPOS>BOND
   1    1    2 1
   2    1   32 1
   3    1   33 1
   4    1   34 1
   5    2    3 1
   6    2   35 1
   7    2   36 1
   8    3    4 1
   9    3   37 1
  10    3   38 1
  11    4    5 1
  12    4   30 1
  13    4    6 1
  14    6    7 2
  15    6    8 1
  16    8   25 1
  17    8    9 2
  18    9   10 1
  19    9   26 1
  20   10   11 1
  21   10   39 1
  22   11   12 1
  23   11   25 2
  24   12   13 1
  25   12   18 1
  26   12   14 1
  27   14   15 1
  28   14   40 1
  29   14   41 1
  30   15   16 1
  31   15   23 1
  32   15   17 1
  33   17   18 1
  34   17   42 1
  35   17   43 1
  36   18   19 1
  37   18   20 1
  38   20   21 1
  39   20   23 1
  40   20   22 1
  41   22   23 1
  42   23   24 1
  43   26   27 1
  44   26   30 am
  45   27   28 1
  46   27   44 1
  47   27   45 1
  48   28   29 1
  49   28   46 1
  50   28   47 1
  51   29   48 1
  52   29   49 1
  53   29   50 1
  54   30   31 2
