@<TRIPOS>MOLECULE
ZINC000056897587
  56   60    0    0    0
SMALL
USER_CHARGES
NO_NAME
@<TRIPOS>ATOM
    1 C1       -0.0349     1.4179     0.0604 C.3    1 <0>       0.1000
    2 N2        0.0759    -0.0426     0.0403 N.pl3  1 <0>      -0.6200
    3 C3        0.0741    -0.8258    -1.1213 C.ar   1 <0>       0.1600
    4 C4       -0.3127    -0.4983    -2.4202 C.ar   1 <0>      -0.1300
    5 C5       -0.2312    -1.4364    -3.4282 C.ar   1 <0>      -0.0700
    6 C6        0.2362    -2.7135    -3.1572 C.ar   1 <0>       0.0900
    7 O7        0.3183    -3.6365    -4.1529 O.3    1 <0>      -0.3000
    8 C8       -0.5510    -4.6638    -4.1073 C.2    1 <0>       0.6500
    9 O9       -1.4297    -4.6795    -3.2681 O.2    1 <0>      -0.5600
   10 N10      -0.4466    -5.6747    -4.9926 N.am   1 <0>      -0.5900
   11 C11      -1.3847    -6.8093    -4.9733 C.3    1 <0>       0.1300
   12 C12      -2.1725    -6.7896    -6.2823 C.3    1 <0>      -0.1000
   13 C13      -1.2509    -6.6117    -7.4600 C.ar   1 <0>      -0.0700
   14 C14      -1.7226    -6.9915    -8.7104 C.ar   1 <0>      -0.1200
   15 C15      -0.9330    -6.8463    -9.8322 C.ar   1 <0>      -0.1100
   16 C16       0.3385    -6.3171    -9.7142 C.ar   1 <0>      -0.1200
   17 C17       0.8109    -5.9421    -8.4729 C.ar   1 <0>      -0.1100
   18 C18       0.0196    -6.0933    -7.3428 C.ar   1 <0>      -0.1000
   19 C19       0.6026    -5.6856    -6.0176 C.3    1 <0>       0.1500
   20 C20       0.6203    -3.0463    -1.8664 C.ar   1 <0>      -0.0600
   21 C21       0.5376    -2.1069    -0.8579 C.ar   1 <0>      -0.1400
   22 C22       0.8878    -2.1897     0.6111 C.3    1 <0>      -0.0200
   23 C23       2.3871    -2.2689     0.8700 C.3    1 <0>      -0.1300
   24 C24       0.0940    -3.3473     1.2568 C.3    1 <0>      -0.1300
   25 C25      -1.3147    -2.7184     1.3995 C.3    1 <0>       0.0000
   26 N26      -1.0293    -1.3220     1.8220 N.4    1 <0>      -0.4100
   27 H27      -0.9224    -1.3121     2.8389 H      1 <0>       0.4300
   28 C28      -2.1608    -0.4611     1.4664 C.3    1 <0>      -0.0400
   29 C29       0.2380    -0.9105     1.2056 C.3    1 <0>       0.2600
   30 H30       0.9081    -0.4520     1.9411 H      1 <0>       0.1600
   31 H31       0.9589     1.8588    -0.0180 H      1 <0>       0.0700
   32 H32      -0.6460     1.7475    -0.7798 H      1 <0>       0.0900
   33 H33      -0.5001     1.7341     0.9941 H      1 <0>       0.0800
   34 H34      -0.6797     0.4923    -2.6448 H      1 <0>       0.1400
   35 H35      -0.5338    -1.1750    -4.4314 H      1 <0>       0.1400
   36 H36      -0.8309    -7.7444    -4.8902 H      1 <0>       0.0900
   37 H37      -2.0681    -6.7084    -4.1301 H      1 <0>       0.1000
   38 H38      -2.7135    -7.7299    -6.3893 H      1 <0>       0.1000
   39 H39      -2.8868    -5.9666    -6.2585 H      1 <0>       0.0800
   40 H40      -2.7160    -7.4045    -8.8049 H      1 <0>       0.1200
   41 H41      -1.3071    -7.1456   -10.8001 H      1 <0>       0.1300
   42 H42       0.9597    -6.1979   -10.5895 H      1 <0>       0.1300
   43 H43       1.8040    -5.5279    -8.3802 H      1 <0>       0.1300
   44 H44       1.0364    -4.6894    -6.1034 H      1 <0>       0.1000
   45 H45       1.3784    -6.3948    -5.7291 H      1 <0>       0.0900
   46 H46       0.9842    -4.0402    -1.6527 H      1 <0>       0.1300
   47 H47       2.8753    -1.3892     0.4506 H      1 <0>       0.0700
   48 H48       2.5688    -2.3079     1.9440 H      1 <0>       0.0800
   49 H49       2.7900    -3.1664     0.4005 H      1 <0>       0.0800
   50 H50       0.0672    -4.2157     0.6017 H      1 <0>       0.1200
   51 H51       0.5044    -3.6040     2.2320 H      1 <0>       0.1100
   52 H52      -1.8404    -2.7302     0.4451 H      1 <0>       0.1300
   53 H53      -1.8931    -3.2389     2.1626 H      1 <0>       0.1400
   54 H54      -3.0544    -0.8007     1.9900 H      1 <0>       0.1200
   55 H55      -1.9397     0.5668     1.7539 H      1 <0>       0.1200
   56 H56      -2.3297    -0.5091     0.3906 H      1 <0>       0.1200
@<TRIPOS>BOND
   1    1    2 1
   2    1   31 1
   3    1   32 1
   4    1   33 1
   5    2   29 1
   6    2    3 1
   7    3   21 ar
   8    3    4 ar
   9    4    5 ar
  10    4   34 1
  11    5    6 ar
  12    5   35 1
  13    6    7 1
  14    6   20 ar
  15    7    8 1
  16    8    9 2
  17    8   10 am
  18   10   19 1
  19   10   11 1
  20   11   12 1
  21   11   36 1
  22   11   37 1
  23   12   13 1
  24   12   38 1
  25   12   39 1
  26   13   18 ar
  27   13   14 ar
  28   14   15 ar
  29   14   40 1
  30   15   16 ar
  31   15   41 1
  32   16   17 ar
  33   16   42 1
  34   17   18 ar
  35   17   43 1
  36   18   19 1
  37   19   44 1
  38   19   45 1
  39   20   21 ar
  40   20   46 1
  41   21   22 1
  42   22   29 1
  43   22   23 1
  44   22   24 1
  45   23   47 1
  46   23   48 1
  47   23   49 1
  48   24   25 1
  49   24   50 1
  50   24   51 1
  51   25   26 1
  52   25   52 1
  53   25   53 1
  54   26   27 1
  55   26   28 1
  56   26   29 1
  57   28   54 1
  58   28   55 1
  59   28   56 1
  60   29   30 1
