@<TRIPOS>MOLECULE
ZINC000003996025
  46   49    0    0    0
SMALL
USER_CHARGES
NO_NAME
@<TRIPOS>ATOM
    1 O1       -0.0173     1.4248     0.0099 O.3    1 <0>      -0.5600
    2 C2        0.0021    -0.0041     0.0020 C.3    1 <0>       0.0800
    3 C3       -1.4333    -0.5336     0.0129 C.3    1 <0>       0.0500
    4 H4       -1.9871    -0.1096     0.8505 H      1 <0>       0.1000
    5 O5       -2.0929    -0.2241    -1.2341 O.3    1 <0>      -0.3500
    6 C6       -3.1943    -1.1540    -1.3231 C.3    1 <0>       0.3200
    7 H7       -4.0192    -0.8268    -0.6902 H      1 <0>       0.1200
    8 N8       -3.6398    -1.2855    -2.7125 N.pl3  1 <0>      -0.4600
    9 C9       -2.8940    -1.0351    -3.8258 C.2    1 <0>       0.2900
   10 N10      -3.6033    -1.2545    -4.8947 N.2    1 <0>      -0.4700
   11 C11      -4.8457    -1.6585    -4.5364 C.ar   1 <0>      -0.1000
   12 C12      -6.0061    -2.0262    -5.2383 C.ar   1 <0>       0.5100
   13 N13      -6.0279    -2.0215    -6.6220 N.pl3  1 <0>      -0.6900
   14 C14      -7.2469    -2.4080    -7.3367 C.3    1 <0>       0.1500
   15 H15      -7.7716    -3.1879    -6.7848 H      1 <0>       0.1100
   16 C16      -8.1643    -1.1811    -7.5186 C.3    1 <0>      -0.1300
   17 C17      -7.8230    -0.6585    -8.9362 C.3    1 <0>      -0.1300
   18 C18      -7.6097    -1.9652    -9.7400 C.3    1 <0>      -0.1600
   19 C19      -6.8942    -2.9077    -8.7486 C.3    1 <0>       0.0900
   20 H20      -5.8160    -2.8623    -8.9022 H      1 <0>       0.0600
   21 O21      -7.3575    -4.2478    -8.9260 O.3    1 <0>      -0.5600
   22 N22      -7.0821    -2.3790    -4.5424 N.ar   1 <0>      -0.5900
   23 C23      -7.0703    -2.3869    -3.2220 C.ar   1 <0>       0.3600
   24 N24      -6.0069    -2.0499    -2.5229 N.ar   1 <0>      -0.5600
   25 C25      -4.8823    -1.6889    -3.1319 C.ar   1 <0>       0.3100
   26 C26      -2.6218    -2.4941    -0.8103 C.3    1 <0>       0.0700
   27 H27      -3.3710    -3.0321    -0.2294 H      1 <0>       0.1000
   28 O28      -2.1671    -3.2951    -1.9028 O.3    1 <0>      -0.5400
   29 C29      -1.4367    -2.0764     0.0918 C.3    1 <0>       0.0500
   30 H30      -0.5011    -2.4794    -0.2959 H      1 <0>       0.0900
   31 O31      -1.6510    -2.5150     1.4349 O.3    1 <0>      -0.5500
   32 H32       0.8606     1.8301     0.0037 H      1 <0>       0.3900
   33 H33       0.5123    -0.3556    -0.8948 H      1 <0>       0.0600
   34 H34       0.5293    -0.3651     0.8851 H      1 <0>       0.0700
   35 H35      -1.8664    -0.7030    -3.8215 H      1 <0>       0.2200
   36 H36      -5.2360    -1.7623    -7.1187 H      1 <0>       0.4200
   37 H37      -9.2120    -1.4766    -7.4630 H      1 <0>       0.0800
   38 H38      -7.9405    -0.4228    -6.7683 H      1 <0>       0.0700
   39 H39      -8.6534    -0.0838    -9.3463 H      1 <0>       0.0700
   40 H40      -6.9106    -0.0624    -8.9188 H      1 <0>       0.0700
   41 H41      -8.5678    -2.3872   -10.0432 H      1 <0>       0.0800
   42 H42      -6.9811    -1.7790   -10.6109 H      1 <0>       0.0700
   43 H43      -7.1832    -4.6111    -9.8051 H      1 <0>       0.3800
   44 H44      -7.9667    -2.6803    -2.6960 H      1 <0>       0.2000
   45 H45      -1.7976    -4.1485    -1.6378 H      1 <0>       0.3900
   46 H46      -0.9377    -2.2796     2.0440 H      1 <0>       0.3900
@<TRIPOS>BOND
   1    1    2 1
   2    1   32 1
   3    2    3 1
   4    2   33 1
   5    2   34 1
   6    3    4 1
   7    3   29 1
   8    3    5 1
   9    5    6 1
  10    6    7 1
  11    6    8 1
  12    6   26 1
  13    8   25 1
  14    8    9 1
  15    9   10 2
  16    9   35 1
  17   10   11 1
  18   11   25 ar
  19   11   12 ar
  20   12   13 1
  21   12   22 ar
  22   13   14 1
  23   13   36 1
  24   14   15 1
  25   14   19 1
  26   14   16 1
  27   16   17 1
  28   16   37 1
  29   16   38 1
  30   17   18 1
  31   17   39 1
  32   17   40 1
  33   18   19 1
  34   18   41 1
  35   18   42 1
  36   19   20 1
  37   19   21 1
  38   21   43 1
  39   22   23 ar
  40   23   24 ar
  41   23   44 1
  42   24   25 ar
  43   26   27 1
  44   26   28 1
  45   26   29 1
  46   28   45 1
  47   29   30 1
  48   29   31 1
  49   31   46 1
