@<TRIPOS>MOLECULE
ZINC000006717478
62    64    1     0     0
SMALL
USER_CHARGES
@<TRIPOS>ATOM
1      C1      0.4083    0.1702   -0.4080 C.3      1 ZINC000006717478    0.0200
2      N2     -0.2579   -0.5316    0.6972 N.3      1 ZINC000006717478   -0.4900
3      C3     -0.2289    0.2735    1.9256 C.3      1 ZINC000006717478    0.0300
4      C4     -1.5580   -0.8726    0.3573 C.ar     1 ZINC000006717478    0.4200
5      C5     -1.9439   -2.2078    0.2944 C.ar     1 ZINC000006717478   -0.0100
6      C6     -0.9619   -3.3113    0.5929 C.3      1 ZINC000006717478   -0.1500
7      C7     -0.9838   -3.6177    2.0682 C.2      1 ZINC000006717478    0.5200
8      O8     -1.7278   -2.9974    2.8087 O.co2    1 ZINC000006717478   -0.7000
9      O9     -0.2574   -4.4858    2.5214 O.co2    1 ZINC000006717478   -0.6700
10     C10    -3.2605   -2.4978   -0.0511 C.ar     1 ZINC000006717478    0.3500
11     N11    -3.6944   -3.8122   -0.1271 N.3      1 ZINC000006717478   -0.4800
12     C12    -4.7942   -4.0589    0.8150 C.3      1 ZINC000006717478    0.0100
13     C13    -4.0892   -4.1577   -1.4993 C.3      1 ZINC000006717478    0.0100
14     N14    -4.0974   -1.4941   -0.3070 N.ar     1 ZINC000006717478   -0.5200
15     H15    -5.0169   -1.6874   -0.5482 H        1 ZINC000006717478    0.4300
16     C16    -3.6934   -0.2420   -0.2366 C.ar     1 ZINC000006717478    0.3800
17     C17    -4.6756    0.8615   -0.5341 C.3      1 ZINC000006717478   -0.0300
18     C18    -4.7240    1.8181    0.6294 C.ar     1 ZINC000006717478   -0.1200
19     C19    -5.6203    1.6051    1.6607 C.ar     1 ZINC000006717478   -0.0900
20     C20    -5.6673    2.4798    2.7284 C.ar     1 ZINC000006717478   -0.1400
21     C21    -4.8130    3.5743    2.7656 C.ar     1 ZINC000006717478    0.1600
22     N22    -4.8577    4.4617    3.8455 N.am     1 ZINC000006717478   -0.6700
23     C23    -4.6020    5.7709    3.6530 C.2      1 ZINC000006717478    0.5600
24     O24    -4.4251    6.1967    2.5281 O.2      1 ZINC000006717478   -0.5000
25     C25    -4.5366    6.6891    4.8095 C.ar     1 ZINC000006717478   -0.1100
26     C26    -4.7334    6.2025    6.1029 C.ar     1 ZINC000006717478   -0.0900
27     C27    -4.6706    7.0647    7.1780 C.ar     1 ZINC000006717478   -0.0700
28     C28    -4.4131    8.4091    6.9763 C.ar     1 ZINC000006717478   -0.1500
29     C29    -4.3454    9.3450    8.1555 C.3      1 ZINC000006717478    0.5100
30     F30    -3.0306    9.4032    8.6298 F        1 ZINC000006717478   -0.1700
31     F31    -4.7558   10.6229    7.7608 F        1 ZINC000006717478   -0.1700
32     F32    -5.1871    8.8778    9.1706 F        1 ZINC000006717478   -0.1700
33     C33    -4.2170    8.8980    5.6969 C.ar     1 ZINC000006717478   -0.0700
34     C34    -4.2719    8.0456    4.6135 C.ar     1 ZINC000006717478   -0.0600
35     C35    -3.9140    3.7853    1.7282 C.ar     1 ZINC000006717478   -0.1200
36     C36    -3.8682    2.9037    0.6661 C.ar     1 ZINC000006717478   -0.0600
37     N37    -2.4572    0.0733    0.0917 N.ar     1 ZINC000006717478   -0.4900
38     H38     1.4473    0.3639   -0.1416 H        1 ZINC000006717478    0.1000
39     H39     0.3724   -0.4480   -1.3051 H        1 ZINC000006717478    0.0700
40     H40    -0.1005    1.1154   -0.5975 H        1 ZINC000006717478    0.0500
41     H41    -0.6855    1.2447    1.7344 H        1 ZINC000006717478    0.0500
42     H42    -0.7838   -0.2407    2.7103 H        1 ZINC000006717478    0.0900
43     H43     0.8042    0.4141    2.2436 H        1 ZINC000006717478    0.0900
44     H44    -1.2376   -4.2045    0.0322 H        1 ZINC000006717478    0.1000
45     H45     0.0398   -2.9947    0.3023 H        1 ZINC000006717478    0.1000
46     H46    -5.6301   -3.4006    0.5781 H        1 ZINC000006717478    0.0400
47     H47    -5.1154   -5.0974    0.7346 H        1 ZINC000006717478    0.1100
48     H48    -4.4531   -3.8617    1.8313 H        1 ZINC000006717478    0.1000
49     H49    -3.2356   -4.0323   -2.1654 H        1 ZINC000006717478    0.0900
50     H50    -4.4254   -5.1941   -1.5306 H        1 ZINC000006717478    0.1100
51     H51    -4.8995   -3.5030   -1.8200 H        1 ZINC000006717478    0.0400
52     H52    -4.3612    1.3957   -1.4308 H        1 ZINC000006717478    0.1300
53     H53    -5.6652    0.4337   -0.6942 H        1 ZINC000006717478    0.1100
54     H54    -6.2845    0.7540    1.6310 H        1 ZINC000006717478    0.1300
55     H55    -6.3677    2.3132    3.5334 H        1 ZINC000006717478    0.1300
56     H56    -5.0727    4.1350    4.7332 H        1 ZINC000006717478    0.4100
57     H57    -4.9349    5.1533    6.2616 H        1 ZINC000006717478    0.1400
58     H58    -4.8231    6.6896    8.1792 H        1 ZINC000006717478    0.1500
59     H59    -4.0168    9.9485    5.5463 H        1 ZINC000006717478    0.1500
60     H60    -4.1187    8.4285    3.6154 H        1 ZINC000006717478    0.1500
61     H61    -3.2484    4.6354    1.7541 H        1 ZINC000006717478    0.1400
62     H62    -3.1694    3.0672   -0.1409 H        1 ZINC000006717478    0.1300
@<TRIPOS>BOND
1     1     2     1
2     1     38    1
3     1     39    1
4     1     40    1
5     2     3     1
6     2     4     1
7     3     41    1
8     3     42    1
9     3     43    1
10    4     37    ar
11    4     5     ar
12    5     6     1
13    5     10    ar
14    6     7     1
15    6     44    1
16    6     45    1
17    7     8     ar
18    7     9     ar
19    10    11    1
20    10    14    ar
21    11    12    1
22    11    13    1
23    12    46    1
24    12    47    1
25    12    48    1
26    13    49    1
27    13    50    1
28    13    51    1
29    14    15    1
30    14    16    ar
31    16    17    1
32    16    37    ar
33    17    18    1
34    17    52    1
35    17    53    1
36    18    36    ar
37    18    19    ar
38    19    20    ar
39    19    54    1
40    20    21    ar
41    20    55    1
42    21    22    1
43    21    35    ar
44    22    23    am
45    22    56    1
46    23    24    2
47    23    25    1
48    25    34    ar
49    25    26    ar
50    26    27    ar
51    26    57    1
52    27    28    ar
53    27    58    1
54    28    29    1
55    28    33    ar
56    29    30    1
57    29    31    1
58    29    32    1
59    33    34    ar
60    33    59    1
61    34    60    1
62    35    36    ar
63    35    61    1
64    36    62    1
@<TRIPOS>SUBSTRUCTURE
1   ZINC000006717478 1     RESIDUE    1   A     ZIN   1
