@<TRIPOS>MOLECULE
ZINC000003953163
  39   41    0    0    0
SMALL
USER_CHARGES
NO_NAME
@<TRIPOS>ATOM
    1 C1       -0.0173     1.4248     0.0099 C.3    1 <0>       0.0300
    2 O2        0.0021    -0.0041     0.0020 O.3    1 <0>      -0.3700
    3 C3        0.6734    -0.5824     1.1231 C.3    1 <0>       0.0700
    4 C4        0.6327    -2.1077     1.0107 C.3    1 <0>      -0.1000
    5 H5        1.0484    -2.4142     0.0508 H      1 <0>       0.1100
    6 C6        1.4553    -2.7301     2.1503 C.3    1 <0>       0.0400
    7 H7        2.4628    -2.3172     2.2023 H      1 <0>       0.1600
    8 C8        0.6707    -2.5247     3.4665 C.3    1 <0>      -0.1500
    9 C9       -0.2511    -3.7573     3.5734 C.3    1 <0>      -0.1400
   10 C10       0.0604    -4.5955     2.3122 C.3    1 <0>       0.0400
   11 H11      -0.0305    -5.6660     2.4960 H      1 <0>       0.1600
   12 C12      -0.8744    -4.1196     1.1887 C.3    1 <0>      -0.1400
   13 C13      -0.8161    -2.5916     1.1202 C.3    1 <0>      -0.0500
   14 H14      -1.2388    -2.1713     2.0327 H      1 <0>       0.1000
   15 C15      -1.6107    -2.1124    -0.0673 C.ar   1 <0>      -0.0500
   16 C16      -1.2646    -2.5227    -1.3410 C.ar   1 <0>      -0.0900
   17 C17      -1.9927    -2.0839    -2.4312 C.ar   1 <0>      -0.0900
   18 C18      -3.0680    -1.2337    -2.2477 C.ar   1 <0>      -0.0300
   19 Cl19     -3.9829    -0.6827    -3.6163 Cl     1 <0>      -0.0400
   20 C20      -3.4147    -0.8225    -0.9716 C.ar   1 <0>      -0.0300
   21 Cl21     -4.7642     0.2446    -0.7396 Cl     1 <0>      -0.0400
   22 C22      -2.6887    -1.2671     0.1184 C.ar   1 <0>      -0.0800
   23 N23       1.4606    -4.2019     1.9372 N.4    1 <0>      -0.5200
   24 H24       1.6472    -4.4296     0.9721 H      1 <0>       0.4300
   25 H25       2.1303    -4.6507     2.5438 H      1 <0>       0.4300
   26 H26       1.0053     1.8021     0.0021 H      1 <0>       0.0500
   27 H27      -0.5445     1.7859    -0.8732 H      1 <0>       0.0900
   28 H28      -0.5275     1.7763     0.9067 H      1 <0>       0.0500
   29 H29       1.7103    -0.2468     1.1385 H      1 <0>       0.0600
   30 H30       0.1775    -0.2725     2.0430 H      1 <0>       0.0600
   31 H31       1.3549    -2.4881     4.3142 H      1 <0>       0.1000
   32 H32       0.0783    -1.6112     3.4164 H      1 <0>       0.1100
   33 H33      -0.0203    -4.3267     4.4738 H      1 <0>       0.1000
   34 H34      -1.2969    -3.4498     3.5758 H      1 <0>       0.1100
   35 H35      -0.5362    -4.5261     0.2356 H      1 <0>       0.0900
   36 H36      -1.8907    -4.4574     1.3917 H      1 <0>       0.1200
   37 H37      -0.4247    -3.1864    -1.4847 H      1 <0>       0.1300
   38 H38      -1.7215    -2.4046    -3.4262 H      1 <0>       0.1400
   39 H39      -2.9588    -0.9471     1.1140 H      1 <0>       0.1400
@<TRIPOS>BOND
   1    1    2 1
   2    1   26 1
   3    1   27 1
   4    1   28 1
   5    2    3 1
   6    3    4 1
   7    3   29 1
   8    3   30 1
   9    4    5 1
  10    4   13 1
  11    4    6 1
  12    6    7 1
  13    6   23 1
  14    6    8 1
  15    8    9 1
  16    8   31 1
  17    8   32 1
  18    9   10 1
  19    9   33 1
  20    9   34 1
  21   10   11 1
  22   10   12 1
  23   10   23 1
  24   12   13 1
  25   12   35 1
  26   12   36 1
  27   13   14 1
  28   13   15 1
  29   15   22 ar
  30   15   16 ar
  31   16   17 ar
  32   16   37 1
  33   17   18 ar
  34   17   38 1
  35   18   19 1
  36   18   20 ar
  37   20   21 1
  38   20   22 ar
  39   22   39 1
  40   23   24 1
  41   23   25 1
