@<TRIPOS>MOLECULE
ZINC000002512351
  23   22    0    0    0
SMALL
USER_CHARGES
NO_NAME
@<TRIPOS>ATOM
    1 O1        0.0021    -0.0041     0.0020 O.2    1 <0>      -0.4600
    2 C2       -0.0143     1.2034     0.0087 C.2    1 <0>       0.3500
    3 C3        1.2804     1.9746     0.0004 C.3    1 <0>      -0.2200
    4 C4        1.2839     2.9527    -1.1760 C.3    1 <0>       0.0900
    5 H5        1.0963     2.4085    -2.1016 H      1 <0>       0.1200
    6 O6        0.2615     3.9325    -0.9840 O.3    1 <0>      -0.5500
    7 C7        2.6454     3.6459    -1.2589 C.3    1 <0>       0.0500
    8 H8        3.4142     2.9097    -1.4937 H      1 <0>       0.1100
    9 O9        2.9433     4.2622    -0.0046 O.3    1 <0>      -0.5500
   10 C10       2.6088     4.7124    -2.3553 C.3    1 <0>       0.0800
   11 H11       1.8400     5.4486    -2.1206 H      1 <0>       0.1100
   12 O12       2.3109     4.0961    -3.6097 O.3    1 <0>      -0.5400
   13 C13       3.9703     5.4055    -2.4382 C.3    1 <0>       0.0400
   14 O14       3.9021     6.4783    -3.3798 O.3    1 <0>      -0.5700
   15 H15      -0.9568     1.7306     0.0160 H      1 <0>       0.1000
   16 H16       1.3792     2.5286     0.9339 H      1 <0>       0.1100
   17 H17       2.1155     1.2815    -0.1008 H      1 <0>       0.1000
   18 H18       0.3648     4.4559    -0.1775 H      1 <0>       0.3700
   19 H19       2.2993     4.9300     0.2683 H      1 <0>       0.3800
   20 H20       2.9549     3.4283    -3.8826 H      1 <0>       0.3700
   21 H21       4.2378     5.7992    -1.4576 H      1 <0>       0.0600
   22 H22       4.7246     4.6874    -2.7596 H      1 <0>       0.0500
   23 H23       4.7320     6.9636    -3.4839 H      1 <0>       0.3800
@<TRIPOS>BOND
   1    1    2 2
   2    2    3 1
   3    2   15 1
   4    3    4 1
   5    3   16 1
   6    3   17 1
   7    4    5 1
   8    4    6 1
   9    4    7 1
  10    6   18 1
  11    7    8 1
  12    7    9 1
  13    7   10 1
  14    9   19 1
  15   10   11 1
  16   10   12 1
  17   10   13 1
  18   12   20 1
  19   13   14 1
  20   13   21 1
  21   13   22 1
  22   14   23 1
