@<TRIPOS>MOLECULE
ZINC000004097409
19    18    1     0     0
SMALL
USER_CHARGES
@<TRIPOS>ATOM
1      C1      1.8300    3.0134   -1.0275 C.2      1 ZINC000004097409   -0.1500
2      C2      1.3913    2.3314    0.0013 C.2      1 ZINC000004097409   -0.1800
3      C3     -0.0225    1.8097    0.0120 C.3      1 ZINC000004097409    0.0300
4      S4      0.0021   -0.0041    0.0020 S.3      1 ZINC000004097409   -0.6600
5      S5      0.7093   -0.4659    1.8699 S.o      1 ZINC000004097409    1.2900
6      O6     -0.3292   -0.0111    2.7264 O.2      1 ZINC000004097409   -0.7600
7      C7      0.7339   -2.2798    1.8599 C.3      1 ZINC000004097409   -0.3900
8      C8      1.2394   -2.7826    3.1876 C.2      1 ZINC000004097409   -0.1600
9      C9      0.4464   -3.4681    3.9733 C.2      1 ZINC000004097409   -0.1600
10     H10     1.1785    3.2019   -1.8680 H        1 ZINC000004097409    0.1000
11     H11     2.8432    3.3872   -1.0352 H        1 ZINC000004097409    0.1100
12     H12     2.0428    2.1429    0.8418 H        1 ZINC000004097409    0.1200
13     H13    -0.5497    2.1708   -0.8711 H        1 ZINC000004097409    0.1200
14     H14    -0.5327    2.1613    0.9088 H        1 ZINC000004097409    0.1000
15     H15    -0.2748   -2.6559    1.6891 H        1 ZINC000004097409    0.1100
16     H16     1.3918   -2.6298    1.0645 H        1 ZINC000004097409    0.1400
17     H17     2.2553   -2.5778    3.4913 H        1 ZINC000004097409    0.1300
18     H18     0.8086   -3.8285    4.9248 H        1 ZINC000004097409    0.1100
19     H19    -0.5696   -3.6729    3.6696 H        1 ZINC000004097409    0.1000
@<TRIPOS>BOND
1     1     2     2
2     1     10    1
3     1     11    1
4     2     3     1
5     2     12    1
6     3     4     1
7     3     13    1
8     3     14    1
9     4     5     1
10    5     6     2
11    5     7     1
12    7     8     1
13    7     15    1
14    7     16    1
15    8     9     2
16    8     17    1
17    9     18    1
18    9     19    1
@<TRIPOS>SUBSTRUCTURE
1   ZINC000004097409 1     RESIDUE    1   A     ZIN   1
