@<TRIPOS>MOLECULE
ZINC000253633622
71    77    1     0     0
SMALL
USER_CHARGES
@<TRIPOS>ATOM
1      O1     -0.0173    1.4248    0.0099 O.3      1 ZINC000253633622   -0.5400
2      C2      0.0021   -0.0041    0.0020 C.3      1 ZINC000253633622    0.0900
3      H3     -1.0205   -0.3814    0.0098 H        1 ZINC000253633622    0.1300
4      C4      0.7182   -0.4975   -1.2568 C.3      1 ZINC000253633622    0.0300
5      O5     -0.0359   -0.1233   -2.4115 O.3      1 ZINC000253633622   -0.3000
6      C6      0.4650   -0.4877   -3.6195 C.ar     1 ZINC000253633622    0.1500
7      C7     -0.2187   -0.1496   -4.8041 C.ar     1 ZINC000253633622   -0.1200
8      C8     -1.4274    0.5676   -4.7718 C.ar     1 ZINC000253633622   -0.0400
9      C9     -2.0354    0.8611   -5.9600 C.ar     1 ZINC000253633622   -0.1800
10     C10    -1.4549    0.4505   -7.1574 C.ar     1 ZINC000253633622    0.1500
11     N11    -0.3274   -0.2182   -7.1838 N.ar     1 ZINC000253633622   -0.4800
12     C12     0.3181   -0.5373   -6.0567 C.ar     1 ZINC000253633622    0.1600
13     C13     1.5260   -1.2540   -6.0927 C.ar     1 ZINC000253633622   -0.1200
14     C14     2.1664   -1.5683   -4.9329 C.ar     1 ZINC000253633622   -0.0700
15     C15     1.6494   -1.1863   -3.6988 C.ar     1 ZINC000253633622   -0.2200
16     C16     0.7421   -0.5109    1.2415 C.3      1 ZINC000253633622   -0.0400
17     N17    -0.0103   -0.1391    2.4472 N.4      1 ZINC000253633622   -0.3800
18     H18    -0.1670    0.8577    2.4516 H        1 ZINC000253633622    0.4300
19     C19     0.7580   -0.5189    3.6400 C.3      1 ZINC000253633622    0.0000
20     C20    -0.0169   -0.1147    4.8962 C.3      1 ZINC000253633622    0.0200
21     N21    -1.3238   -0.7870    4.8996 N.3      1 ZINC000253633622   -0.5100
22     C22    -2.0766   -0.4684    6.1201 C.3      1 ZINC000253633622    0.1800
23     H23    -2.2013    0.6145    6.1146 H        1 ZINC000253633622    0.0600
24     C24    -1.1872   -0.7790    7.2506 C.ar     1 ZINC000253633622   -0.0700
25     C25    -0.5044    0.3289    7.7802 C.ar     1 ZINC000253633622   -0.1200
26     C26     0.4102    0.2005    8.7955 C.ar     1 ZINC000253633622   -0.1100
27     C27     0.6838   -1.0509    9.3160 C.ar     1 ZINC000253633622   -0.1000
28     C28     0.0025   -2.1400    8.8222 C.ar     1 ZINC000253633622   -0.1100
29     C29    -0.9547   -2.0025    7.8167 C.ar     1 ZINC000253633622   -0.0200
30     C30    -1.7261   -3.2452    7.4963 C.3      1 ZINC000253633622   -0.1000
31     H31    -1.6350   -4.0140    8.2636 H        1 ZINC000253633622    0.1400
32     C32    -2.8713   -3.4254    6.5659 C.3      1 ZINC000253633622   -0.0900
33     H33    -3.4156   -4.3616    6.6899 H        1 ZINC000253633622    0.1300
34     C34    -3.7855   -2.3372    6.1406 C.ar     1 ZINC000253633622   -0.0200
35     C35    -5.1237   -2.6979    5.9718 C.ar     1 ZINC000253633622   -0.1100
36     C36    -6.0693   -1.7860    5.5642 C.ar     1 ZINC000253633622   -0.1000
37     C37    -5.6796   -0.4832    5.3149 C.ar     1 ZINC000253633622   -0.1100
38     C38    -4.3658   -0.1246    5.4864 C.ar     1 ZINC000253633622   -0.1300
39     C39    -3.4182   -1.0421    5.9426 C.ar     1 ZINC000253633622   -0.0600
40     C40    -1.5019   -3.6975    6.0242 C.3      1 ZINC000253633622    0.1900
41     F41    -0.9580   -2.7662    5.1332 F        1 ZINC000253633622   -0.1100
42     F42    -1.1440   -5.0314    5.8009 F        1 ZINC000253633622   -0.1600
43     C43    -2.0947   -0.4358    3.6985 C.3      1 ZINC000253633622    0.0200
44     C44    -1.3025   -0.8375    2.4524 C.3      1 ZINC000253633622   -0.0100
45     H45     0.8606    1.8301    0.0037 H        1 ZINC000253633622    0.3900
46     H46     1.7103   -0.0491   -1.3098 H        1 ZINC000253633622    0.0800
47     H47     0.8116   -1.5829   -1.2198 H        1 ZINC000253633622    0.0800
48     H48    -1.8637    0.8779   -3.8338 H        1 ZINC000253633622    0.1400
49     H49    -2.9652    1.4104   -5.9704 H        1 ZINC000253633622    0.1400
50     H50    -1.9466    0.6890   -8.0890 H        1 ZINC000253633622    0.1700
51     H51     1.9464   -1.5561   -7.0405 H        1 ZINC000253633622    0.1400
52     H52     3.0944   -2.1195   -4.9718 H        1 ZINC000253633622    0.1400
53     H53     2.1774   -1.4480   -2.7938 H        1 ZINC000253633622    0.1300
54     H54     0.8346   -1.5958    1.1912 H        1 ZINC000253633622    0.1500
55     H55     1.7350   -0.0630    1.2804 H        1 ZINC000253633622    0.1400
56     H56     0.9163   -1.5973    3.6421 H        1 ZINC000253633622    0.1400
57     H57     1.7220   -0.0102    3.6284 H        1 ZINC000253633622    0.1300
58     H58     0.5462   -0.4098    5.7816 H        1 ZINC000253633622    0.1300
59     H59    -0.1635    0.9654    4.9013 H        1 ZINC000253633622    0.0600
60     H60    -0.7049    1.3103    7.3764 H        1 ZINC000253633622    0.1200
61     H61     0.9140    1.0725    9.1856 H        1 ZINC000253633622    0.1300
62     H62     1.4200   -1.1717   10.0969 H        1 ZINC000253633622    0.1300
63     H63     0.2133   -3.1212    9.2212 H        1 ZINC000253633622    0.1300
64     H64    -5.4234   -3.7172    6.1655 H        1 ZINC000253633622    0.1300
65     H65    -7.1002   -2.0832    5.4405 H        1 ZINC000253633622    0.1300
66     H66    -6.4041    0.2476    4.9869 H        1 ZINC000253633622    0.1300
67     H67    -4.0712    0.8953    5.2881 H        1 ZINC000253633622    0.1200
68     H68    -3.0474   -0.9651    3.7101 H        1 ZINC000253633622    0.1300
69     H69    -2.2755    0.6390    3.6839 H        1 ZINC000253633622    0.0600
70     H70    -1.8661   -0.5650    1.5601 H        1 ZINC000253633622    0.1300
71     H71    -1.1337   -1.9144    2.4607 H        1 ZINC000253633622    0.1400
@<TRIPOS>BOND
1     1     2     1
2     1     45    1
3     2     3     1
4     2     4     1
5     2     16    1
6     4     5     1
7     4     46    1
8     4     47    1
9     5     6     1
10    6     15    ar
11    6     7     ar
12    7     12    ar
13    7     8     ar
14    8     9     ar
15    8     48    1
16    9     10    ar
17    9     49    1
18    10    11    ar
19    10    50    1
20    11    12    ar
21    12    13    ar
22    13    14    ar
23    13    51    1
24    14    15    ar
25    14    52    1
26    15    53    1
27    16    17    1
28    16    54    1
29    16    55    1
30    17    18    1
31    17    44    1
32    17    19    1
33    19    20    1
34    19    56    1
35    19    57    1
36    20    21    1
37    20    58    1
38    20    59    1
39    21    22    1
40    21    43    1
41    22    23    1
42    22    39    1
43    22    24    1
44    24    29    ar
45    24    25    ar
46    25    26    ar
47    25    60    1
48    26    27    ar
49    26    61    1
50    27    28    ar
51    27    62    1
52    28    29    ar
53    28    63    1
54    29    30    1
55    30    31    1
56    30    40    1
57    30    32    1
58    32    33    1
59    32    34    1
60    32    40    1
61    34    39    ar
62    34    35    ar
63    35    36    ar
64    35    64    1
65    36    37    ar
66    36    65    1
67    37    38    ar
68    37    66    1
69    38    39    ar
70    38    67    1
71    40    41    1
72    40    42    1
73    43    44    1
74    43    68    1
75    43    69    1
76    44    70    1
77    44    71    1
@<TRIPOS>SUBSTRUCTURE
1   ZINC000253633622 1     RESIDUE    1   A     ZIN   1
