@<TRIPOS>MOLECULE
ZINC000000538194
  53   56    0    0    0
SMALL
USER_CHARGES
NO_NAME
@<TRIPOS>ATOM
    1 C1       -0.0184     1.5028     0.0103 C.3    1 <0>      -0.1100
    2 C2        0.0021    -0.0041     0.0020 C.2    1 <0>       0.2200
    3 C3       -1.1850    -0.7103     0.0039 C.2    1 <0>      -0.3000
    4 C4       -2.5067     0.0136     0.0137 C.3    1 <0>      -0.0500
    5 C5       -3.0210     0.1558    -1.4203 C.3    1 <0>       0.0600
    6 N6       -4.3093     0.8615    -1.4107 N.3    1 <0>      -0.5400
    7 C7       -5.1963     0.3235    -0.3714 C.3    1 <0>       0.0500
    8 C8       -6.4667     1.1732    -0.2931 C.3    1 <0>      -0.1000
    9 C9       -7.1719     1.1545    -1.6521 C.3    1 <0>      -0.1300
   10 C10      -8.3917     2.0379    -1.5987 C.2    1 <0>       0.4000
   11 O11      -8.4094     3.0035    -0.8652 O.2    1 <0>      -0.4400
   12 C12      -9.5601     1.7291    -2.4358 C.ar   1 <0>      -0.1800
   13 C13      -9.5451     0.6124    -3.2790 C.ar   1 <0>      -0.0400
   14 C14     -10.6434     0.3285    -4.0604 C.ar   1 <0>      -0.1700
   15 C15     -11.7624     1.1469    -4.0131 C.ar   1 <0>       0.1300
   16 F16     -12.8364     0.8629    -4.7820 F      1 <0>      -0.1300
   17 C17     -11.7838     2.2555    -3.1794 C.ar   1 <0>      -0.1700
   18 C18     -10.6944     2.5474    -2.3886 C.ar   1 <0>      -0.0300
   19 C19      -6.2104     1.6742    -2.7245 C.3    1 <0>      -0.1000
   20 C20      -4.9474     0.8099    -2.7323 C.3    1 <0>       0.0600
   21 C21      -1.1404    -2.1092    -0.0040 C.2    1 <0>       0.5100
   22 O22      -2.1719    -2.7624    -0.0030 O.2    1 <0>      -0.5300
   23 N23       0.0611    -2.7250    -0.0132 N.am   1 <0>      -0.4300
   24 C24       0.1211    -4.0855    -0.0211 C.2    1 <0>       0.1000
   25 C25       1.3125    -4.7247    -0.0302 C.2    1 <0>      -0.1700
   26 C26       2.5062    -3.9895    -0.0313 C.2    1 <0>      -0.0300
   27 C27       2.4570    -2.6277    -0.0235 C.2    1 <0>      -0.1400
   28 C28       1.2077    -1.9806    -0.0149 C.2    1 <0>       0.3900
   29 N29       1.1576    -0.6497    -0.0125 N.2    1 <0>      -0.5400
   30 H30       1.0042     1.8801     0.0026 H      1 <0>       0.0800
   31 H31      -0.5455     1.8639    -0.8728 H      1 <0>       0.0900
   32 H32      -0.5286     1.8543     0.9071 H      1 <0>       0.0900
   33 H33      -3.2270    -0.5531     0.6035 H      1 <0>       0.0800
   34 H34      -2.3759     1.0028     0.4525 H      1 <0>       0.0800
   35 H35      -2.3006     0.7226    -2.0101 H      1 <0>       0.0700
   36 H36      -3.1518    -0.8334    -1.8591 H      1 <0>       0.0300
   37 H37      -5.4618    -0.7048    -0.6171 H      1 <0>       0.0400
   38 H38      -4.6843     0.3463     0.5906 H      1 <0>       0.0900
   39 H39      -7.1317     0.7643     0.4676 H      1 <0>       0.0700
   40 H40      -6.2033     2.1986    -0.0339 H      1 <0>       0.0800
   41 H41      -7.4712     0.1345    -1.8933 H      1 <0>       0.0900
   42 H42      -8.6743    -0.0252    -3.3173 H      1 <0>       0.1400
   43 H43     -10.6332    -0.5331    -4.7116 H      1 <0>       0.1400
   44 H44     -12.6581     2.8886    -3.1473 H      1 <0>       0.1400
   45 H45     -10.7123     3.4108    -1.7400 H      1 <0>       0.1500
   46 H46      -6.6922     1.6232    -3.7009 H      1 <0>       0.0700
   47 H47      -5.9429     2.7075    -2.5035 H      1 <0>       0.0800
   48 H48      -4.2546     1.1860    -3.4850 H      1 <0>       0.0800
   49 H49      -5.2140    -0.2206    -2.9669 H      1 <0>       0.0400
   50 H50      -0.7932    -4.6603    -0.0196 H      1 <0>       0.1800
   51 H51       1.3446    -5.8042    -0.0364 H      1 <0>       0.1600
   52 H52       3.4584    -4.4990    -0.0379 H      1 <0>       0.1500
   53 H53       3.3695    -2.0499    -0.0242 H      1 <0>       0.1700
@<TRIPOS>BOND
   1    1    2 1
   2    1   30 1
   3    1   31 1
   4    1   32 1
   5    2   29 1
   6    2    3 2
   7    3    4 1
   8    3   21 1
   9    4    5 1
  10    4   33 1
  11    4   34 1
  12    5    6 1
  13    5   35 1
  14    5   36 1
  15    6   20 1
  16    6    7 1
  17    7    8 1
  18    7   37 1
  19    7   38 1
  20    8    9 1
  21    8   39 1
  22    8   40 1
  23    9   10 1
  24    9   19 1
  25    9   41 1
  26   10   11 2
  27   10   12 1
  28   12   18 ar
  29   12   13 ar
  30   13   14 ar
  31   13   42 1
  32   14   15 ar
  33   14   43 1
  34   15   16 1
  35   15   17 ar
  36   17   18 ar
  37   17   44 1
  38   18   45 1
  39   19   20 1
  40   19   46 1
  41   19   47 1
  42   20   48 1
  43   20   49 1
  44   21   22 2
  45   21   23 am
  46   23   28 1
  47   23   24 1
  48   24   25 2
  49   24   50 1
  50   25   26 1
  51   25   51 1
  52   26   27 2
  53   26   52 1
  54   27   28 1
  55   27   53 1
  56   28   29 2
