@<TRIPOS>MOLECULE
ZINC000242522365
39    40    1     0     0
SMALL
USER_CHARGES
@<TRIPOS>ATOM
1      O1     -0.0003   -0.0133    0.0408 O.co2    1 ZINC000242522365   -0.6900
2      C2     -0.0158    1.2057    0.0576 C.2      1 ZINC000242522365    0.5000
3      O3      1.0322    1.8287    0.0623 O.co2    1 ZINC000242522365   -0.7000
4      C4     -1.3304    1.9425    0.0662 C.3      1 ZINC000242522365   -0.2000
5      C5     -2.4806    0.9336    0.0510 C.3      1 ZINC000242522365    0.1400
6      N6     -3.7586    1.6498    0.0594 N.am     1 ZINC000242522365   -0.7200
7      C7     -4.9171    0.9612    0.0486 C.2      1 ZINC000242522365    0.5500
8      O8     -4.9016   -0.2543    0.0318 O.2      1 ZINC000242522365   -0.5400
9      C9     -6.2055    1.6833    0.0570 C.ar     1 ZINC000242522365   -0.1600
10     C10    -6.2247    3.0803    0.0705 C.ar     1 ZINC000242522365   -0.0500
11     C11    -7.4271    3.7511    0.0785 C.ar     1 ZINC000242522365   -0.1700
12     C12    -8.6233    3.0384    0.0731 C.ar     1 ZINC000242522365    0.1900
13     N13    -9.8363    3.7182    0.0806 N.pl3    1 ZINC000242522365   -0.4900
14     N14   -10.9451    3.0591    0.0756 N.2      1 ZINC000242522365   -0.1700
15     C15   -12.1047    3.7055    0.1848 C.2      1 ZINC000242522365    0.0600
16     C16   -12.1209    5.1211    0.1799 C.2      1 ZINC000242522365   -0.1000
17     C17   -13.2816    5.8057    0.2895 C.2      1 ZINC000242522365   -0.1700
18     C18   -14.5076    5.1155    0.4116 C.2      1 ZINC000242522365    0.3900
19     O19   -15.5562    5.7335    0.5106 O.2      1 ZINC000242522365   -0.4300
20     C20   -14.5087    3.6480    0.4179 C.2      1 ZINC000242522365   -0.2000
21     C21   -15.7685    2.9043    0.5431 C.2      1 ZINC000242522365    0.5200
22     O22   -15.7588    1.6804    0.5474 O.co2    1 ZINC000242522365   -0.6900
23     O23   -16.8283    3.5082    0.6433 O.co2    1 ZINC000242522365   -0.6700
24     C24   -13.3022    2.9741    0.2981 C.2      1 ZINC000242522365   -0.0300
25     C25    -8.6070    1.6461    0.0596 C.ar     1 ZINC000242522365   -0.1500
26     C26    -7.4072    0.9706    0.0458 C.ar     1 ZINC000242522365   -0.0300
27     H27    -1.3972    2.5560    0.9647 H        1 ZINC000242522365    0.0600
28     H28    -1.3951    2.5806   -0.8151 H        1 ZINC000242522365    0.0600
29     H29    -2.4139    0.3201   -0.8475 H        1 ZINC000242522365    0.0700
30     H30    -2.4159    0.2955    0.9323 H        1 ZINC000242522365    0.0700
31     H31    -3.7709    2.6197    0.0728 H        1 ZINC000242522365    0.3900
32     H32    -5.2971    3.6335    0.0751 H        1 ZINC000242522365    0.1300
33     H33    -7.4424    4.8310    0.0892 H        1 ZINC000242522365    0.1300
34     H34    -9.8486    4.6881    0.0897 H        1 ZINC000242522365    0.3900
35     H35   -11.1912    5.6628    0.0876 H        1 ZINC000242522365    0.1200
36     H36   -13.2711    6.8856    0.2839 H        1 ZINC000242522365    0.1400
37     H37   -13.2809    1.8943    0.3001 H        1 ZINC000242522365    0.1500
38     H38    -9.5361    1.0956    0.0558 H        1 ZINC000242522365    0.1500
39     H39    -7.3950   -0.1092    0.0351 H        1 ZINC000242522365    0.1400
@<TRIPOS>BOND
1     1     2     ar
2     2     3     ar
3     2     4     1
4     4     5     1
5     4     27    1
6     4     28    1
7     5     6     1
8     5     29    1
9     5     30    1
10    6     7     am
11    6     31    1
12    7     8     2
13    7     9     1
14    9     26    ar
15    9     10    ar
16    10    11    ar
17    10    32    1
18    11    12    ar
19    11    33    1
20    12    13    1
21    12    25    ar
22    13    14    1
23    13    34    1
24    14    15    2
25    15    24    1
26    15    16    1
27    16    17    2
28    16    35    1
29    17    18    1
30    17    36    1
31    18    19    2
32    18    20    1
33    20    21    1
34    20    24    2
35    21    22    ar
36    21    23    ar
37    24    37    1
38    25    26    ar
39    25    38    1
40    26    39    1
@<TRIPOS>SUBSTRUCTURE
1   ZINC000242522365 1     RESIDUE    1   A     ZIN   1
