@<TRIPOS>MOLECULE
ZINC000040403513
45    48    1     0     0
SMALL
USER_CHARGES
@<TRIPOS>ATOM
1      N1      0.0175   -1.1399   -0.0042 N.1      1 ZINC000040403513   -0.3600
2      C2      0.0021   -0.0041    0.0020 C.1      1 ZINC000040403513    0.2200
3      C3     -0.0173    1.4278    0.0099 C.ar     1 ZINC000040403513   -0.0400
4      C4     -1.2340    2.1131    0.0310 C.ar     1 ZINC000040403513   -0.0200
5      C5     -1.2455    3.4921    0.0384 C.ar     1 ZINC000040403513   -0.1700
6      C6     -2.5581    4.2321    0.0617 C.3      1 ZINC000040403513    0.0500
7      N7     -2.9641    4.4652    1.4541 N.4      1 ZINC000040403513   -0.3900
8      H8     -2.9887    3.5857    1.9480 H        1 ZINC000040403513    0.4200
9      C9     -4.2991    5.0751    1.4774 C.3      1 ZINC000040403513    0.0000
10     C10    -4.7609    5.2457    2.9262 C.3      1 ZINC000040403513   -0.1600
11     C11    -3.7721    6.1494    3.6684 C.3      1 ZINC000040403513    0.1500
12     N12    -4.1664    6.2555    5.0753 N.pl3    1 ZINC000040403513   -0.7000
13     C13    -3.7905    7.3610    5.8176 C.ar     1 ZINC000040403513    0.4900
14     C14    -4.1611    7.4725    7.1821 C.ar     1 ZINC000040403513   -0.2200
15     C15    -4.9258    6.5736    8.0263 C.2      1 ZINC000040403513   -0.0900
16     C16    -5.0905    6.9876    9.2691 C.2      1 ZINC000040403513   -0.1400
17     Cl17   -5.9619    6.1083   10.4861 Cl       1 ZINC000040403513    0.0100
18     S18    -4.3164    8.5386    9.5341 S.3      1 ZINC000040403513    0.2400
19     C19    -3.7479    8.6149    7.8728 C.ar     1 ZINC000040403513    0.1100
20     N20    -3.0298    9.5422    7.2270 N.ar     1 ZINC000040403513   -0.5200
21     C21    -2.7115    9.3924    5.9621 C.ar     1 ZINC000040403513    0.3600
22     N22    -3.0741    8.3296    5.2667 N.ar     1 ZINC000040403513   -0.5800
23     C23    -2.3699    5.5410    3.5740 C.3      1 ZINC000040403513   -0.1600
24     C24    -1.9976    5.3609    2.1007 C.3      1 ZINC000040403513   -0.0100
25     C25    -0.0555    4.1987    0.0250 C.ar     1 ZINC000040403513   -0.0400
26     C26     1.1542    3.5294    0.0037 C.ar     1 ZINC000040403513   -0.1500
27     C27     1.1825    2.1473    0.0023 C.ar     1 ZINC000040403513    0.1800
28     F28     2.3646    1.4935   -0.0186 F        1 ZINC000040403513   -0.1100
29     H29    -2.1640    1.5641    0.0411 H        1 ZINC000040403513    0.1500
30     H30    -2.4451    5.1885   -0.4488 H        1 ZINC000040403513    0.1400
31     H31    -3.3192    3.6379   -0.4440 H        1 ZINC000040403513    0.1400
32     H32    -4.2611    6.0500    0.9914 H        1 ZINC000040403513    0.1400
33     H33    -5.0010    4.4324    0.9460 H        1 ZINC000040403513    0.1400
34     H34    -5.7515    5.7003    2.9413 H        1 ZINC000040403513    0.1200
35     H35    -4.7995    4.2712    3.4130 H        1 ZINC000040403513    0.0900
36     H36    -3.7721    7.1402    3.2141 H        1 ZINC000040403513    0.1100
37     H37    -4.6910    5.5508    5.4864 H        1 ZINC000040403513    0.4200
38     H38    -5.3291    5.6388    7.6659 H        1 ZINC000040403513    0.1500
39     H39    -2.1314   10.1621    5.4750 H        1 ZINC000040403513    0.2100
40     H40    -1.6514    6.2067    4.0522 H        1 ZINC000040403513    0.1200
41     H41    -2.3588    4.5727    4.0743 H        1 ZINC000040403513    0.0900
42     H42    -0.9998    4.9281    2.0288 H        1 ZINC000040403513    0.1300
43     H43    -2.0090    6.3303    1.6024 H        1 ZINC000040403513    0.1400
44     H44    -0.0719    5.2786    0.0310 H        1 ZINC000040403513    0.1500
45     H45     2.0789    4.0874   -0.0071 H        1 ZINC000040403513    0.1600
@<TRIPOS>BOND
1     1     2     3
2     2     3     1
3     3     27    ar
4     3     4     ar
5     4     5     ar
6     4     29    1
7     5     6     1
8     5     25    ar
9     6     7     1
10    6     30    1
11    6     31    1
12    7     8     1
13    7     24    1
14    7     9     1
15    9     10    1
16    9     32    1
17    9     33    1
18    10    11    1
19    10    34    1
20    10    35    1
21    11    12    1
22    11    23    1
23    11    36    1
24    12    13    1
25    12    37    1
26    13    22    ar
27    13    14    ar
28    14    19    ar
29    14    15    1
30    15    16    2
31    15    38    1
32    16    17    1
33    16    18    1
34    18    19    1
35    19    20    ar
36    20    21    ar
37    21    22    ar
38    21    39    1
39    23    24    1
40    23    40    1
41    23    41    1
42    24    42    1
43    24    43    1
44    25    26    ar
45    25    44    1
46    26    27    ar
47    26    45    1
48    27    28    1
@<TRIPOS>SUBSTRUCTURE
1   ZINC000040403513 1     RESIDUE    1   A     ZIN   1
