@<TRIPOS>MOLECULE
ZINC000146274983
59    61    1     0     0
SMALL
USER_CHARGES
@<TRIPOS>ATOM
1      C1      0.1298    1.7633   -0.0500 C.3      1 ZINC000146274983   -0.1400
2      C2      0.2091    0.2354   -0.0586 C.3      1 ZINC000146274983    0.0700
3      O3      0.8785   -0.2001   -1.2436 O.3      1 ZINC000146274983   -0.3700
4      C4      1.0064   -1.6194   -1.3507 C.3      1 ZINC000146274983    0.0300
5      H5      0.1677   -2.0988   -0.8461 H        1 ZINC000146274983    0.0500
6      C6      1.0107   -2.0211   -2.8270 C.3      1 ZINC000146274983   -0.0600
7      C7     -0.3264   -1.6939   -3.4405 C.ar     1 ZINC000146274983   -0.0900
8      C8     -1.3426   -2.6313   -3.4211 C.ar     1 ZINC000146274983   -0.0800
9      C9     -2.5691   -2.3338   -3.9827 C.ar     1 ZINC000146274983   -0.1500
10     C10    -2.7809   -1.0931   -4.5662 C.ar     1 ZINC000146274983    0.1100
11     O11    -3.9868   -0.7979   -5.1191 O.3      1 ZINC000146274983   -0.3200
12     C12    -4.1333    0.4986   -5.7020 C.3      1 ZINC000146274983    0.0400
13     C13    -5.5467    0.6462   -6.2688 C.3      1 ZINC000146274983    0.1000
14     N14    -5.7312    2.0097   -6.7718 N.pl3    1 ZINC000146274983   -0.4300
15     C15    -6.0905    3.0925   -6.0237 C.2      1 ZINC000146274983    0.0300
16     C16    -6.3639    3.0874   -4.5417 C.3      1 ZINC000146274983   -0.0900
17     C17    -6.1590    4.1695   -6.8350 C.2      1 ZINC000146274983   -0.2000
18     C18    -5.8317    3.7469   -8.1342 C.2      1 ZINC000146274983   -0.1700
19     C19    -5.5659    2.4120   -8.0722 C.2      1 ZINC000146274983    0.0500
20     C20    -5.1768    1.5485   -9.2075 C.ar     1 ZINC000146274983   -0.0200
21     C21    -5.4917    1.9269  -10.5141 C.ar     1 ZINC000146274983   -0.0800
22     C22    -5.1278    1.1202  -11.5703 C.ar     1 ZINC000146274983   -0.0900
23     C23    -4.4480   -0.0704  -11.3357 C.ar     1 ZINC000146274983   -0.0900
24     S24    -3.9848   -1.0998  -12.6887 S.3      1 ZINC000146274983   -0.1200
25     C25    -3.1482   -2.4894  -11.8765 C.3      1 ZINC000146274983   -0.1500
26     C26    -4.1326   -0.4497  -10.0352 C.ar     1 ZINC000146274983   -0.1200
27     C27    -4.4889    0.3560   -8.9756 C.ar     1 ZINC000146274983   -0.1200
28     C28    -1.7598   -0.1541   -4.5840 C.ar     1 ZINC000146274983   -0.2100
29     C29    -0.5366   -0.4548   -4.0167 C.ar     1 ZINC000146274983   -0.0600
30     C30     2.2968   -2.0574   -0.7072 C.2      1 ZINC000146274983    0.4800
31     O31     3.0382   -1.2308   -0.2036 O.co2    1 ZINC000146274983   -0.6800
32     O32     2.5994   -3.2384   -0.6902 O.co2    1 ZINC000146274983   -0.7000
33     H33     1.1369    2.1796   -0.0722 H        1 ZINC000146274983    0.0600
34     H34    -0.4233    2.1033   -0.9255 H        1 ZINC000146274983    0.0500
35     H35    -0.3808    2.0955    0.8539 H        1 ZINC000146274983    0.0600
36     H36     0.7622   -0.1047    0.8169 H        1 ZINC000146274983    0.0500
37     H37    -0.7980   -0.1809   -0.0364 H        1 ZINC000146274983    0.0300
38     H38     1.7944   -1.4734   -3.3504 H        1 ZINC000146274983    0.0700
39     H39     1.1970   -3.0917   -2.9117 H        1 ZINC000146274983    0.0900
40     H40    -1.1772   -3.5970   -2.9667 H        1 ZINC000146274983    0.1300
41     H41    -3.3623   -3.0666   -3.9680 H        1 ZINC000146274983    0.1300
42     H42    -3.9658    1.2603   -4.9405 H        1 ZINC000146274983    0.0700
43     H43    -3.4055    0.6206   -6.5042 H        1 ZINC000146274983    0.0700
44     H44    -5.6874   -0.0639   -7.0837 H        1 ZINC000146274983    0.1100
45     H45    -6.2758    0.4469   -5.4834 H        1 ZINC000146274983    0.1000
46     H46    -5.4390    3.2882   -4.0009 H        1 ZINC000146274983    0.0700
47     H47    -7.0977    3.8578   -4.3050 H        1 ZINC000146274983    0.0800
48     H48    -6.7526    2.1126   -4.2473 H        1 ZINC000146274983    0.0600
49     H49    -6.4187    5.1751   -6.5386 H        1 ZINC000146274983    0.1400
50     H50    -5.7937    4.3664   -9.0180 H        1 ZINC000146274983    0.1400
51     H51    -6.0201    2.8509  -10.6967 H        1 ZINC000146274983    0.1300
52     H52    -5.3711    1.4124  -12.5811 H        1 ZINC000146274983    0.1300
53     H53    -2.2883   -2.1195  -11.3180 H        1 ZINC000146274983    0.0900
54     H54    -3.8407   -2.9815  -11.1936 H        1 ZINC000146274983    0.0900
55     H55    -2.8128   -3.2021  -12.6299 H        1 ZINC000146274983    0.1100
56     H56    -3.6044   -1.3745   -9.8561 H        1 ZINC000146274983    0.1300
57     H57    -4.2437    0.0609   -7.9660 H        1 ZINC000146274983    0.1300
58     H58    -1.9221    0.8123   -5.0379 H        1 ZINC000146274983    0.1200
59     H59     0.2585    0.2760   -4.0300 H        1 ZINC000146274983    0.1300
@<TRIPOS>BOND
1     1     2     1
2     1     33    1
3     1     34    1
4     1     35    1
5     2     3     1
6     2     36    1
7     2     37    1
8     3     4     1
9     4     5     1
10    4     6     1
11    4     30    1
12    6     7     1
13    6     38    1
14    6     39    1
15    7     29    ar
16    7     8     ar
17    8     9     ar
18    8     40    1
19    9     10    ar
20    9     41    1
21    10    11    1
22    10    28    ar
23    11    12    1
24    12    13    1
25    12    42    1
26    12    43    1
27    13    14    1
28    13    44    1
29    13    45    1
30    14    19    1
31    14    15    1
32    15    16    1
33    15    17    2
34    16    46    1
35    16    47    1
36    16    48    1
37    17    18    1
38    17    49    1
39    18    19    2
40    18    50    1
41    19    20    1
42    20    27    ar
43    20    21    ar
44    21    22    ar
45    21    51    1
46    22    23    ar
47    22    52    1
48    23    24    1
49    23    26    ar
50    24    25    1
51    25    53    1
52    25    54    1
53    25    55    1
54    26    27    ar
55    26    56    1
56    27    57    1
57    28    29    ar
58    28    58    1
59    29    59    1
60    30    31    ar
61    30    32    ar
@<TRIPOS>SUBSTRUCTURE
1   ZINC000146274983 1     RESIDUE    1   A     ZIN   1
