@<TRIPOS>MOLECULE
ZINC000095616590
61    64    1     0     0
SMALL
USER_CHARGES
@<TRIPOS>ATOM
1      C1     -0.0187    1.5258    0.0104 C.3      1 ZINC000095616590   -0.1500
2      C2      0.0021   -0.0041    0.0020 C.3      1 ZINC000095616590   -0.1200
3      C3      0.7182   -0.4975   -1.2568 C.3      1 ZINC000095616590   -0.1200
4      C4      0.7390   -2.0273   -1.2652 C.3      1 ZINC000095616590    0.0800
5      O5      1.4078   -2.4882   -2.4409 O.3      1 ZINC000095616590   -0.2800
6      C6      1.5133   -3.8295   -2.6029 C.ar     1 ZINC000095616590    0.5600
7      N7      0.9963   -4.6273   -1.6838 N.ar     1 ZINC000095616590   -0.6100
8      C8      1.0790   -5.9525   -1.8048 C.ar     1 ZINC000095616590    0.4800
9      N9      0.5346   -6.7876   -0.8386 N.pl3    1 ZINC000095616590   -0.8300
10     C10     1.7218   -6.4811   -2.9200 C.ar     1 ZINC000095616590   -0.0900
11     N11     1.8474   -7.8690   -3.1008 N.am     1 ZINC000095616590   -0.6400
12     C12     2.7737   -8.3192   -3.9780 C.2      1 ZINC000095616590    0.5200
13     O13     2.8987   -9.5087   -4.1808 O.2      1 ZINC000095616590   -0.5100
14     C14     3.6483   -7.3275   -4.7009 C.3      1 ZINC000095616590    0.0400
15     N15     2.8941   -6.1041   -4.9913 N.3      1 ZINC000095616590   -0.4500
16     C16     3.7598   -5.0831   -5.5963 C.3      1 ZINC000095616590    0.1000
17     C17     4.7906   -4.6386   -4.5909 C.ar     1 ZINC000095616590   -0.1300
18     C18     4.5183   -3.5816   -3.7432 C.ar     1 ZINC000095616590   -0.0500
19     C19     5.4640   -3.1738   -2.8208 C.ar     1 ZINC000095616590   -0.1200
20     C20     6.6817   -3.8235   -2.7462 C.ar     1 ZINC000095616590   -0.0800
21     C21     6.9538   -4.8814   -3.5936 C.ar     1 ZINC000095616590   -0.1700
22     C22     8.2816   -5.5895   -3.5126 C.3      1 ZINC000095616590    0.0500
23     N23     8.1867   -6.7002   -2.5559 N.4      1 ZINC000095616590   -0.3900
24     H24     7.8500   -6.3653   -1.6657 H        1 ZINC000095616590    0.4200
25     C25     7.2817   -7.7538   -3.0824 C.3      1 ZINC000095616590   -0.0100
26     C26     7.7169   -9.0183   -2.3002 C.3      1 ZINC000095616590   -0.1400
27     C27     9.2510   -8.8537   -2.2029 C.3      1 ZINC000095616590   -0.1400
28     C28     9.5071   -7.3460   -2.3916 C.3      1 ZINC000095616590   -0.0100
29     C29     6.0067   -5.2918   -4.5128 C.ar     1 ZINC000095616590   -0.0900
30     C30     2.2526   -5.6089   -3.8690 C.ar     1 ZINC000095616590    0.4000
31     N31     2.1257   -4.2981   -3.6785 N.ar     1 ZINC000095616590   -0.5600
32     H32     1.0039    1.9031    0.0027 H        1 ZINC000095616590    0.0600
33     H33    -0.5459    1.8868   -0.8726 H        1 ZINC000095616590    0.0600
34     H34    -0.5289    1.8773    0.9072 H        1 ZINC000095616590    0.0600
35     H35     0.5293   -0.3651    0.8851 H        1 ZINC000095616590    0.0700
36     H36    -1.0205   -0.3814    0.0098 H        1 ZINC000095616590    0.0700
37     H37     0.1910   -0.1364   -2.1398 H        1 ZINC000095616590    0.0800
38     H38     1.7408   -0.1202   -1.2645 H        1 ZINC000095616590    0.0700
39     H39     1.2661   -2.3884   -0.3821 H        1 ZINC000095616590    0.0700
40     H40    -0.2836   -2.4046   -1.2575 H        1 ZINC000095616590    0.0700
41     H41     0.0883   -6.4083   -0.0653 H        1 ZINC000095616590    0.4200
42     H42     0.6004   -7.7504   -0.9367 H        1 ZINC000095616590    0.4100
43     H43     1.2849   -8.4879   -2.6094 H        1 ZINC000095616590    0.4100
44     H44     4.5079   -7.0823   -4.0772 H        1 ZINC000095616590    0.0800
45     H45     3.9967   -7.7673   -5.6353 H        1 ZINC000095616590    0.1400
46     H46     4.2605   -5.5022   -6.4691 H        1 ZINC000095616590    0.1000
47     H47     3.1557   -4.2280   -5.8997 H        1 ZINC000095616590    0.1200
48     H48     3.5668   -3.0739   -3.8014 H        1 ZINC000095616590    0.1700
49     H49     5.2514   -2.3474   -2.1588 H        1 ZINC000095616590    0.1300
50     H50     7.4207   -3.5045   -2.0262 H        1 ZINC000095616590    0.1300
51     H51     8.5465   -5.9784   -4.4958 H        1 ZINC000095616590    0.1300
52     H52     9.0475   -4.8885   -3.1808 H        1 ZINC000095616590    0.1400
53     H53     6.2412   -7.5088   -2.8694 H        1 ZINC000095616590    0.1300
54     H54     7.4340   -7.8921   -4.1528 H        1 ZINC000095616590    0.1300
55     H55     7.2668   -9.0319   -1.3076 H        1 ZINC000095616590    0.1000
56     H56     7.4602   -9.9216   -2.8536 H        1 ZINC000095616590    0.1200
57     H57     9.6049   -9.1770   -1.2240 H        1 ZINC000095616590    0.1000
58     H58     9.7434   -9.4234   -2.9911 H        1 ZINC000095616590    0.1000
59     H59    10.1136   -7.1810   -3.2822 H        1 ZINC000095616590    0.1300
60     H60    10.0131   -6.9427   -1.5145 H        1 ZINC000095616590    0.1300
61     H61     6.2192   -6.1183   -5.1748 H        1 ZINC000095616590    0.1300
@<TRIPOS>BOND
1     1     2     1
2     1     32    1
3     1     33    1
4     1     34    1
5     2     3     1
6     2     35    1
7     2     36    1
8     3     4     1
9     3     37    1
10    3     38    1
11    4     5     1
12    4     39    1
13    4     40    1
14    5     6     1
15    6     31    ar
16    6     7     ar
17    7     8     ar
18    8     9     1
19    8     10    ar
20    9     41    1
21    9     42    1
22    10    30    ar
23    10    11    1
24    11    12    am
25    11    43    1
26    12    13    2
27    12    14    1
28    14    15    1
29    14    44    1
30    14    45    1
31    15    16    1
32    15    30    1
33    16    17    1
34    16    46    1
35    16    47    1
36    17    29    ar
37    17    18    ar
38    18    19    ar
39    18    48    1
40    19    20    ar
41    19    49    1
42    20    21    ar
43    20    50    1
44    21    22    1
45    21    29    ar
46    22    23    1
47    22    51    1
48    22    52    1
49    23    24    1
50    23    28    1
51    23    25    1
52    25    26    1
53    25    53    1
54    25    54    1
55    26    27    1
56    26    55    1
57    26    56    1
58    27    28    1
59    27    57    1
60    27    58    1
61    28    59    1
62    28    60    1
63    29    61    1
64    30    31    ar
@<TRIPOS>SUBSTRUCTURE
1   ZINC000095616590 1     RESIDUE    1   A     ZIN   1
