@<TRIPOS>MOLECULE
ZINC000001550164
  61   64    0    0    0
SMALL
USER_CHARGES
NO_NAME
@<TRIPOS>ATOM
    1 C1        0.5266    -1.3420    -0.0089 C.1    1 <0>      -0.1900
    2 C2        0.2301    -0.2094     0.0787 C.1    1 <0>      -0.1900
    3 C3       -0.1418     1.2106     0.1886 C.3    1 <0>       0.2200
    4 N4        1.0561     2.0416     0.0449 N.pl3  1 <0>      -0.5600
    5 C5        1.5307     2.3605    -1.2172 C.2    1 <0>       0.3500
    6 N6        0.9939     1.9843    -2.3366 N.2    1 <0>      -0.5100
    7 C7        1.5916     2.3889    -3.4564 C.2    1 <0>       0.1400
    8 C8        1.0817     2.0304    -4.8023 C.ar   1 <0>      -0.0400
    9 C9        0.9513     3.0111    -5.7838 C.ar   1 <0>      -0.0500
   10 C10       0.4771     2.6744    -7.0349 C.ar   1 <0>      -0.1100
   11 C11       0.3361     3.7347    -8.0964 C.3    1 <0>      -0.1100
   12 C12       0.1303     1.3606    -7.3174 C.ar   1 <0>       0.1500
   13 O13      -0.3356     1.0327    -8.5513 O.3    1 <0>      -0.3100
   14 C14      -0.6740    -0.3377    -8.7739 C.3    1 <0>       0.0200
   15 C15       0.2585     0.3806    -6.3427 C.ar   1 <0>      -0.2000
   16 C16       0.7368     0.7095    -5.0904 C.ar   1 <0>       0.0300
   17 Cl17      0.8971    -0.5163    -3.8716 Cl     1 <0>      -0.0400
   18 C18       2.6886     3.1448    -3.2810 C.2    1 <0>      -0.2400
   19 C19       3.5438     3.7267    -4.3770 C.3    1 <0>      -0.0700
   20 S20       2.9516     3.3456    -1.5505 S.3    1 <0>       0.0600
   21 C21       1.7523     2.5354     1.2356 C.3    1 <0>       0.2000
   22 H22       2.0256     3.5804     1.0895 H      1 <0>       0.1000
   23 C23       0.8317     2.4142     2.4516 C.3    1 <0>      -0.1000
   24 C24      -0.3308     3.3990     2.3113 C.3    1 <0>      -0.1600
   25 C25      -1.7462     2.8198     2.2686 C.3    1 <0>      -0.1800
   26 C26      -1.2629     3.5674     3.5129 C.3    1 <0>      -0.1700
   27 C27       2.9974     1.7179     1.4647 C.ar   1 <0>      -0.0900
   28 C28       2.9924     0.3617     1.1973 C.ar   1 <0>      -0.1200
   29 C29       4.1340    -0.3896     1.4070 C.ar   1 <0>      -0.0900
   30 C30       5.2813     0.2146     1.8843 C.ar   1 <0>      -0.1100
   31 C31       6.5254    -0.6046     2.1128 C.3    1 <0>      -0.1200
   32 C32       5.2877     1.5732     2.1521 C.ar   1 <0>       0.1000
   33 F33       6.4090     2.1650     2.6187 F      1 <0>      -0.1400
   34 C34       4.1456     2.3255     1.9367 C.ar   1 <0>      -0.1300
   35 H35       0.7918    -2.3549    -0.0872 H      1 <0>       0.2100
   36 H36      -0.8544     1.4614    -0.5971 H      1 <0>       0.1100
   37 H37      -0.5958     1.3930     1.1626 H      1 <0>       0.1200
   38 H38       1.2209     4.0337    -5.5651 H      1 <0>       0.1400
   39 H39       1.2627     3.8039    -8.6663 H      1 <0>       0.0700
   40 H40      -0.4833     3.4721    -8.7656 H      1 <0>       0.0700
   41 H41       0.1268     4.6951    -7.6252 H      1 <0>       0.0700
   42 H42       0.2079    -0.9595    -8.6191 H      1 <0>       0.0600
   43 H43      -1.4564    -0.6368    -8.0765 H      1 <0>       0.0600
   44 H44      -1.0314    -0.4623    -9.7961 H      1 <0>       0.1000
   45 H45      -0.0122    -0.6409    -6.5657 H      1 <0>       0.1400
   46 H46       3.1148     4.6719    -4.7096 H      1 <0>       0.0700
   47 H47       4.5517     3.8982    -3.9991 H      1 <0>       0.0700
   48 H48       3.5835     3.0308    -5.2150 H      1 <0>       0.0800
   49 H49       0.4417     1.3981     2.5122 H      1 <0>       0.0800
   50 H50       1.3939     2.6422     3.3571 H      1 <0>       0.0900
   51 H51      -0.1290     4.2810     1.7034 H      1 <0>       0.1100
   52 H52      -2.4760     3.3205     1.6324 H      1 <0>       0.1000
   53 H53      -1.8493     1.7370     2.3404 H      1 <0>       0.1000
   54 H54      -1.0479     2.9766     4.4033 H      1 <0>       0.1000
   55 H55      -1.6746     4.5601     3.6952 H      1 <0>       0.1000
   56 H56       2.0959    -0.1114     0.8246 H      1 <0>       0.1500
   57 H57       4.1288    -1.4492     1.1981 H      1 <0>       0.1300
   58 H58       7.1269    -0.6131     1.2037 H      1 <0>       0.0800
   59 H59       7.1037    -0.1677     2.9269 H      1 <0>       0.0700
   60 H60       6.2456    -1.6254     2.3729 H      1 <0>       0.0700
   61 H61       4.1495     3.3852     2.1449 H      1 <0>       0.1400
@<TRIPOS>BOND
   1    1    2 3
   2    1   35 1
   3    2    3 1
   4    3    4 1
   5    3   36 1
   6    3   37 1
   7    4    5 1
   8    4   21 1
   9    5   20 1
  10    5    6 2
  11    6    7 1
  12    7    8 1
  13    7   18 2
  14    8   16 ar
  15    8    9 ar
  16    9   10 ar
  17    9   38 1
  18   10   11 1
  19   10   12 ar
  20   11   39 1
  21   11   40 1
  22   11   41 1
  23   12   13 1
  24   12   15 ar
  25   13   14 1
  26   14   42 1
  27   14   43 1
  28   14   44 1
  29   15   16 ar
  30   15   45 1
  31   16   17 1
  32   18   19 1
  33   18   20 1
  34   19   46 1
  35   19   47 1
  36   19   48 1
  37   21   22 1
  38   21   23 1
  39   21   27 1
  40   23   24 1
  41   23   49 1
  42   23   50 1
  43   24   26 1
  44   24   25 1
  45   24   51 1
  46   25   26 1
  47   25   52 1
  48   25   53 1
  49   26   54 1
  50   26   55 1
  51   27   34 ar
  52   27   28 ar
  53   28   29 ar
  54   28   56 1
  55   29   30 ar
  56   29   57 1
  57   30   31 1
  58   30   32 ar
  59   31   58 1
  60   31   59 1
  61   31   60 1
  62   32   33 1
  63   32   34 ar
  64   34   61 1
