@<TRIPOS>MOLECULE
ZINC000003824861
  60   63    0    0    0
SMALL
USER_CHARGES
NO_NAME
@<TRIPOS>ATOM
    1 C1       -0.8805     1.9242     0.6563 C.3    1 <0>      -0.1200
    2 C2       -0.7257     0.4536     0.3653 C.ar   1 <0>      -0.0400
    3 C3       -0.8242    -0.0029    -0.9320 C.ar   1 <0>      -0.1300
    4 C4       -1.0854     0.9706    -2.0523 C.3    1 <0>      -0.1100
    5 C5       -0.6832    -1.3562    -1.2106 C.ar   1 <0>       0.2100
    6 N6       -0.7784    -1.8171    -2.5284 N.pl3  1 <0>      -0.8700
    7 C7       -0.4465    -2.2496    -0.1732 C.ar   1 <0>      -0.1200
    8 C8       -0.2928    -3.7201    -0.4644 C.3    1 <0>      -0.1100
    9 C9       -0.3522    -1.7896     1.1215 C.ar   1 <0>      -0.1200
   10 C10      -0.4783    -0.4365     1.4075 C.ar   1 <0>       0.0300
   11 O11      -0.3296    -0.1988     2.7410 O.3    1 <0>      -0.3000
   12 C12      -0.5381    -1.4229     3.4658 C.3    1 <0>       0.0800
   13 C13      -2.0102    -1.5802     3.8519 C.3    1 <0>      -0.1900
   14 C14       0.3545    -1.4765     4.7073 C.3    1 <0>       0.0100
   15 N15      -0.0946    -0.4686     5.6771 N.4    1 <0>      -0.3800
   16 H16      -1.0430    -0.6707     5.9559 H      1 <0>       0.4200
   17 C17      -0.0408     0.8615     5.0587 C.3    1 <0>      -0.0200
   18 C18      -0.5839     1.9053     6.0369 C.3    1 <0>      -0.1400
   19 C19       0.2688     1.8973     7.3089 C.3    1 <0>      -0.0500
   20 C20      -0.3072     2.8675     8.3079 C.ar   1 <0>      -0.1000
   21 C21      -1.5964     2.6940     8.7757 C.ar   1 <0>      -0.1200
   22 C22      -2.1247     3.5839     9.6920 C.ar   1 <0>      -0.1100
   23 C23      -1.3638     4.6471    10.1409 C.ar   1 <0>      -0.1100
   24 C24      -0.0743     4.8201     9.6737 C.ar   1 <0>      -0.1100
   25 C25       0.4556     3.9277     8.7606 C.ar   1 <0>      -0.1100
   26 C26       0.2658     0.4865     7.9047 C.3    1 <0>      -0.1400
   27 C27       0.7785    -0.5035     6.8565 C.3    1 <0>      -0.0100
   28 C28      -0.1163    -2.5027     2.4390 C.3    1 <0>      -0.0900
   29 H29       0.0933     2.4104     0.5989 H      1 <0>       0.0700
   30 H30      -1.5533     2.3706    -0.0760 H      1 <0>       0.0800
   31 H31      -1.2936     2.0551     1.6565 H      1 <0>       0.0600
   32 H32      -0.1365     1.3357    -2.4451 H      1 <0>       0.0700
   33 H33      -1.6391     0.4702    -2.8468 H      1 <0>       0.0600
   34 H34      -1.6697     1.8100    -1.6754 H      1 <0>       0.0800
   35 H35      -0.9433    -1.1908    -3.2506 H      1 <0>       0.4000
   36 H36      -0.6794    -2.7629    -2.7198 H      1 <0>       0.4000
   37 H37       0.7567    -3.9452    -0.6540 H      1 <0>       0.0700
   38 H38      -0.6394    -4.2983     0.3922 H      1 <0>       0.0700
   39 H39      -0.8845    -3.9806    -1.3419 H      1 <0>       0.0700
   40 H40      -2.6107    -1.7053     2.9509 H      1 <0>       0.0900
   41 H41      -2.1267    -2.4558     4.4906 H      1 <0>       0.0900
   42 H42      -2.3419    -0.6918     4.3892 H      1 <0>       0.0700
   43 H43       0.2917    -2.4672     5.1574 H      1 <0>       0.1500
   44 H44       1.3864    -1.2717     4.4220 H      1 <0>       0.1400
   45 H45       0.9918     1.1030     4.8066 H      1 <0>       0.1300
   46 H46      -0.6456     0.8647     4.1518 H      1 <0>       0.1600
   47 H47      -0.5415     2.8924     5.5765 H      1 <0>       0.1100
   48 H48      -1.6166     1.6649     6.2895 H      1 <0>       0.0900
   49 H49       1.2903     2.1889     7.0648 H      1 <0>       0.1000
   50 H50      -2.1909     1.8633     8.4250 H      1 <0>       0.1200
   51 H51      -3.1322     3.4488    10.0570 H      1 <0>       0.1300
   52 H52      -1.7768     5.3428    10.8563 H      1 <0>       0.1300
   53 H53       0.5201     5.6509    10.0242 H      1 <0>       0.1300
   54 H54       1.4630     4.0628     8.3957 H      1 <0>       0.1200
   55 H55       0.9156     0.4595     8.7794 H      1 <0>       0.1100
   56 H56      -0.7493     0.2166     8.1961 H      1 <0>       0.0900
   57 H57       0.7782    -1.5093     7.2766 H      1 <0>       0.1300
   58 H58       1.7936    -0.2320     6.5668 H      1 <0>       0.1300
   59 H59      -0.7512    -3.3851     2.5188 H      1 <0>       0.1000
   60 H60       0.9338    -2.7678     2.5619 H      1 <0>       0.1000
@<TRIPOS>BOND
   1    1    2 1
   2    1   29 1
   3    1   30 1
   4    1   31 1
   5    2   10 ar
   6    2    3 ar
   7    3    4 1
   8    3    5 ar
   9    4   32 1
  10    4   33 1
  11    4   34 1
  12    5    6 1
  13    5    7 ar
  14    6   35 1
  15    6   36 1
  16    7    8 1
  17    7    9 ar
  18    8   37 1
  19    8   38 1
  20    8   39 1
  21    9   28 1
  22    9   10 ar
  23   10   11 1
  24   11   12 1
  25   12   13 1
  26   12   14 1
  27   12   28 1
  28   13   40 1
  29   13   41 1
  30   13   42 1
  31   14   15 1
  32   14   43 1
  33   14   44 1
  34   15   16 1
  35   15   27 1
  36   15   17 1
  37   17   18 1
  38   17   45 1
  39   17   46 1
  40   18   19 1
  41   18   47 1
  42   18   48 1
  43   19   20 1
  44   19   26 1
  45   19   49 1
  46   20   25 ar
  47   20   21 ar
  48   21   22 ar
  49   21   50 1
  50   22   23 ar
  51   22   51 1
  52   23   24 ar
  53   23   52 1
  54   24   25 ar
  55   24   53 1
  56   25   54 1
  57   26   27 1
  58   26   55 1
  59   26   56 1
  60   27   57 1
  61   27   58 1
  62   28   59 1
  63   28   60 1
