@<TRIPOS>MOLECULE
ZINC000000058172
  20   20    0    0    0
SMALL
USER_CHARGES
NO_NAME
@<TRIPOS>ATOM
    1 O1        0.0021    -0.0041     0.0020 O.co2  1 <0>      -0.6900
    2 C2       -0.0145     1.2211     0.0088 C.2    1 <0>       0.5000
    3 O3        1.0381     1.8481     0.0021 O.co2  1 <0>      -0.7000
    4 C4       -1.2481     1.9111     0.0184 C.2    1 <0>      -0.1500
    5 C5       -2.4109     1.2186     0.0201 C.2    1 <0>      -0.1200
    6 C6       -3.6925     1.9355     0.0301 C.ar   1 <0>      -0.0200
    7 C7       -3.7140     3.3353     0.0319 C.ar   1 <0>      -0.1100
    8 C8       -4.9176     4.0050     0.0408 C.ar   1 <0>      -0.1300
    9 C9       -6.1112     3.2955     0.0484 C.ar   1 <0>       0.0600
   10 O10      -7.2946     3.9615     0.0572 O.3    1 <0>      -0.4900
   11 C11      -6.0984     1.9004     0.0466 C.ar   1 <0>       0.0800
   12 O12      -7.2700     1.2099     0.0536 O.3    1 <0>      -0.4900
   13 C13      -4.8973     1.2208     0.0319 C.ar   1 <0>      -0.1300
   14 H14      -1.2628     2.9910     0.0243 H      1 <0>       0.1000
   15 H15      -2.3962     0.1387     0.0142 H      1 <0>       0.1300
   16 H16      -2.7872     3.8898     0.0268 H      1 <0>       0.1400
   17 H17      -4.9330     5.0849     0.0422 H      1 <0>       0.1300
   18 H18      -7.6434     4.1552    -0.8237 H      1 <0>       0.3800
   19 H19      -7.6147     1.0112    -0.8277 H      1 <0>       0.3800
   20 H20      -4.8861     0.1408     0.0305 H      1 <0>       0.1400
@<TRIPOS>BOND
   1    1    2 ar
   2    2    3 ar
   3    2    4 1
   4    4    5 2
   5    4   14 1
   6    5    6 1
   7    5   15 1
   8    6   13 ar
   9    6    7 ar
  10    7    8 ar
  11    7   16 1
  12    8    9 ar
  13    8   17 1
  14    9   10 1
  15    9   11 ar
  16   10   18 1
  17   11   12 1
  18   11   13 ar
  19   12   19 1
  20   13   20 1
