@<TRIPOS>MOLECULE
ZINC000000007048
26    27    1     0     0
SMALL
USER_CHARGES
@<TRIPOS>ATOM
1      N1     -0.0450    1.3663    0.2927 N.pl3    1 ZINC000000007048   -0.8100
2      C2     -0.0725   -0.0092    0.2577 C.2      1 ZINC000000007048    0.4900
3      N3      0.8920   -0.6802   -0.3579 N.2      1 ZINC000000007048   -0.6000
4      C4      0.8763   -2.0111   -0.3985 C.2      1 ZINC000000007048    0.6400
5      O5      1.7758   -2.6043   -0.9709 O.2      1 ZINC000000007048   -0.4800
6      N6     -0.1145   -2.7129    0.1816 N.am     1 ZINC000000007048   -0.5400
7      C7     -0.1036   -4.1766    0.1202 C.3      1 ZINC000000007048    0.3000
8      H8     -0.7358   -4.5233   -0.6972 H        1 ZINC000000007048    0.1300
9      C9     -0.5807   -4.7575    1.4317 C.2      1 ZINC000000007048   -0.2100
10     C10     0.4674   -5.1588    2.1122 C.2      1 ZINC000000007048   -0.1300
11     C11     1.7057   -4.8694    1.2951 C.3      1 ZINC000000007048    0.0800
12     H12     2.3866   -5.7199    1.3296 H        1 ZINC000000007048    0.1200
13     C13     2.4034   -3.6131    1.8201 C.3      1 ZINC000000007048    0.0700
14     O14     3.6262   -3.4144    1.1078 O.3      1 ZINC000000007048   -0.5500
15     O15     1.2431   -4.6569   -0.0544 O.3      1 ZINC000000007048   -0.2900
16     C16    -1.1293   -2.0681    0.8269 C.2      1 ZINC000000007048    0.1700
17     C17    -1.1242   -0.7142    0.8817 C.2      1 ZINC000000007048   -0.0900
18     F18    -2.1158   -0.0492    1.5139 F        1 ZINC000000007048   -0.1200
19     H19    -0.7497    1.8541    0.7471 H        1 ZINC000000007048    0.4200
20     H20     0.6811    1.8479   -0.1336 H        1 ZINC000000007048    0.4200
21     H21    -1.6090   -4.8302    1.7537 H        1 ZINC000000007048    0.1600
22     H22     0.4483   -5.6175    3.0898 H        1 ZINC000000007048    0.1600
23     H23     1.7542   -2.7496    1.6755 H        1 ZINC000000007048    0.0400
24     H24     2.6171   -3.7332    2.8822 H        1 ZINC000000007048    0.0500
25     H25     4.1228   -2.6338    1.3890 H        1 ZINC000000007048    0.3800
26     H26    -1.9251   -2.6306    1.2924 H        1 ZINC000000007048    0.1800
@<TRIPOS>BOND
1     1     2     1
2     1     19    1
3     1     20    1
4     2     17    1
5     2     3     2
6     3     4     1
7     4     5     2
8     4     6     am
9     6     7     1
10    6     16    1
11    7     8     1
12    7     15    1
13    7     9     1
14    9     10    2
15    9     21    1
16    10    11    1
17    10    22    1
18    11    12    1
19    11    13    1
20    11    15    1
21    13    14    1
22    13    23    1
23    13    24    1
24    14    25    1
25    16    17    2
26    16    26    1
27    17    18    1
@<TRIPOS>SUBSTRUCTURE
1   ZINC000000007048 1     RESIDUE    1   A     ZIN   1
