@<TRIPOS>MOLECULE
ZINC000002019839
  52   54    0    0    0
SMALL
USER_CHARGES
NO_NAME
@<TRIPOS>ATOM
    1 C1       -0.0178     1.4608     0.0101 C.3    1 <0>       0.0800
    2 N2        0.0021    -0.0041     0.0020 N.am   1 <0>      -0.5100
    3 C3       -1.1889    -0.7120     0.0039 C.2    1 <0>       0.3300
    4 C4       -1.1437    -2.1005    -0.0039 C.2    1 <0>      -0.1600
    5 C5        0.1107    -2.7476    -0.0134 C.2    1 <0>       0.6000
    6 O6        0.1765    -3.9638    -0.0207 O.2    1 <0>      -0.5300
    7 N7        1.2361    -2.0032    -0.0148 N.am   1 <0>      -0.5500
    8 C8        2.5413    -2.6685    -0.0246 C.3    1 <0>       0.0800
    9 C9        1.1776    -0.6603    -0.0127 C.2    1 <0>       0.7000
   10 O10       2.2127    -0.0220    -0.0144 O.2    1 <0>      -0.5200
   11 N11      -2.4557    -2.5297     0.0001 N.pl3  1 <0>      -0.4200
   12 C12      -2.9179    -3.9199    -0.0046 C.3    1 <0>       0.1100
   13 C13      -2.9529    -4.4505     1.4301 C.3    1 <0>      -0.1700
   14 C14      -3.4356    -5.9023     1.4252 C.3    1 <0>       0.0000
   15 N15      -3.4692    -6.4118     2.8027 N.4    1 <0>      -0.5100
   16 H16      -2.5431    -6.3665     3.2007 H      1 <0>       0.4300
   17 H17      -4.1000    -5.8494     3.3540 H      1 <0>       0.4300
   18 C18      -3.9326    -7.8057     2.7981 C.3    1 <0>      -0.0400
   19 C19      -3.9676    -8.3363     4.2327 C.3    1 <0>       0.1400
   20 H20      -2.9880    -8.2055     4.6924 H      1 <0>       0.1300
   21 O21      -4.9463    -7.6150     4.9836 O.3    1 <0>      -0.5400
   22 C22      -4.3242    -9.8004     4.2182 C.ar   1 <0>      -0.1100
   23 C23      -5.6426   -10.1878     4.0733 C.ar   1 <0>      -0.1500
   24 C24      -5.9736   -11.5354     4.0597 C.ar   1 <0>       0.1400
   25 O25      -7.2704   -11.9158     3.9167 O.3    1 <0>      -0.4900
   26 C26      -4.9802   -12.4933     4.1916 C.ar   1 <0>      -0.1600
   27 C27      -3.6581   -12.1022     4.3369 C.ar   1 <0>       0.1400
   28 O28      -2.6820   -13.0389     4.4659 O.3    1 <0>      -0.4900
   29 C29      -3.3316   -10.7534     4.3442 C.ar   1 <0>      -0.1400
   30 C30      -3.2306    -1.4275     0.0098 C.2    1 <0>       0.2800
   31 N31      -2.4766    -0.3579     0.0120 N.2    1 <0>      -0.4900
   32 H32       1.0048     1.8381     0.0023 H      1 <0>       0.1100
   33 H33      -0.5450     1.8219    -0.8730 H      1 <0>       0.0800
   34 H34      -0.5280     1.8123     0.9069 H      1 <0>       0.0800
   35 H35       2.8601    -2.8279    -1.0547 H      1 <0>       0.0800
   36 H36       3.2716    -2.0434     0.4891 H      1 <0>       0.1000
   37 H37       2.4632    -3.6292     0.4844 H      1 <0>       0.0900
   38 H38      -3.9183    -3.9688    -0.4345 H      1 <0>       0.1100
   39 H39      -2.2364    -4.5274    -0.6001 H      1 <0>       0.1100
   40 H40      -1.9525    -4.4016     1.8600 H      1 <0>       0.1000
   41 H41      -3.6344    -3.8430     2.0256 H      1 <0>       0.1000
   42 H42      -4.4360    -5.9512     0.9953 H      1 <0>       0.1400
   43 H43      -2.7541    -6.5098     0.8297 H      1 <0>       0.1400
   44 H44      -4.9330    -7.8546     2.3681 H      1 <0>       0.1400
   45 H45      -3.2511    -8.4132     2.2025 H      1 <0>       0.1500
   46 H46      -5.8439    -7.6866     4.6309 H      1 <0>       0.3900
   47 H47      -6.4162    -9.4411     3.9709 H      1 <0>       0.1300
   48 H48      -7.5442   -12.0419     2.9979 H      1 <0>       0.4000
   49 H49      -5.2358   -13.5426     4.1816 H      1 <0>       0.1500
   50 H50      -2.2985   -13.3256     3.6258 H      1 <0>       0.4000
   51 H51      -2.3018   -10.4481     4.4574 H      1 <0>       0.1400
   52 H52      -4.3106    -1.4268     0.0144 H      1 <0>       0.2300
@<TRIPOS>BOND
   1    1    2 1
   2    1   32 1
   3    1   33 1
   4    1   34 1
   5    2    9 am
   6    2    3 1
   7    3   31 1
   8    3    4 2
   9    4    5 1
  10    4   11 1
  11    5    6 2
  12    5    7 am
  13    7    8 1
  14    7    9 am
  15    8   35 1
  16    8   36 1
  17    8   37 1
  18    9   10 2
  19   11   12 1
  20   11   30 1
  21   12   13 1
  22   12   38 1
  23   12   39 1
  24   13   14 1
  25   13   40 1
  26   13   41 1
  27   14   15 1
  28   14   42 1
  29   14   43 1
  30   15   16 1
  31   15   17 1
  32   15   18 1
  33   18   19 1
  34   18   44 1
  35   18   45 1
  36   19   20 1
  37   19   21 1
  38   19   22 1
  39   21   46 1
  40   22   29 ar
  41   22   23 ar
  42   23   24 ar
  43   23   47 1
  44   24   25 1
  45   24   26 ar
  46   25   48 1
  47   26   27 ar
  48   26   49 1
  49   27   28 1
  50   27   29 ar
  51   28   50 1
  52   29   51 1
  53   30   31 2
  54   30   52 1
