@<TRIPOS>MOLECULE
ZINC000038913962
77    80    1     0     0
SMALL
USER_CHARGES
@<TRIPOS>ATOM
1      C1      6.3339    1.6049   -0.1952 C.3      1 ZINC000038913962   -0.1600
2      C2      5.7385    0.1963   -0.2425 C.3      1 ZINC000038913962    0.0400
3      O3      6.1112   -0.4375   -1.4679 O.3      1 ZINC000038913962   -0.2800
4      C4      5.6607   -1.7034   -1.6695 C.ar     1 ZINC000038913962    0.2200
5      C5      4.8705   -2.3200   -0.7079 C.ar     1 ZINC000038913962   -0.1900
6      C6      4.4127   -3.6018   -0.9098 C.ar     1 ZINC000038913962    0.0200
7      C7      4.7376   -4.2916   -2.0796 C.ar     1 ZINC000038913962   -0.2300
8      C8      4.1157   -5.6291   -2.0226 C.cat    1 ZINC000038913962    0.5800
9      N9      4.2121   -6.5412   -2.9491 N.pl3    1 ZINC000038913962   -0.7300
10     H10     4.7241   -6.3631   -3.7536 H        1 ZINC000038913962    0.4500
11     H11     3.7719   -7.3979   -2.8341 H        1 ZINC000038913962    0.4300
12     N12     3.4197   -5.7686   -0.8441 N.pl3    1 ZINC000038913962   -0.5500
13     C13     2.6699   -6.9556   -0.4257 C.3      1 ZINC000038913962    0.0600
14     C14     3.5788   -7.8781    0.3448 C.2      1 ZINC000038913962    0.3800
15     O15     4.7389   -7.5741    0.5266 O.2      1 ZINC000038913962   -0.4300
16     C16     3.0600   -9.1454    0.8756 C.ar     1 ZINC000038913962   -0.1700
17     C17     1.7226   -9.5010    0.6619 C.ar     1 ZINC000038913962   -0.1200
18     C18     1.2408  -10.6952    1.1636 C.ar     1 ZINC000038913962    0.0800
19     N19    -0.0954  -11.0551    0.9521 N.3      1 ZINC000038913962   -0.4800
20     C20    -0.7409  -10.1452   -0.0053 C.3      1 ZINC000038913962    0.0100
21     C21    -2.1787  -10.6093   -0.2524 C.3      1 ZINC000038913962    0.0600
22     O22    -2.8766  -10.6672    0.9946 O.3      1 ZINC000038913962   -0.3800
23     C23    -2.2755  -11.5447    1.9506 C.3      1 ZINC000038913962    0.0600
24     C24    -0.8387  -11.0900    2.2200 C.3      1 ZINC000038913962    0.0200
25     C25     2.0872  -11.5429    1.8813 C.ar     1 ZINC000038913962    0.1500
26     O26     1.6123  -12.7158    2.3731 O.3      1 ZINC000038913962   -0.3200
27     C27     1.4599  -13.7934    1.4469 C.3      1 ZINC000038913962    0.0300
28     C28     3.4133  -11.1896    2.0929 C.ar     1 ZINC000038913962   -0.0700
29     C29     4.3213  -12.1095    2.8678 C.3      1 ZINC000038913962   -0.0200
30     C30     5.6988  -11.4604    3.0160 C.3      1 ZINC000038913962   -0.1500
31     C31     3.7260  -12.3647    4.2540 C.3      1 ZINC000038913962   -0.1400
32     C32     4.4607  -13.4371    2.1203 C.3      1 ZINC000038913962   -0.1500
33     C33     3.9028  -10.0040    1.5917 C.ar     1 ZINC000038913962   -0.0600
34     C34     3.5571   -4.5248   -0.0782 C.3      1 ZINC000038913962    0.1300
35     C35     5.5337   -3.6707   -3.0480 C.ar     1 ZINC000038913962    0.2000
36     F36     5.8543   -4.3279   -4.1840 F        1 ZINC000038913962   -0.1100
37     C37     5.9868   -2.3790   -2.8421 C.ar     1 ZINC000038913962    0.0400
38     O38     6.7609   -1.7727   -3.7826 O.3      1 ZINC000038913962   -0.3000
39     C39     6.0849   -1.0269   -4.7968 C.3      1 ZINC000038913962    0.0600
40     C40     7.1124   -0.4229   -5.7562 C.3      1 ZINC000038913962   -0.1500
41     H41     7.4204    1.5423   -0.2562 H        1 ZINC000038913962    0.0700
42     H42     5.9558    2.1875   -1.0352 H        1 ZINC000038913962    0.0700
43     H43     6.0497    2.0883    0.7395 H        1 ZINC000038913962    0.0900
44     H44     6.1167   -0.3864    0.5975 H        1 ZINC000038913962    0.0800
45     H45     4.6521    0.2588   -0.1815 H        1 ZINC000038913962    0.0800
46     H46     4.6155   -1.7929    0.1996 H        1 ZINC000038913962    0.1700
47     H47     1.8362   -6.6538    0.2083 H        1 ZINC000038913962    0.1500
48     H48     2.2882   -7.4731   -1.3058 H        1 ZINC000038913962    0.1300
49     H49     1.0695   -8.8439    0.1069 H        1 ZINC000038913962    0.1400
50     H50    -0.7497   -9.1344    0.4025 H        1 ZINC000038913962    0.0500
51     H51    -0.1889  -10.1544   -0.9452 H        1 ZINC000038913962    0.0900
52     H52    -2.6792   -9.9054   -0.9173 H        1 ZINC000038913962    0.1000
53     H53    -2.1683  -11.5986   -0.7099 H        1 ZINC000038913962    0.0600
54     H54    -2.8461  -11.5173    2.8789 H        1 ZINC000038913962    0.1100
55     H55    -2.2679  -12.5612    1.5572 H        1 ZINC000038913962    0.0600
56     H56    -0.3580  -11.7890    2.9045 H        1 ZINC000038913962    0.1100
57     H57    -0.8491  -10.0943    2.6633 H        1 ZINC000038913962    0.0500
58     H58     0.6537  -13.5627    0.7506 H        1 ZINC000038913962    0.0600
59     H59     2.3891  -13.9314    0.8941 H        1 ZINC000038913962    0.0500
60     H60     1.2208  -14.7079    1.9897 H        1 ZINC000038913962    0.1000
61     H61     5.5995  -10.5146    3.5485 H        1 ZINC000038913962    0.0600
62     H62     6.3556  -12.1257    3.5765 H        1 ZINC000038913962    0.0700
63     H63     6.1229  -11.2786    2.0284 H        1 ZINC000038913962    0.0600
64     H64     2.7446  -12.8271    4.1485 H        1 ZINC000038913962    0.0800
65     H65     4.3828  -13.0300    4.8145 H        1 ZINC000038913962    0.0600
66     H66     3.6267  -11.4189    4.7865 H        1 ZINC000038913962    0.0500
67     H67     4.6390  -13.2418    1.0629 H        1 ZINC000038913962    0.0500
68     H68     5.2986  -13.9997    2.5321 H        1 ZINC000038913962    0.0700
69     H69     3.5440  -14.0158    2.2334 H        1 ZINC000038913962    0.0700
70     H70     4.9347   -9.7325    1.7582 H        1 ZINC000038913962    0.1500
71     H71     4.0430   -4.7257    0.8766 H        1 ZINC000038913962    0.1400
72     H72     2.5769   -4.0778    0.0875 H        1 ZINC000038913962    0.1400
73     H73     5.4166   -1.6875   -5.3491 H        1 ZINC000038913962    0.0600
74     H74     5.5055   -0.2276   -4.3348 H        1 ZINC000038913962    0.0600
75     H75     7.7807    0.2378   -5.2039 H        1 ZINC000038913962    0.0700
76     H76     7.6918   -1.2222   -6.2182 H        1 ZINC000038913962    0.0700
77     H77     6.5968    0.1460   -6.5298 H        1 ZINC000038913962    0.0800
@<TRIPOS>BOND
1     1     2     1
2     1     41    1
3     1     42    1
4     1     43    1
5     2     3     1
6     2     44    1
7     2     45    1
8     3     4     1
9     4     37    ar
10    4     5     ar
11    5     6     ar
12    5     46    1
13    6     34    1
14    6     7     ar
15    7     8     1
16    7     35    ar
17    8     9     ar
18    8     12    ar
19    9     10    1
20    9     11    1
21    12    13    1
22    12    34    1
23    13    14    1
24    13    47    1
25    13    48    1
26    14    15    2
27    14    16    1
28    16    33    ar
29    16    17    ar
30    17    18    ar
31    17    49    1
32    18    19    1
33    18    25    ar
34    19    24    1
35    19    20    1
36    20    21    1
37    20    50    1
38    20    51    1
39    21    22    1
40    21    52    1
41    21    53    1
42    22    23    1
43    23    24    1
44    23    54    1
45    23    55    1
46    24    56    1
47    24    57    1
48    25    26    1
49    25    28    ar
50    26    27    1
51    27    58    1
52    27    59    1
53    27    60    1
54    28    29    1
55    28    33    ar
56    29    30    1
57    29    31    1
58    29    32    1
59    30    61    1
60    30    62    1
61    30    63    1
62    31    64    1
63    31    65    1
64    31    66    1
65    32    67    1
66    32    68    1
67    32    69    1
68    33    70    1
69    34    71    1
70    34    72    1
71    35    36    1
72    35    37    ar
73    37    38    1
74    38    39    1
75    39    40    1
76    39    73    1
77    39    74    1
78    40    75    1
79    40    76    1
80    40    77    1
@<TRIPOS>SUBSTRUCTURE
1   ZINC000038913962 1     RESIDUE    1   A     ZIN   1
