@<TRIPOS>MOLECULE
ZINC000005700698
  24   25    0    0    0
SMALL
USER_CHARGES
NO_NAME
@<TRIPOS>ATOM
    1 C1       -0.0178     1.4648     0.0101 C.3    1 <0>      -0.0500
    2 N2        0.0021    -0.0041     0.0020 N.4    1 <0>      -0.5100
    3 H3        0.4744    -0.3295    -0.8281 H      1 <0>       0.4300
    4 H4        0.4901    -0.3383     0.8195 H      1 <0>       0.4300
    5 C5       -1.3761    -0.5125     0.0124 C.3    1 <0>       0.0300
    6 H6       -1.9302    -0.0815    -0.8214 H      1 <0>       0.1500
    7 C7       -1.3603    -2.0384    -0.1169 C.3    1 <0>      -0.1400
    8 C8       -2.7838    -2.5438    -0.3619 C.3    1 <0>      -0.0400
    9 C9       -3.7012    -1.9524     0.6979 C.2    1 <0>       0.0800
   10 C10      -3.3590    -0.8822     1.4392 C.2    1 <0>      -0.2700
   11 C11      -2.0545    -0.1285     1.3322 C.3    1 <0>      -0.0500
   12 S12      -4.6822    -0.5172     2.5390 S.3    1 <0>       0.1700
   13 C13      -5.5782    -1.8294     1.9095 C.2    1 <0>       0.0500
   14 N14      -4.9047    -2.4248     0.9890 N.2    1 <0>      -0.4700
   15 H15       1.0047     1.8421     0.0024 H      1 <0>       0.1300
   16 H16      -0.5450     1.8259    -0.8730 H      1 <0>       0.1300
   17 H17      -0.5280     1.8163     0.9069 H      1 <0>       0.1200
   18 H18      -0.7237    -2.3257    -0.9537 H      1 <0>       0.1000
   19 H19      -0.9722    -2.4770     0.8024 H      1 <0>       0.1000
   20 H20      -3.1179    -2.2302    -1.3509 H      1 <0>       0.1000
   21 H21      -2.8021    -3.6316    -0.2954 H      1 <0>       0.1100
   22 H22      -1.4064    -0.3985     2.1660 H      1 <0>       0.1000
   23 H23      -2.2489     0.9438     1.3487 H      1 <0>       0.1000
   24 H24      -6.5663    -2.1173     2.2371 H      1 <0>       0.2100
@<TRIPOS>BOND
   1    1    2 1
   2    1   15 1
   3    1   16 1
   4    1   17 1
   5    2    3 1
   6    2    4 1
   7    2    5 1
   8    5    6 1
   9    5   11 1
  10    5    7 1
  11    7    8 1
  12    7   18 1
  13    7   19 1
  14    8    9 1
  15    8   20 1
  16    8   21 1
  17    9   14 1
  18    9   10 2
  19   10   11 1
  20   10   12 1
  21   11   22 1
  22   11   23 1
  23   12   13 1
  24   13   14 2
  25   13   24 1
