@<TRIPOS>MOLECULE
ZINC000003828998
  56   59    0    0    0
SMALL
USER_CHARGES
NO_NAME
@<TRIPOS>ATOM
    1 C1       -0.0173     1.4248     0.0099 C.3    1 <0>       0.0200
    2 O2        0.0021    -0.0041     0.0020 O.3    1 <0>      -0.3100
    3 C3        0.6263    -0.6189     1.0423 C.ar   1 <0>       0.1200
    4 C4        1.2018     0.1360     2.0504 C.ar   1 <0>      -0.2000
    5 C5        1.8359    -0.4906     3.1081 C.ar   1 <0>      -0.0800
    6 C6        1.8978    -1.8703     3.1623 C.ar   1 <0>      -0.1500
    7 C7        1.3257    -2.6313     2.1597 C.ar   1 <0>      -0.0900
    8 C8        0.6832    -2.0101     1.0992 C.ar   1 <0>       0.1200
    9 N9        0.1029    -2.7782     0.0832 N.pl3  1 <0>      -0.6600
   10 C10       0.8825    -3.1662    -1.1002 C.3    1 <0>       0.1500
   11 C11       0.7988    -4.6864    -1.2691 C.3    1 <0>      -0.1300
   12 C12      -0.6710    -5.1100    -1.3183 C.3    1 <0>      -0.1100
   13 C13      -0.7587    -6.6239    -1.5216 C.3    1 <0>      -0.0100
   14 N14      -2.1648    -7.0149    -1.6885 N.4    1 <0>      -0.5100
   15 H15      -2.6861    -6.7555    -0.8645 H      1 <0>       0.4300
   16 H16      -2.5515    -6.5445    -2.4930 H      1 <0>       0.4300
   17 C17      -2.2490    -8.4685    -1.8838 C.3    1 <0>       0.0100
   18 C18      -3.7135    -8.8757    -2.0576 C.3    1 <0>       0.0200
   19 H19      -4.1351    -8.3696    -2.9260 H      1 <0>       0.1100
   20 C20      -3.8089   -10.3956    -2.2477 C.3    1 <0>       0.0300
   21 O21      -5.1902   -10.7432    -2.3934 O.3    1 <0>      -0.2900
   22 C22      -6.0576   -10.1873    -1.5036 C.ar   1 <0>       0.0600
   23 C23      -7.3194   -10.7405    -1.3473 C.ar   1 <0>      -0.0900
   24 C24      -8.2127   -10.1862    -0.4496 C.ar   1 <0>      -0.0900
   25 C25      -7.8508    -9.0777     0.2941 C.ar   1 <0>      -0.0300
   26 Cl26     -8.9763    -8.3830     1.4185 Cl     1 <0>      -0.0400
   27 C27      -6.5929    -8.5221     0.1436 C.ar   1 <0>      -0.1000
   28 C28      -5.6922    -9.0752    -0.7539 C.ar   1 <0>       0.0500
   29 O29      -4.4553    -8.5220    -0.8853 O.3    1 <0>      -0.3200
   30 C30      -1.3569    -4.7316    -0.0035 C.3    1 <0>      -0.1500
   31 C31      -1.2958    -3.2170     0.1827 C.3    1 <0>       0.1500
   32 H32       1.0053     1.8021     0.0021 H      1 <0>       0.0600
   33 H33      -0.5445     1.7859    -0.8732 H      1 <0>       0.1000
   34 H34      -0.5275     1.7763     0.9067 H      1 <0>       0.0600
   35 H35       1.1559     1.2143     2.0107 H      1 <0>       0.1300
   36 H36       2.2842     0.0998     3.8934 H      1 <0>       0.1300
   37 H37       2.3946    -2.3551     3.9897 H      1 <0>       0.1300
   38 H38       1.3755    -3.7092     2.2046 H      1 <0>       0.1200
   39 H39       0.4729    -2.6771    -1.9840 H      1 <0>       0.0600
   40 H40       1.9229    -2.8702    -0.9654 H      1 <0>       0.0800
   41 H41       1.2923    -4.9771    -2.1965 H      1 <0>       0.0800
   42 H42       1.2899    -5.1737    -0.4268 H      1 <0>       0.0800
   43 H43      -1.1676    -4.6031    -2.1456 H      1 <0>       0.1000
   44 H44      -0.1955    -6.9041    -2.4118 H      1 <0>       0.1400
   45 H45      -0.3409    -7.1320    -0.6525 H      1 <0>       0.1300
   46 H46      -1.6858    -8.7487    -2.7740 H      1 <0>       0.1600
   47 H47      -1.8312    -8.9766    -1.0147 H      1 <0>       0.1500
   48 H48      -3.2595   -10.6894    -3.1421 H      1 <0>       0.1400
   49 H49      -3.3923   -10.9018    -1.3769 H      1 <0>       0.0900
   50 H50      -7.6046   -11.6057    -1.9274 H      1 <0>       0.1500
   51 H51      -9.1947   -10.6192    -0.3292 H      1 <0>       0.1500
   52 H52      -6.3123    -7.6563     0.7251 H      1 <0>       0.1500
   53 H53      -2.3977    -5.0545    -0.0301 H      1 <0>       0.0600
   54 H54      -0.8455    -5.2185     0.8269 H      1 <0>       0.0800
   55 H55      -1.6942    -2.9529     1.1623 H      1 <0>       0.0800
   56 H56      -1.8819    -2.7292    -0.5961 H      1 <0>       0.0500
@<TRIPOS>BOND
   1    1    2 1
   2    1   32 1
   3    1   33 1
   4    1   34 1
   5    2    3 1
   6    3    8 ar
   7    3    4 ar
   8    4    5 ar
   9    4   35 1
  10    5    6 ar
  11    5   36 1
  12    6    7 ar
  13    6   37 1
  14    7    8 ar
  15    7   38 1
  16    8    9 1
  17    9   31 1
  18    9   10 1
  19   10   11 1
  20   10   39 1
  21   10   40 1
  22   11   12 1
  23   11   41 1
  24   11   42 1
  25   12   13 1
  26   12   30 1
  27   12   43 1
  28   13   14 1
  29   13   44 1
  30   13   45 1
  31   14   15 1
  32   14   16 1
  33   14   17 1
  34   17   18 1
  35   17   46 1
  36   17   47 1
  37   18   19 1
  38   18   29 1
  39   18   20 1
  40   20   21 1
  41   20   48 1
  42   20   49 1
  43   21   22 1
  44   22   28 ar
  45   22   23 ar
  46   23   24 ar
  47   23   50 1
  48   24   25 ar
  49   24   51 1
  50   25   26 1
  51   25   27 ar
  52   27   28 ar
  53   27   52 1
  54   28   29 1
  55   30   31 1
  56   30   53 1
  57   30   54 1
  58   31   55 1
  59   31   56 1
