@<TRIPOS>MOLECULE
ZINC000018825330
30    32    1     0     0
SMALL
USER_CHARGES
@<TRIPOS>ATOM
1      O1      0.0021   -0.0041    0.0020 O.2      1 ZINC000018825330   -0.4400
2      C2     -0.0145    1.2150    0.0087 C.2      1 ZINC000018825330    0.4300
3      C3     -1.2756    1.9824    0.0312 C.2      1 ZINC000018825330   -0.2400
4      C4     -2.5761    1.3210   -0.2359 C.ar     1 ZINC000018825330   -0.0400
5      C5     -3.0622    0.3553    0.6439 C.ar     1 ZINC000018825330   -0.0700
6      C6     -4.2719   -0.2579    0.3927 C.ar     1 ZINC000018825330   -0.1400
7      C7     -5.0051    0.0858   -0.7347 C.ar     1 ZINC000018825330    0.1100
8      O8     -6.1967   -0.5203   -0.9794 O.3      1 ZINC000018825330   -0.5000
9      C9     -4.5240    1.0474   -1.6125 C.ar     1 ZINC000018825330   -0.1400
10     C10    -3.3175    1.6681   -1.3641 C.ar     1 ZINC000018825330   -0.0900
11     C11    -1.2104    3.3109    0.3038 C.2      1 ZINC000018825330    0.1200
12     O12    -0.0675    3.9448    0.5677 O.3      1 ZINC000018825330   -0.2100
13     C13     1.1242    3.3900    0.2752 C.ar     1 ZINC000018825330    0.1700
14     C14     2.2736    4.1675    0.2464 C.ar     1 ZINC000018825330   -0.1800
15     C15     3.4983    3.5885   -0.0451 C.ar     1 ZINC000018825330    0.1900
16     O16     4.6152    4.3595   -0.0723 O.3      1 ZINC000018825330   -0.4900
17     C17     3.5967    2.2268   -0.3096 C.ar     1 ZINC000018825330   -0.2000
18     C18     2.4638    1.4339   -0.2897 C.ar     1 ZINC000018825330    0.2200
19     O19     2.5547    0.1042   -0.5443 O.3      1 ZINC000018825330   -0.4800
20     C20     1.2225    2.0146    0.0012 C.ar     1 ZINC000018825330   -0.2600
21     H21    -2.4920    0.0872    1.5211 H        1 ZINC000018825330    0.1300
22     H22    -4.6489   -1.0065    1.0738 H        1 ZINC000018825330    0.1300
23     H23    -6.9562   -0.0667   -0.5889 H        1 ZINC000018825330    0.3900
24     H24    -5.0969    1.3130   -2.4886 H        1 ZINC000018825330    0.1300
25     H25    -2.9437    2.4163   -2.0474 H        1 ZINC000018825330    0.1300
26     H26    -2.1277    3.8811    0.3074 H        1 ZINC000018825330    0.2000
27     H27     2.2132    5.2262    0.4513 H        1 ZINC000018825330    0.1500
28     H28     5.0688    4.4250    0.7792 H        1 ZINC000018825330    0.4000
29     H29     4.5585    1.7882   -0.5310 H        1 ZINC000018825330    0.1500
30     H30     2.7056   -0.4375    0.2424 H        1 ZINC000018825330    0.4100
@<TRIPOS>BOND
1     1     2     2
2     2     20    1
3     2     3     1
4     3     4     1
5     3     11    2
6     4     10    ar
7     4     5     ar
8     5     6     ar
9     5     21    1
10    6     7     ar
11    6     22    1
12    7     8     1
13    7     9     ar
14    8     23    1
15    9     10    ar
16    9     24    1
17    10    25    1
18    11    12    1
19    11    26    1
20    12    13    1
21    13    20    ar
22    13    14    ar
23    14    15    ar
24    14    27    1
25    15    16    1
26    15    17    ar
27    16    28    1
28    17    18    ar
29    17    29    1
30    18    19    1
31    18    20    ar
32    19    30    1
@<TRIPOS>SUBSTRUCTURE
1   ZINC000018825330 1     RESIDUE    1   A     ZIN   1
