@<TRIPOS>MOLECULE
ZINC000003875976
  32   34    0    0    0
SMALL
USER_CHARGES
NO_NAME
@<TRIPOS>ATOM
    1 N1       -0.0167     1.3796     0.0096 N.pl3  1 <0>      -0.8100
    2 C2        0.0021    -0.0041     0.0020 C.ar   1 <0>       0.5200
    3 C3       -1.1955    -0.7391     0.0036 C.ar   1 <0>      -0.1100
    4 N4       -2.5114    -0.4160     0.0118 N.2    1 <0>      -0.4600
    5 C5       -3.2246    -1.5044     0.0090 C.2    1 <0>       0.2700
    6 N6       -2.4081    -2.5962    -0.0012 N.pl3  1 <0>      -0.4700
    7 C7       -2.8348    -3.9977    -0.0072 C.3    1 <0>       0.3100
    8 H8       -2.1565    -4.6016    -0.6100 H      1 <0>       0.1300
    9 O9       -4.1889    -4.1148    -0.4943 O.3    1 <0>      -0.3500
   10 C10      -4.7022    -5.3671    -0.0101 C.3    1 <0>       0.0500
   11 H11      -4.5361    -6.1477    -0.7525 H      1 <0>       0.1000
   12 C12      -6.1984    -5.2378     0.2827 C.3    1 <0>       0.0800
   13 O13      -6.9064    -5.0254    -0.9402 O.3    1 <0>      -0.5600
   14 C14      -3.9389    -5.7050     1.2853 C.3    1 <0>       0.0400
   15 H15      -4.6211    -5.7287     2.1350 H      1 <0>       0.0900
   16 O16      -3.2610    -6.9561     1.1545 O.3    1 <0>      -0.5400
   17 C17      -2.9178    -4.5492     1.4389 C.3    1 <0>       0.0800
   18 H18      -3.2927    -3.7871     2.1221 H      1 <0>       0.0900
   19 O19      -1.6502    -5.0434     1.8761 O.3    1 <0>      -0.5200
   20 C20      -1.1136    -2.1417    -0.0049 C.ar   1 <0>       0.3300
   21 N21       0.0834    -2.7191    -0.0141 N.ar   1 <0>      -0.5300
   22 C22       1.1807    -1.9895    -0.0152 C.ar   1 <0>       0.4300
   23 Cl23      2.7192    -2.7936    -0.0279 Cl     1 <0>       0.0400
   24 N24       1.1532    -0.6682    -0.0125 N.ar   1 <0>      -0.5800
   25 H25       0.8167     1.8760     0.0043 H      1 <0>       0.4100
   26 H26      -0.8632     1.8531     0.0162 H      1 <0>       0.4200
   27 H27      -4.3041    -1.5379     0.0144 H      1 <0>       0.2300
   28 H28      -6.5564    -6.1522     0.7557 H      1 <0>       0.0700
   29 H29      -6.3661    -4.3932     0.9511 H      1 <0>       0.0600
   30 H30      -7.8628    -4.9341    -0.8303 H      1 <0>       0.3900
   31 H31      -3.8491    -7.7077     0.9984 H      1 <0>       0.3900
   32 H32      -1.6740    -5.4777     2.7397 H      1 <0>       0.3900
@<TRIPOS>BOND
   1    1    2 1
   2    1   25 1
   3    1   26 1
   4    2   24 ar
   5    2    3 ar
   6    3   20 ar
   7    3    4 1
   8    4    5 2
   9    5    6 1
  10    5   27 1
  11    6    7 1
  12    6   20 1
  13    7    8 1
  14    7   17 1
  15    7    9 1
  16    9   10 1
  17   10   11 1
  18   10   12 1
  19   10   14 1
  20   12   13 1
  21   12   28 1
  22   12   29 1
  23   13   30 1
  24   14   15 1
  25   14   16 1
  26   14   17 1
  27   16   31 1
  28   17   18 1
  29   17   19 1
  30   19   32 1
  31   20   21 ar
  32   21   22 ar
  33   22   23 1
  34   22   24 ar
