@<TRIPOS>MOLECULE
ZINC000000599028
72    76    1     0     0
SMALL
USER_CHARGES
@<TRIPOS>ATOM
1      C1     -0.0184    1.5028    0.0103 C.3      1 ZINC000000599028   -0.1000
2      C2      0.0021   -0.0041    0.0020 C.2      1 ZINC000000599028    0.1300
3      C3      0.0079   -0.7720   -1.1124 C.2      1 ZINC000000599028   -0.2200
4      C4     -0.0060   -0.2779   -2.5360 C.3      1 ZINC000000599028   -0.0500
5      C5      1.4317   -0.0893   -3.0244 C.3      1 ZINC000000599028   -0.0100
6      N6      1.4182    0.3923   -4.4122 N.4      1 ZINC000000599028   -0.3900
7      H7      0.8793   -0.2417   -4.9828 H        1 ZINC000000599028    0.4200
8      C8      2.7947    0.4585   -4.9205 C.3      1 ZINC000000599028    0.0000
9      C9      2.7798    0.9422   -6.3722 C.3      1 ZINC000000599028   -0.0100
10     N10     2.1510    2.2691   -6.4370 N.3      1 ZINC000000599028   -0.4800
11     C11     2.1677    2.7654   -7.7353 C.ar     1 ZINC000000599028    0.3400
12     C12     1.6219    4.0167   -8.0020 C.ar     1 ZINC000000599028   -0.1400
13     C13     1.6456    4.4986   -9.2985 C.ar     1 ZINC000000599028    0.0800
14     C14     1.0653    5.8496   -9.6291 C.3      1 ZINC000000599028   -0.1500
15     C15     2.2165    3.7099  -10.2883 C.ar     1 ZINC000000599028   -0.1400
16     C16     2.7399    2.4772   -9.9526 C.ar     1 ZINC000000599028    0.1500
17     N17     2.7080    2.0450   -8.7064 N.ar     1 ZINC000000599028   -0.4900
18     H18     3.0830    1.1752   -8.4975 H        1 ZINC000000599028    0.4400
19     C19     0.7805    2.2237   -5.9081 C.3      1 ZINC000000599028    0.0200
20     C20     0.8122    1.7295   -4.4601 C.3      1 ZINC000000599028   -0.0100
21     C21     0.0300   -2.1700   -0.6813 C.ar     1 ZINC000000599028   -0.0800
22     C22     0.0421   -3.4344   -1.2743 C.ar     1 ZINC000000599028   -0.0900
23     C23     0.0641   -4.5514   -0.4813 C.ar     1 ZINC000000599028   -0.0800
24     C24     0.0762   -5.9093   -1.1346 C.3      1 ZINC000000599028   -0.0800
25     C25     1.5226   -6.3497   -1.3689 C.3      1 ZINC000000599028   -0.0900
26     C26     2.2216   -6.5426   -0.0216 C.3      1 ZINC000000599028   -0.1500
27     C27     1.5349   -7.6692   -2.1433 C.3      1 ZINC000000599028   -0.1500
28     C28     0.0762   -4.4724    0.9111 C.ar     1 ZINC000000599028   -0.0900
29     C29     0.0644   -3.2455    1.5151 C.ar     1 ZINC000000599028   -0.0800
30     C30     0.0394   -2.1110    0.7087 C.ar     1 ZINC000000599028    0.0700
31     N31     0.0232   -0.7850    1.1093 N.pl3    1 ZINC000000599028   -0.4700
32     C32     0.0254   -0.4787    2.5458 C.3      1 ZINC000000599028    0.1100
33     C33    -0.6115   -1.6557    3.2949 C.3      1 ZINC000000599028   -0.1400
34     C34     0.0778   -2.9879    2.9982 C.3      1 ZINC000000599028   -0.0800
35     H35     1.0042    1.8801    0.0026 H        1 ZINC000000599028    0.0800
36     H36    -0.5455    1.8639   -0.8728 H        1 ZINC000000599028    0.0800
37     H37    -0.5286    1.8543    0.9071 H        1 ZINC000000599028    0.0800
38     H38    -0.5120   -1.0070   -3.1688 H        1 ZINC000000599028    0.0900
39     H39    -0.5341    0.6743   -2.5850 H        1 ZINC000000599028    0.0900
40     H40     1.9377    0.6398   -2.3916 H        1 ZINC000000599028    0.1300
41     H41     1.9599   -1.0416   -2.9754 H        1 ZINC000000599028    0.1400
42     H42     3.3738    1.1531   -4.3120 H        1 ZINC000000599028    0.1500
43     H43     3.2478   -0.5317   -4.8722 H        1 ZINC000000599028    0.1600
44     H44     3.8021    1.0056   -6.7450 H        1 ZINC000000599028    0.1400
45     H45     2.2123    0.2406   -6.9836 H        1 ZINC000000599028    0.0900
46     H46     1.1853    4.6039   -7.2077 H        1 ZINC000000599028    0.1900
47     H47     1.8386    6.6113   -9.5300 H        1 ZINC000000599028    0.1200
48     H48     0.6904    5.8434  -10.6526 H        1 ZINC000000599028    0.1000
49     H49     0.2472    6.0711   -8.9438 H        1 ZINC000000599028    0.1000
50     H50     2.2506    4.0570  -11.3104 H        1 ZINC000000599028    0.1900
51     H51     3.1850    1.8604  -10.7194 H        1 ZINC000000599028    0.2200
52     H52     0.3443    3.2220   -5.9422 H        1 ZINC000000599028    0.1500
53     H53     0.1801    1.5432   -6.5118 H        1 ZINC000000599028    0.0900
54     H54    -0.2045    1.6814   -4.0703 H        1 ZINC000000599028    0.1600
55     H55     1.4015    2.4177   -3.8542 H        1 ZINC000000599028    0.1500
56     H56     0.0339   -3.5310   -2.3499 H        1 ZINC000000599028    0.1100
57     H57    -0.4222   -6.6293   -0.4855 H        1 ZINC000000599028    0.0800
58     H58    -0.4471   -5.8578   -2.0894 H        1 ZINC000000599028    0.0700
59     H59     2.0464   -5.5861   -1.9439 H        1 ZINC000000599028    0.0600
60     H60     3.2520   -6.8563   -0.1885 H        1 ZINC000000599028    0.0500
61     H61     2.2128   -5.6026    0.5301 H        1 ZINC000000599028    0.0600
62     H62     1.6978   -7.3062    0.5534 H        1 ZINC000000599028    0.0600
63     H63     1.0370   -7.5318   -3.1031 H        1 ZINC000000599028    0.0500
64     H64     2.5653   -7.9830   -2.3101 H        1 ZINC000000599028    0.0600
65     H65     1.0112   -8.4329   -1.5683 H        1 ZINC000000599028    0.0600
66     H66     0.0944   -5.3726    1.5074 H        1 ZINC000000599028    0.1300
67     H67     1.0504   -0.3378    2.8887 H        1 ZINC000000599028    0.0900
68     H68    -0.5526    0.4273    2.7280 H        1 ZINC000000599028    0.0900
69     H69    -0.5587   -1.4615    4.3661 H        1 ZINC000000599028    0.1000
70     H70    -1.6591   -1.7330    3.0040 H        1 ZINC000000599028    0.0700
71     H71    -0.4466   -3.7914    3.5154 H        1 ZINC000000599028    0.0900
72     H72     1.1109   -2.9472    3.3435 H        1 ZINC000000599028    0.0800
@<TRIPOS>BOND
1     1     2     1
2     1     35    1
3     1     36    1
4     1     37    1
5     2     31    1
6     2     3     2
7     3     4     1
8     3     21    1
9     4     5     1
10    4     38    1
11    4     39    1
12    5     6     1
13    5     40    1
14    5     41    1
15    6     7     1
16    6     20    1
17    6     8     1
18    8     9     1
19    8     42    1
20    8     43    1
21    9     10    1
22    9     44    1
23    9     45    1
24    10    11    1
25    10    19    1
26    11    17    ar
27    11    12    ar
28    12    13    ar
29    12    46    1
30    13    14    1
31    13    15    ar
32    14    47    1
33    14    48    1
34    14    49    1
35    15    16    ar
36    15    50    1
37    16    17    ar
38    16    51    1
39    17    18    1
40    19    20    1
41    19    52    1
42    19    53    1
43    20    54    1
44    20    55    1
45    21    30    ar
46    21    22    ar
47    22    23    ar
48    22    56    1
49    23    24    1
50    23    28    ar
51    24    25    1
52    24    57    1
53    24    58    1
54    25    26    1
55    25    27    1
56    25    59    1
57    26    60    1
58    26    61    1
59    26    62    1
60    27    63    1
61    27    64    1
62    27    65    1
63    28    29    ar
64    28    66    1
65    29    34    1
66    29    30    ar
67    30    31    1
68    31    32    1
69    32    33    1
70    32    67    1
71    32    68    1
72    33    34    1
73    33    69    1
74    33    70    1
75    34    71    1
76    34    72    1
@<TRIPOS>SUBSTRUCTURE
1   ZINC000000599028 1     RESIDUE    1   A     ZIN   1
