@<TRIPOS>MOLECULE
ZINC000118795962
64    69    1     0     0
SMALL
USER_CHARGES
@<TRIPOS>ATOM
1      N1     -1.1295   -1.1683   -1.2750 N.1      1 ZINC000118795962   -0.3700
2      C2     -1.0139   -0.0704   -1.0073 C.1      1 ZINC000118795962    0.1700
3      C3     -0.8641    1.3523   -0.6605 C.3      1 ZINC000118795962   -0.0200
4      C4      0.6222    1.7126   -0.6156 C.3      1 ZINC000118795962    0.1600
5      N5      1.3970    0.8315    0.2616 N.pl3    1 ZINC000118795962   -0.3900
6      C6      1.3896    0.8541    1.6076 C.2      1 ZINC000118795962    0.1100
7      C7      2.2429   -0.1217    2.0420 C.2      1 ZINC000118795962   -0.1700
8      C8      2.5458   -0.4560    3.4518 C.ar     1 ZINC000118795962    0.2900
9      C9      2.7937   -1.7829    3.8407 C.ar     1 ZINC000118795962   -0.2000
10     C10     2.8396   -3.0718    3.1553 C.2      1 ZINC000118795962   -0.1800
11     C11     3.1330   -3.9965    4.0849 C.2      1 ZINC000118795962    0.0700
12     N12     3.2774   -3.3965    5.3086 N.pl3    1 ZINC000118795962   -0.5700
13     C13     3.0771   -2.0478    5.1954 C.ar     1 ZINC000118795962    0.3200
14     N14     3.0991   -1.0293    6.0513 N.ar     1 ZINC000118795962   -0.5300
15     C15     2.8613    0.1989    5.6425 C.ar     1 ZINC000118795962    0.3200
16     N16     2.5959    0.4944    4.3842 N.ar     1 ZINC000118795962   -0.5400
17     C17     2.7810   -0.7520    0.9008 C.2      1 ZINC000118795962    0.1100
18     N18     2.2674   -0.1823   -0.1561 N.2      1 ZINC000118795962   -0.2900
19     C19     1.2523    1.9174   -2.0051 C.3      1 ZINC000118795962    0.0100
20     N20     1.9468    3.0802   -1.4095 N.4      1 ZINC000118795962   -0.4100
21     H21     2.8472    2.8441   -1.0203 H        1 ZINC000118795962    0.4400
22     C22     2.0088    4.2358   -2.3144 C.3      1 ZINC000118795962    0.0200
23     C23     2.7385    5.3882   -1.6204 C.3      1 ZINC000118795962   -0.1600
24     C24     2.7709    6.6026   -2.5536 C.3      1 ZINC000118795962    0.1200
25     N25     3.3635    6.1981   -3.8357 N.am     1 ZINC000118795962   -0.6200
26     C26     4.4093    6.8733   -4.3524 C.2      1 ZINC000118795962    0.5700
27     O27     4.9347    7.7625   -3.7118 O.2      1 ZINC000118795962   -0.4900
28     C28     4.9178    6.5320   -5.6997 C.ar     1 ZINC000118795962   -0.1300
29     C29     4.0434    6.3762   -6.7801 C.ar     1 ZINC000118795962   -0.0900
30     C30     4.5606    6.0575   -8.0202 C.ar     1 ZINC000118795962    0.1000
31     N31     5.8578    5.8998   -8.1943 N.ar     1 ZINC000118795962   -0.3900
32     C32     6.7184    6.0367   -7.2062 C.ar     1 ZINC000118795962    0.0100
33     C33     8.1897    5.8439   -7.4692 C.3      1 ZINC000118795962    0.5200
34     F34     8.3963    5.6437   -8.8383 F        1 ZINC000118795962   -0.1500
35     F35     8.8907    6.9808   -7.0531 F        1 ZINC000118795962   -0.1600
36     F36     8.6479    4.7282   -6.7604 F        1 ZINC000118795962   -0.1600
37     C37     6.2890    6.3616   -5.9302 C.ar     1 ZINC000118795962    0.1500
38     F38     7.1770    6.5004   -4.9216 F        1 ZINC000118795962   -0.0900
39     C39     2.7948    5.0431   -4.5437 C.3      1 ZINC000118795962    0.1000
40     C40     2.7622    3.8462   -3.5882 C.3      1 ZINC000118795962   -0.1600
41     C41     0.8899    3.2104   -0.3823 C.3      1 ZINC000118795962    0.0100
42     H42    -1.3637    1.9640   -1.4117 H        1 ZINC000118795962    0.1500
43     H43    -1.3125    1.5374    0.3157 H        1 ZINC000118795962    0.1400
44     H44     0.8143    1.5223    2.2312 H        1 ZINC000118795962    0.1900
45     H45     2.6700   -3.2478    2.1033 H        1 ZINC000118795962    0.1500
46     H46     3.2393   -5.0545    3.8960 H        1 ZINC000118795962    0.1900
47     H47     3.4902   -3.8599    6.1337 H        1 ZINC000118795962    0.4300
48     H48     2.8881    0.9994    6.3671 H        1 ZINC000118795962    0.2000
49     H49     3.4900   -1.5667    0.9011 H        1 ZINC000118795962    0.2000
50     H50     1.9228    1.1124   -2.3062 H        1 ZINC000118795962    0.1600
51     H51     0.5324    2.1847   -2.7786 H        1 ZINC000118795962    0.1800
52     H52     0.9973    4.5498   -2.5723 H        1 ZINC000118795962    0.1500
53     H53     2.2144    5.6497   -0.7011 H        1 ZINC000118795962    0.1100
54     H54     3.7581    5.0835   -1.3843 H        1 ZINC000118795962    0.0900
55     H55     1.7559    6.9642   -2.7181 H        1 ZINC000118795962    0.0900
56     H56     3.3740    7.3921   -2.1052 H        1 ZINC000118795962    0.1200
57     H57     2.9792    6.5029   -6.6464 H        1 ZINC000118795962    0.1700
58     H58     3.8924    5.9354   -8.8598 H        1 ZINC000118795962    0.1900
59     H59     1.7817    5.2775   -4.8706 H        1 ZINC000118795962    0.0900
60     H60     3.4137    4.8035   -5.4084 H        1 ZINC000118795962    0.1100
61     H61     3.7815    3.5560   -3.3336 H        1 ZINC000118795962    0.0900
62     H62     2.2549    3.0101   -4.0695 H        1 ZINC000118795962    0.1100
63     H63     0.0640    3.8559   -0.6812 H        1 ZINC000118795962    0.1800
64     H64     1.2708    3.4386    0.6132 H        1 ZINC000118795962    0.1600
@<TRIPOS>BOND
1     1     2     3
2     2     3     1
3     3     4     1
4     3     42    1
5     3     43    1
6     4     41    1
7     4     5     1
8     4     19    1
9     5     18    1
10    5     6     1
11    6     7     2
12    6     44    1
13    7     8     1
14    7     17    1
15    8     16    ar
16    8     9     ar
17    9     13    ar
18    9     10    1
19    10    11    2
20    10    45    1
21    11    12    1
22    11    46    1
23    12    13    1
24    12    47    1
25    13    14    ar
26    14    15    ar
27    15    16    ar
28    15    48    1
29    17    18    2
30    17    49    1
31    19    20    1
32    19    50    1
33    19    51    1
34    20    21    1
35    20    22    1
36    20    41    1
37    22    40    1
38    22    23    1
39    22    52    1
40    23    24    1
41    23    53    1
42    23    54    1
43    24    25    1
44    24    55    1
45    24    56    1
46    25    26    am
47    25    39    1
48    26    27    2
49    26    28    1
50    28    37    ar
51    28    29    ar
52    29    30    ar
53    29    57    1
54    30    31    ar
55    30    58    1
56    31    32    ar
57    32    33    1
58    32    37    ar
59    33    34    1
60    33    35    1
61    33    36    1
62    37    38    1
63    39    40    1
64    39    59    1
65    39    60    1
66    40    61    1
67    40    62    1
68    41    63    1
69    41    64    1
@<TRIPOS>SUBSTRUCTURE
1   ZINC000118795962 1     RESIDUE    1   A     ZIN   1
