@<TRIPOS>MOLECULE
ZINC000016382868
  10   10    0    0    0
SMALL
USER_CHARGES
NO_NAME
@<TRIPOS>ATOM
    1 N1       -0.0178     1.4648     0.0101 N.3    1 <0>      -0.8000
    2 C2        0.0021    -0.0041     0.0020 C.3    1 <0>       0.1400
    3 N3        0.5530    -0.5283     1.2636 N.2    1 <0>      -0.0500
    4 N4       -0.1883    -1.2115     1.9319 N.2    1 <0>      -0.1400
    5 C5       -1.4493    -1.4965     1.5741 C.2    1 <0>       0.1300
    6 S6       -2.5817    -2.4471     2.4373 S.2    1 <0>      -0.1200
    7 S7       -1.6974    -0.6786     0.0146 S.3    1 <0>      -0.0600
    8 H8        0.9191     1.8392     0.0032 H      1 <0>       0.3700
    9 H9       -0.5563     1.8234    -0.7642 H      1 <0>       0.3700
   10 H10       0.5620    -0.3783    -0.8550 H      1 <0>       0.1500
@<TRIPOS>BOND
   1    1    2 1
   2    1    8 1
   3    1    9 1
   4    2    7 1
   5    2    3 1
   6    2   10 1
   7    3    4 2
   8    4    5 1
   9    5    6 2
  10    5    7 1
