@<TRIPOS>MOLECULE
ZINC000000004417
31    32    1     0     0
SMALL
USER_CHARGES
@<TRIPOS>ATOM
1      C1     -0.0187    1.5258    0.0104 C.3      1 ZINC000000004417   -0.1500
2      C2      0.0021   -0.0041    0.0020 C.3      1 ZINC000000004417    0.0500
3      O3      0.6932   -0.4774    1.1597 O.3      1 ZINC000000004417   -0.3100
4      C4      0.8021   -1.8257    1.3058 C.ar     1 ZINC000000004417    0.1100
5      C5      1.4626   -2.3516    2.4214 C.ar     1 ZINC000000004417    0.1100
6      O6      1.9916   -1.5162    3.3535 O.3      1 ZINC000000004417   -0.3000
7      C7      2.6522   -2.1215    4.4668 C.3      1 ZINC000000004417    0.0500
8      C8      3.1785   -1.0309    5.4020 C.3      1 ZINC000000004417   -0.1500
9      C9      1.5766   -3.7166    2.5759 C.ar     1 ZINC000000004417   -0.1400
10     C10     1.0339   -4.5808    1.6203 C.ar     1 ZINC000000004417   -0.1600
11     S11     1.0216   -6.3394    1.5466 S.3      1 ZINC000000004417    0.1300
12     C12     0.1367   -6.3193    0.0314 C.2      1 ZINC000000004417   -0.1800
13     C13    -0.2749   -7.5131   -0.7086 C.2      1 ZINC000000004417    0.5400
14     O14    -0.8914   -7.3992   -1.7605 O.co2    1 ZINC000000004417   -0.6700
15     O15    -0.0027   -8.6259   -0.2758 O.co2    1 ZINC000000004417   -0.6800
16     C16    -0.1106   -5.0597   -0.3546 C.2      1 ZINC000000004417   -0.1200
17     C17     0.3712   -4.0592    0.5009 C.ar     1 ZINC000000004417   -0.0600
18     C18     0.2628   -2.6519    0.3684 C.ar     1 ZINC000000004417   -0.1500
19     H19     1.0039    1.9031    0.0027 H        1 ZINC000000004417    0.0600
20     H20    -0.5459    1.8868   -0.8726 H        1 ZINC000000004417    0.0800
21     H21    -0.5289    1.8773    0.9072 H        1 ZINC000000004417    0.0600
22     H22    -1.0205   -0.3814    0.0098 H        1 ZINC000000004417    0.0600
23     H23     0.5123   -0.3556   -0.8948 H        1 ZINC000000004417    0.0600
24     H24     1.9481   -2.7545    5.0068 H        1 ZINC000000004417    0.0600
25     H25     3.4852   -2.7270    4.1097 H        1 ZINC000000004417    0.0600
26     H26     3.6823   -1.4926    6.2512 H        1 ZINC000000004417    0.0800
27     H27     3.8826   -0.3979    4.8620 H        1 ZINC000000004417    0.0700
28     H28     2.3455   -0.4254    5.7591 H        1 ZINC000000004417    0.0600
29     H29     2.0873   -4.1199    3.4378 H        1 ZINC000000004417    0.1300
30     H30    -0.6454   -4.8308   -1.2645 H        1 ZINC000000004417    0.1400
31     H31    -0.2491   -2.2321   -0.4849 H        1 ZINC000000004417    0.1400
@<TRIPOS>BOND
1     1     2     1
2     1     19    1
3     1     20    1
4     1     21    1
5     2     3     1
6     2     22    1
7     2     23    1
8     3     4     1
9     4     18    ar
10    4     5     ar
11    5     6     1
12    5     9     ar
13    6     7     1
14    7     8     1
15    7     24    1
16    7     25    1
17    8     26    1
18    8     27    1
19    8     28    1
20    9     10    ar
21    9     29    1
22    10    17    ar
23    10    11    1
24    11    12    1
25    12    13    1
26    12    16    2
27    13    14    ar
28    13    15    ar
29    16    17    1
30    16    30    1
31    17    18    ar
32    18    31    1
@<TRIPOS>SUBSTRUCTURE
1   ZINC000000004417 1     RESIDUE    1   A     ZIN   1
