@<TRIPOS>MOLECULE
ZINC000000968362
  32   33    0    0    0
SMALL
USER_CHARGES
NO_NAME
@<TRIPOS>ATOM
    1 C1       -0.0346     1.5288     0.0227 C.3    1 <0>      -0.1500
    2 C2       -0.0170    -0.0010     0.0137 C.3    1 <0>       0.1700
    3 H3       -1.0403    -0.3761     0.0308 H      1 <0>       0.1200
    4 C4        0.6870    -0.4960    -1.2535 C.3    1 <0>      -0.6300
    5 S5        0.7455    -2.3115    -1.2250 S.o2   1 <0>       2.4200
    6 O6       -0.5838    -2.8079    -1.1503 O.2    1 <0>      -0.9200
    7 O7        1.5955    -2.7553    -2.2737 O.2    1 <0>      -0.9200
    8 C8        1.5707    -2.6188     0.3640 C.3    1 <0>      -0.6300
    9 C9        0.7824    -1.9213     1.4769 C.3    1 <0>       0.0600
   10 N10       0.7007    -0.4875     1.1932 N.pl3  1 <0>      -0.4400
   11 N11       1.2660     0.3549     1.9899 N.2    1 <0>      -0.1200
   12 C12       1.8295    -0.0742     3.1313 C.2    1 <0>      -0.0600
   13 C13       2.3317     0.8350     4.0357 C.2    1 <0>       0.1700
   14 C14       2.9822     0.5277     5.3241 C.2    1 <0>      -0.2000
   15 C15       3.3129     1.7323     5.8719 C.2    1 <0>      -0.0400
   16 C16       2.8988     2.7298     4.9889 C.2    1 <0>       0.0000
   17 N17       3.0724     4.1829     5.2102 N.pl3  1 <0>       0.0400
   18 O18       3.6559     4.6167     6.3083 O.2    1 <0>      -0.1800
   19 O19       2.6434     5.0422     4.3091 O.2    1 <0>      -0.1800
   20 O20       2.3291     2.1831     3.9117 O.3    1 <0>      -0.1200
   21 H21       0.9887     1.9041     0.0056 H      1 <0>       0.0800
   22 H22      -0.5692     1.8912    -0.8554 H      1 <0>       0.0800
   23 H23      -0.5357     1.8812     0.9242 H      1 <0>       0.0800
   24 H24       0.1344    -0.1625    -2.1319 H      1 <0>       0.1600
   25 H25       1.7015    -0.0987    -1.2862 H      1 <0>       0.1400
   26 H26       1.6032    -3.6911     0.5569 H      1 <0>       0.1600
   27 H27       2.5851    -2.2214     0.3313 H      1 <0>       0.1400
   28 H28      -0.2229    -2.3396     1.5270 H      1 <0>       0.1200
   29 H29       1.2874    -2.0746     2.4307 H      1 <0>       0.1200
   30 H30       1.8887    -1.1323     3.3398 H      1 <0>       0.1700
   31 H31       3.1596    -0.4502     5.7467 H      1 <0>       0.1900
   32 H32       3.8066     1.8863     6.8200 H      1 <0>       0.1800
@<TRIPOS>BOND
   1    1    2 1
   2    1   21 1
   3    1   22 1
   4    1   23 1
   5    2    3 1
   6    2   10 1
   7    2    4 1
   8    4    5 1
   9    4   24 1
  10    4   25 1
  11    5    6 2
  12    5    7 2
  13    5    8 1
  14    8    9 1
  15    8   26 1
  16    8   27 1
  17    9   10 1
  18    9   28 1
  19    9   29 1
  20   10   11 1
  21   11   12 2
  22   12   13 1
  23   12   30 1
  24   13   20 1
  25   13   14 2
  26   14   15 1
  27   14   31 1
  28   15   16 2
  29   15   32 1
  30   16   17 1
  31   16   20 1
  32   17   18 2
  33   17   19 2
