@<TRIPOS>MOLECULE
ZINC000072178696
72    77    1     0     0
SMALL
USER_CHARGES
@<TRIPOS>ATOM
1      C1      1.4772    0.8550   -0.2751 C.3      1 ZINC000072178696   -0.2000
2      C2      0.8047   -0.0437    0.7304 C.2      1 ZINC000072178696    0.3200
3      O3      1.3900   -0.3702    1.7350 O.2      1 ZINC000072178696   -0.4100
4      C4     -0.5981   -0.5351    0.4823 C.3      1 ZINC000072178696    0.1000
5      O5     -1.3532    0.4800   -0.1822 O.3      1 ZINC000072178696   -0.5500
6      C6     -1.2632   -0.8849    1.8115 C.3      1 ZINC000072178696   -0.0700
7      C7     -0.6203   -2.1024    2.4246 C.ar     1 ZINC000072178696   -0.1300
8      C8     -0.8428   -2.3289    3.7901 C.ar     1 ZINC000072178696    0.3100
9      O9     -1.6065   -1.4625    4.5008 O.3      1 ZINC000072178696   -0.6600
10     C10    -0.2855   -3.4377    4.4215 C.ar     1 ZINC000072178696   -0.2900
11     C11     0.5067   -4.3349    3.6749 C.ar     1 ZINC000072178696   -0.1100
12     C12     1.0947   -5.5142    4.3363 C.2      1 ZINC000072178696    0.4300
13     O13     1.9705   -6.1547    3.7876 O.2      1 ZINC000072178696   -0.4300
14     C14     0.6062   -5.9083    5.6760 C.ar     1 ZINC000072178696   -0.1200
15     C15     0.9183   -7.1560    6.2048 C.ar     1 ZINC000072178696   -0.0800
16     C16     0.4521   -7.5075    7.4599 C.ar     1 ZINC000072178696   -0.1200
17     C17    -0.3220   -6.6265    8.1925 C.ar     1 ZINC000072178696   -0.1100
18     C18    -0.6420   -5.3807    7.6809 C.ar     1 ZINC000072178696   -0.0900
19     C19    -0.1819   -5.0119    6.4216 C.ar     1 ZINC000072178696   -0.1000
20     C20    -0.5147   -3.6855    5.8568 C.2      1 ZINC000072178696    0.4300
21     O21    -0.9722   -2.8112    6.5670 O.2      1 ZINC000072178696   -0.4400
22     C22     0.7214   -4.0940    2.3206 C.ar     1 ZINC000072178696    0.0600
23     O23     1.4831   -4.9511    1.5967 O.3      1 ZINC000072178696   -0.4600
24     C24     0.1550   -2.9718    1.6998 C.ar     1 ZINC000072178696   -0.0600
25     C25     0.4433   -2.7731    0.2339 C.3      1 ZINC000072178696    0.1500
26     H26     1.4511   -2.3747    0.1168 H        1 ZINC000072178696    0.0800
27     O27     0.3531   -4.0307   -0.4385 O.3      1 ZINC000072178696   -0.3400
28     C28     1.1814   -4.1303   -1.5987 C.3      1 ZINC000072178696    0.2600
29     H29     0.9883   -3.2833   -2.2570 H        1 ZINC000072178696    0.0500
30     C30     0.8691   -5.4336   -2.3386 C.3      1 ZINC000072178696   -0.1700
31     C31     1.8021   -5.5619   -3.5467 C.3      1 ZINC000072178696    0.0300
32     H32     1.6137   -4.7435   -4.2415 H        1 ZINC000072178696    0.1000
33     N33     1.5597   -6.8444   -4.2208 N.3      1 ZINC000072178696   -0.4200
34     C34     0.4372   -7.5611   -3.6008 C.3      1 ZINC000072178696   -0.0900
35     C35     0.2760   -6.8295   -4.9348 C.3      1 ZINC000072178696   -0.0700
36     C36     3.2548   -5.5008   -3.0648 C.3      1 ZINC000072178696    0.0900
37     H37     3.9252   -5.5358   -3.9235 H        1 ZINC000072178696    0.1100
38     O38     3.5202   -6.6118   -2.2061 O.3      1 ZINC000072178696   -0.7000
39     S39     4.3980   -7.6844   -2.8349 S.o2     1 ZINC000072178696    2.6000
40     C40     6.0646   -6.9683   -2.8254 C.3      1 ZINC000072178696   -0.7100
41     O41     4.3195   -8.7767   -1.9295 O.2      1 ZINC000072178696   -0.9400
42     O42     3.9122   -7.7992   -4.1653 O.2      1 ZINC000072178696   -0.9300
43     C43     3.4749   -4.1949   -2.2967 C.3      1 ZINC000072178696    0.1000
44     H44     3.3120   -3.3487   -2.9643 H        1 ZINC000072178696    0.0800
45     C45     4.9073   -4.1535   -1.7607 C.3      1 ZINC000072178696   -0.1600
46     O46     2.5552   -4.1246   -1.2053 O.3      1 ZINC000072178696   -0.3600
47     C47    -0.5570   -1.7992   -0.3845 C.3      1 ZINC000072178696   -0.1200
48     H48     2.4792    1.1048    0.0737 H        1 ZINC000072178696    0.0800
49     H49     1.5439    0.3414   -1.2342 H        1 ZINC000072178696    0.0900
50     H50     0.8949    1.7690   -0.3921 H        1 ZINC000072178696    0.0900
51     H51    -1.4260    1.3056    0.3159 H        1 ZINC000072178696    0.3800
52     H52    -1.1626   -0.0426    2.4960 H        1 ZINC000072178696    0.0800
53     H53    -2.3213   -1.0845    1.6419 H        1 ZINC000072178696    0.0800
54     H54     1.5223   -7.8489    5.6377 H        1 ZINC000072178696    0.1300
55     H55     0.6945   -8.4769    7.8697 H        1 ZINC000072178696    0.1300
56     H56    -0.6797   -6.9126    9.1706 H        1 ZINC000072178696    0.1300
57     H57    -1.2472   -4.6973    8.2581 H        1 ZINC000072178696    0.1400
58     H58     0.9793   -5.6491    1.1562 H        1 ZINC000072178696    0.3600
59     H59     1.0230   -6.2791   -1.6681 H        1 ZINC000072178696    0.1100
60     H60    -0.1666   -5.4206   -2.6781 H        1 ZINC000072178696    0.0900
61     H61     0.4599   -8.6507   -3.6213 H        1 ZINC000072178696    0.1200
62     H62    -0.0235   -7.1139   -2.7200 H        1 ZINC000072178696    0.1200
63     H63    -0.2913   -5.8987   -4.9357 H        1 ZINC000072178696    0.1000
64     H64     0.1921   -7.4355   -5.8370 H        1 ZINC000072178696    0.1200
65     H65     6.3888   -6.8159   -1.7959 H        1 ZINC000072178696    0.1300
66     H66     6.7546   -7.6469   -3.3269 H        1 ZINC000072178696    0.1300
67     H67     6.0520   -6.0116   -3.3477 H        1 ZINC000072178696    0.1200
68     H68     5.6074   -4.1314   -2.5959 H        1 ZINC000072178696    0.0700
69     H69     5.0413   -3.2602   -1.1507 H        1 ZINC000072178696    0.0800
70     H70     5.0939   -5.0393   -1.1536 H        1 ZINC000072178696    0.0700
71     H71    -1.5458   -2.2570   -0.4128 H        1 ZINC000072178696    0.0900
72     H72    -0.2418   -1.5415   -1.3956 H        1 ZINC000072178696    0.0700
@<TRIPOS>BOND
1     1     2     1
2     1     48    1
3     1     49    1
4     1     50    1
5     2     3     2
6     2     4     1
7     4     47    1
8     4     5     1
9     4     6     1
10    5     51    1
11    6     7     1
12    6     52    1
13    6     53    1
14    7     24    ar
15    7     8     ar
16    8     9     1
17    8     10    ar
18    10    20    1
19    10    11    ar
20    11    12    1
21    11    22    ar
22    12    13    2
23    12    14    1
24    14    19    ar
25    14    15    ar
26    15    16    ar
27    15    54    1
28    16    17    ar
29    16    55    1
30    17    18    ar
31    17    56    1
32    18    19    ar
33    18    57    1
34    19    20    1
35    20    21    2
36    22    23    1
37    22    24    ar
38    23    58    1
39    24    25    1
40    25    26    1
41    25    27    1
42    25    47    1
43    27    28    1
44    28    29    1
45    28    46    1
46    28    30    1
47    30    31    1
48    30    59    1
49    30    60    1
50    31    32    1
51    31    33    1
52    31    36    1
53    33    35    1
54    33    34    1
55    34    35    1
56    34    61    1
57    34    62    1
58    35    63    1
59    35    64    1
60    36    37    1
61    36    38    1
62    36    43    1
63    38    39    1
64    39    40    1
65    39    41    2
66    39    42    2
67    40    65    1
68    40    66    1
69    40    67    1
70    43    44    1
71    43    45    1
72    43    46    1
73    45    68    1
74    45    69    1
75    45    70    1
76    47    71    1
77    47    72    1
@<TRIPOS>SUBSTRUCTURE
1   ZINC000072178696 1     RESIDUE    1   A     ZIN   1
