@<TRIPOS>MOLECULE
ZINC000000003761
41    42    1     0     0
SMALL
USER_CHARGES
@<TRIPOS>ATOM
1      C1     -0.0187    1.5258    0.0104 C.3      1 ZINC000000003761   -0.1400
2      C2      0.0021   -0.0041    0.0020 C.3      1 ZINC000000003761   -0.0500
3      C3      0.7421   -0.5109    1.2415 C.3      1 ZINC000000003761   -0.1400
4      C4     -1.4117   -0.5257    0.0127 C.ar     1 ZINC000000003761   -0.0800
5      C5     -2.2603   -0.2046    1.0565 C.ar     1 ZINC000000003761   -0.1100
6      C6     -3.5590   -0.6793    1.0693 C.ar     1 ZINC000000003761   -0.1200
7      C7     -4.0153   -1.4835    0.0413 C.ar     1 ZINC000000003761   -0.1000
8      C8     -3.1673   -1.8172   -1.0022 C.ar     1 ZINC000000003761    0.0900
9      C9     -1.8645   -1.3221   -1.0251 C.ar     1 ZINC000000003761    0.1000
10     O10    -1.0494   -1.6178   -2.0729 O.3      1 ZINC000000003761   -0.3000
11     C11    -1.2383   -2.8866   -2.7035 C.3      1 ZINC000000003761    0.1200
12     H12    -0.7191   -2.8964   -3.6619 H        1 ZINC000000003761    0.1500
13     C13    -0.6734   -3.9901   -1.8068 C.3      1 ZINC000000003761   -0.1100
14     C14     0.8207   -3.7495   -1.5817 C.3      1 ZINC000000003761   -0.1400
15     C15    -1.4007   -3.9759   -0.4609 C.3      1 ZINC000000003761   -0.1900
16     C16    -2.7100   -3.1267   -2.9274 C.2      1 ZINC000000003761    0.2400
17     S17    -3.2036   -3.9544   -4.2034 S.2      1 ZINC000000003761   -0.4400
18     N18    -3.6104   -2.6362   -2.0486 N.am     1 ZINC000000003761   -0.4300
19     C19    -5.0317   -2.9652   -2.1828 C.3      1 ZINC000000003761    0.0100
20     C20    -5.3332   -4.2183   -1.4019 C.2      1 ZINC000000003761    0.5000
21     O21    -4.4433   -4.7843   -0.7900 O.co2    1 ZINC000000003761   -0.6700
22     O22    -6.4670   -4.6663   -1.3821 O.co2    1 ZINC000000003761   -0.6800
23     H23     1.0039    1.9031    0.0027 H        1 ZINC000000003761    0.0600
24     H24    -0.5459    1.8868   -0.8726 H        1 ZINC000000003761    0.0500
25     H25    -0.5289    1.8773    0.9072 H        1 ZINC000000003761    0.0600
26     H26     0.5123   -0.3556   -0.8948 H        1 ZINC000000003761    0.0900
27     H27     0.2319   -0.1594    2.1383 H        1 ZINC000000003761    0.0600
28     H28     0.7568   -1.6008    1.2356 H        1 ZINC000000003761    0.0600
29     H29     1.7647   -0.1336    1.2338 H        1 ZINC000000003761    0.0600
30     H30    -1.9073    0.4188    1.8647 H        1 ZINC000000003761    0.1300
31     H31    -4.2187   -0.4215    1.8847 H        1 ZINC000000003761    0.1300
32     H32    -5.0307   -1.8513    0.0520 H        1 ZINC000000003761    0.1300
33     H33    -0.8172   -4.9579   -2.2873 H        1 ZINC000000003761    0.0900
34     H34     0.9645   -2.7817   -1.1013 H        1 ZINC000000003761    0.0600
35     H35     1.2231   -4.5357   -0.9429 H        1 ZINC000000003761    0.0600
36     H36     1.3389   -3.7597   -2.5406 H        1 ZINC000000003761    0.0600
37     H37    -2.4652   -4.1473   -0.6212 H        1 ZINC000000003761    0.1100
38     H38    -0.9983   -4.7621    0.1779 H        1 ZINC000000003761    0.0500
39     H39    -1.2569   -3.0081    0.0196 H        1 ZINC000000003761    0.0600
40     H40    -5.6331   -2.1425   -1.7959 H        1 ZINC000000003761    0.0900
41     H41    -5.2697   -3.1262   -3.2342 H        1 ZINC000000003761    0.1200
@<TRIPOS>BOND
1     1     2     1
2     1     23    1
3     1     24    1
4     1     25    1
5     2     3     1
6     2     4     1
7     2     26    1
8     3     27    1
9     3     28    1
10    3     29    1
11    4     9     ar
12    4     5     ar
13    5     6     ar
14    5     30    1
15    6     7     ar
16    6     31    1
17    7     8     ar
18    7     32    1
19    8     18    1
20    8     9     ar
21    9     10    1
22    10    11    1
23    11    12    1
24    11    13    1
25    11    16    1
26    13    14    1
27    13    15    1
28    13    33    1
29    14    34    1
30    14    35    1
31    14    36    1
32    15    37    1
33    15    38    1
34    15    39    1
35    16    17    2
36    16    18    am
37    18    19    1
38    19    20    1
39    19    40    1
40    19    41    1
41    20    21    ar
42    20    22    ar
@<TRIPOS>SUBSTRUCTURE
1   ZINC000000003761 1     RESIDUE    1   A     ZIN   1
