@<TRIPOS>MOLECULE
ZINC000049888572
56    60    1     0     0
SMALL
USER_CHARGES
@<TRIPOS>ATOM
1      C1      1.0680   -2.4080    0.3667 C.3      1 ZINC000049888572   -0.6700
2      S2      0.2096   -0.8441    0.0379 S.o2     1 ZINC000049888572    2.6100
3      O3     -1.1515   -1.0825   -0.2936 O.2      1 ZINC000049888572   -0.9500
4      O4      0.5677    0.1341    1.0044 O.2      1 ZINC000049888572   -0.9500
5      N5      0.8823   -0.2917   -1.3708 N.am     1 ZINC000049888572   -1.0600
6      C6      2.2409    0.0420   -1.4138 C.ar     1 ZINC000049888572    0.0700
7      C7      2.6857    1.2226   -0.8268 C.ar     1 ZINC000049888572   -0.0300
8      C8      4.0222    1.5653   -0.8624 C.ar     1 ZINC000049888572   -0.1500
9      C9      4.9398    0.7319   -1.4865 C.ar     1 ZINC000049888572    0.1900
10     O10     6.2495    1.0773   -1.5245 O.3      1 ZINC000049888572   -0.3000
11     C11     7.2207    0.0493   -1.7123 C.3      1 ZINC000049888572    0.1300
12     C12     8.6057    0.6728   -1.8955 C.3      1 ZINC000049888572   -0.1000
13     C13     8.9917    1.4297   -0.6224 C.3      1 ZINC000049888572    0.0600
14     N14     8.9958    0.5037    0.5174 N.3      1 ZINC000049888572   -0.5400
15     C15     9.4961    1.1642    1.7304 C.3      1 ZINC000049888572    0.0600
16     C16     9.7216    0.1185    2.8243 C.3      1 ZINC000049888572   -0.0800
17     C17    10.2348    0.7960    4.0688 C.ar     1 ZINC000049888572   -0.0500
18     C18    11.5726    0.9436    4.2334 C.ar     1 ZINC000049888572   -0.0700
19     C19    12.0606    1.5761    5.3934 C.ar     1 ZINC000049888572    0.0200
20     N20    13.2135    1.9063    5.9210 N.2      1 ZINC000049888572   -0.3400
21     O21    13.0197    2.4576    6.9859 O.3      1 ZINC000049888572    0.3800
22     N22    11.8596    2.5825    7.3237 N.2      1 ZINC000049888572   -0.3400
23     C23    11.0867    2.0626    6.4024 C.ar     1 ZINC000049888572    0.0100
24     C24     9.7122    1.8726    6.1612 C.ar     1 ZINC000049888572   -0.0600
25     C25     9.3156    1.2598    5.0184 C.ar     1 ZINC000049888572   -0.0800
26     C26     7.6623   -0.0688    0.7417 C.3      1 ZINC000049888572    0.0500
27     C27     7.2374   -0.8718   -0.4900 C.3      1 ZINC000049888572   -0.1400
28     C28     6.8620   -0.7710   -2.9590 C.3      1 ZINC000049888572   -0.1900
29     C29     5.4750   -1.3463   -2.7314 C.2      1 ZINC000049888572    0.4000
30     O30     5.1891   -2.4753   -3.0705 O.2      1 ZINC000049888572   -0.4400
31     C31     4.4946   -0.4618   -2.0767 C.ar     1 ZINC000049888572   -0.2500
32     C32     3.1423   -0.8058   -2.0355 C.ar     1 ZINC000049888572   -0.0200
33     H33     0.9475   -3.0750   -0.4868 H        1 ZINC000049888572    0.1300
34     H34     2.1281   -2.2134    0.5290 H        1 ZINC000049888572    0.1300
35     H35     0.6441   -2.8751    1.2557 H        1 ZINC000049888572    0.1300
36     H36     0.3348   -0.1995   -2.1662 H        1 ZINC000049888572    0.4300
37     H37     1.9785    1.8772   -0.3391 H        1 ZINC000049888572    0.1500
38     H38     4.3548    2.4847   -0.4037 H        1 ZINC000049888572    0.1500
39     H39     9.3362   -0.1132   -2.0871 H        1 ZINC000049888572    0.1000
40     H40     8.5850    1.3643   -2.7378 H        1 ZINC000049888572    0.0900
41     H41     9.9855    1.8609   -0.7435 H        1 ZINC000049888572    0.0800
42     H42     8.2702    2.2262   -0.4406 H        1 ZINC000049888572    0.0500
43     H43    10.4375    1.6667    1.5086 H        1 ZINC000049888572    0.0800
44     H44     8.7652    1.8966    2.0731 H        1 ZINC000049888572    0.0400
45     H45     8.7801   -0.3841    3.0462 H        1 ZINC000049888572    0.0800
46     H46    10.4525   -0.6140    2.4817 H        1 ZINC000049888572    0.0900
47     H47    12.2577    0.5792    3.4822 H        1 ZINC000049888572    0.1500
48     H48     8.9806    2.2161    6.8776 H        1 ZINC000049888572    0.1500
49     H49     8.2601    1.1174    4.8392 H        1 ZINC000049888572    0.1400
50     H50     7.6905   -0.7253    1.6114 H        1 ZINC000049888572    0.0800
51     H51     6.9467    0.7347    0.9162 H        1 ZINC000049888572    0.0400
52     H52     6.2406   -1.2828   -0.3304 H        1 ZINC000049888572    0.0700
53     H53     7.9445   -1.6845   -0.6563 H        1 ZINC000049888572    0.1000
54     H54     6.8574   -0.1274   -3.8386 H        1 ZINC000049888572    0.1200
55     H55     7.5818   -1.5786   -3.0921 H        1 ZINC000049888572    0.1200
56     H56     2.8009   -1.7247   -2.4887 H        1 ZINC000049888572    0.1400
@<TRIPOS>BOND
1     1     2     1
2     1     33    1
3     1     34    1
4     1     35    1
5     2     3     2
6     2     4     2
7     2     5     am
8     5     6     1
9     5     36    1
10    6     32    ar
11    6     7     ar
12    7     8     ar
13    7     37    1
14    8     9     ar
15    8     38    1
16    9     31    ar
17    9     10    1
18    10    11    1
19    11    27    1
20    11    12    1
21    11    28    1
22    12    13    1
23    12    39    1
24    12    40    1
25    13    14    1
26    13    41    1
27    13    42    1
28    14    15    1
29    14    26    1
30    15    16    1
31    15    43    1
32    15    44    1
33    16    17    1
34    16    45    1
35    16    46    1
36    17    25    ar
37    17    18    ar
38    18    19    ar
39    18    47    1
40    19    23    ar
41    19    20    2
42    20    21    1
43    21    22    1
44    22    23    2
45    23    24    ar
46    24    25    ar
47    24    48    1
48    25    49    1
49    26    27    1
50    26    50    1
51    26    51    1
52    27    52    1
53    27    53    1
54    28    29    1
55    28    54    1
56    28    55    1
57    29    30    2
58    29    31    1
59    31    32    ar
60    32    56    1
@<TRIPOS>SUBSTRUCTURE
1   ZINC000049888572 1     RESIDUE    1   A     ZIN   1
