@<TRIPOS>MOLECULE
ZINC000043170515
  41   45    0    0    0
SMALL
USER_CHARGES
NO_NAME
@<TRIPOS>ATOM
    1 C1       -0.0178     1.4608     0.0101 C.3    1 <0>       0.0900
    2 N2        0.0021    -0.0041     0.0020 N.pl3  1 <0>      -0.3600
    3 C3        0.0078    -0.7876    -1.0939 C.2    1 <0>       0.1300
    4 C4        0.0282    -2.0861    -0.6731 C.2    1 <0>      -0.2200
    5 C5        0.0409    -3.2892    -1.5411 C.2    1 <0>       0.2700
    6 N6        0.0379    -3.1473    -2.8483 N.2    1 <0>      -0.2700
    7 N7        0.0498    -4.2673    -3.6821 N.pl3  1 <0>      -0.2700
    8 C8        0.0646    -5.5299    -3.1399 C.2    1 <0>       0.1500
    9 N9        0.0728    -6.3816    -4.1525 N.2    1 <0>      -0.2400
   10 N10       0.0640    -5.7250    -5.2599 N.2    1 <0>      -0.2000
   11 C11       0.0499    -4.4368    -5.0220 C.2    1 <0>       0.1200
   12 C12       0.0352    -3.3415    -6.0569 C.3    1 <0>       0.4500
   13 F13      -1.1159    -2.5630    -5.8957 F      1 <0>      -0.1700
   14 F14       1.1685    -2.5364    -5.8999 F      1 <0>      -0.1700
   15 C15       0.0398    -3.9521    -7.4347 C.ar   1 <0>      -0.1400
   16 C16       1.2536    -4.2218    -8.0630 C.ar   1 <0>      -0.0700
   17 C17       1.2935    -4.7729    -9.3069 C.ar   1 <0>      -0.0900
   18 C18       0.0941    -5.0775    -9.9735 C.ar   1 <0>       0.1400
   19 N19       0.1021    -5.6197   -11.1955 N.ar   1 <0>      -0.4800
   20 C20      -1.0136    -5.9060   -11.8212 C.ar   1 <0>       0.1400
   21 C21      -2.2596    -5.6608   -11.2479 C.ar   1 <0>      -0.1800
   22 C22      -2.3396    -5.1083   -10.0015 C.ar   1 <0>      -0.0500
   23 C23      -1.1394    -4.8026    -9.3322 C.ar   1 <0>      -0.1100
   24 C24      -1.1425    -4.2381    -8.0468 C.ar   1 <0>      -0.0400
   25 C25       0.0678    -5.6810    -1.7400 C.2    1 <0>       0.0000
   26 C26       0.0619    -4.5724    -0.9542 C.2    1 <0>      -0.1400
   27 C27       0.0349    -2.0755     0.7359 C.2    1 <0>       0.0900
   28 N28       0.0245    -0.8306     1.1319 N.2    1 <0>      -0.2800
   29 H29       1.0048     1.8381     0.0023 H      1 <0>       0.0800
   30 H30      -0.5450     1.8219    -0.8730 H      1 <0>       0.0900
   31 H31      -0.5280     1.8123     0.9069 H      1 <0>       0.1000
   32 H32      -0.0025    -0.4496    -2.1196 H      1 <0>       0.1900
   33 H33       2.1780    -3.9895    -7.5550 H      1 <0>       0.1400
   34 H34       2.2430    -4.9749    -9.7801 H      1 <0>       0.1500
   35 H35      -0.9657    -6.3433   -12.8076 H      1 <0>       0.1600
   36 H36      -3.1614    -5.9070   -11.7889 H      1 <0>       0.1400
   37 H37      -3.2969    -4.9112    -9.5421 H      1 <0>       0.1400
   38 H38      -2.0771    -4.0283    -7.5480 H      1 <0>       0.1400
   39 H39       0.0791    -6.6656    -1.2964 H      1 <0>       0.1800
   40 H40       0.0646    -4.6736     0.1211 H      1 <0>       0.1700
   41 H41       0.0497    -2.9448     1.3766 H      1 <0>       0.2000
@<TRIPOS>BOND
   1    1    2 1
   2    1   29 1
   3    1   30 1
   4    1   31 1
   5    2   28 1
   6    2    3 1
   7    3    4 2
   8    3   32 1
   9    4    5 1
  10    4   27 1
  11    5   26 1
  12    5    6 2
  13    6    7 1
  14    7   11 1
  15    7    8 1
  16    8    9 2
  17    8   25 1
  18    9   10 1
  19   10   11 2
  20   11   12 1
  21   12   13 1
  22   12   14 1
  23   12   15 1
  24   15   24 ar
  25   15   16 ar
  26   16   17 ar
  27   16   33 1
  28   17   18 ar
  29   17   34 1
  30   18   23 ar
  31   18   19 ar
  32   19   20 ar
  33   20   21 ar
  34   20   35 1
  35   21   22 ar
  36   21   36 1
  37   22   23 ar
  38   22   37 1
  39   23   24 ar
  40   24   38 1
  41   25   26 2
  42   25   39 1
  43   26   40 1
  44   27   28 2
  45   27   41 1
