@<TRIPOS>MOLECULE
ZINC000000006126
41    42    1     0     0
SMALL
USER_CHARGES
@<TRIPOS>ATOM
1      O1      0.0963    1.5663   -0.1639 O.3      1 ZINC000000006126   -0.5400
2      C2      0.1000    0.1453   -0.0136 C.3      1 ZINC000000006126    0.0900
3      H3     -0.9233   -0.2098    0.1083 H        1 ZINC000000006126    0.1300
4      C4      0.9221   -0.2350    1.2195 C.3      1 ZINC000000006126    0.0400
5      O5      0.2806    0.2676    2.3933 O.3      1 ZINC000000006126   -0.2000
6      N6      0.9646   -0.0317    3.5965 N.2      1 ZINC000000006126   -0.3200
7      C7      0.4852    0.3686    4.7304 C.2      1 ZINC000000006126    0.2600
8      Cl8    -0.9963    1.2725    4.7759 Cl       1 ZINC000000006126   -0.0500
9      C9      1.1988    0.0564    5.9856 C.ar     1 ZINC000000006126   -0.1300
10     C10     0.6880    0.4784    7.2186 C.ar     1 ZINC000000006126   -0.0300
11     C11     1.3947    0.1596    8.3651 C.ar     1 ZINC000000006126   -0.1700
12     C12     2.5715   -0.5588    8.2572 C.ar     1 ZINC000000006126    0.1300
13     N13     3.0296   -0.9433    7.0811 N.ar     1 ZINC000000006126   -0.4800
14     C14     2.3908   -0.6696    5.9627 C.ar     1 ZINC000000006126    0.1600
15     C15     0.7182   -0.4975   -1.2568 C.3      1 ZINC000000006126   -0.0400
16     N16    -0.0570   -0.1128   -2.4438 N.4      1 ZINC000000006126   -0.3800
17     H17    -0.0028    0.8868   -2.5703 H        1 ZINC000000006126    0.4300
18     C18    -1.4592   -0.5057   -2.2590 C.3      1 ZINC000000006126   -0.0200
19     C19    -2.2868   -0.0353   -3.4571 C.3      1 ZINC000000006126   -0.1400
20     C20    -1.7385   -0.6793   -4.7337 C.3      1 ZINC000000006126   -0.1400
21     C21    -0.2559   -0.3237   -4.8770 C.3      1 ZINC000000006126   -0.1500
22     C22     0.4954   -0.7848   -3.6261 C.3      1 ZINC000000006126   -0.0100
23     H23     0.9758    1.9521   -0.2772 H        1 ZINC000000006126    0.3900
24     H24     0.9993   -1.3204    1.2841 H        1 ZINC000000006126    0.0800
25     H25     1.9200    0.1960    1.1380 H        1 ZINC000000006126    0.0800
26     H26    -0.2336    1.0387    7.2739 H        1 ZINC000000006126    0.1500
27     H27     1.0311    0.4689    9.3339 H        1 ZINC000000006126    0.1500
28     H28     3.1249   -0.8089    9.1503 H        1 ZINC000000006126    0.1700
29     H29     2.7975   -1.0014    5.0188 H        1 ZINC000000006126    0.1700
30     H30     1.7473   -0.1562   -1.3687 H        1 ZINC000000006126    0.1400
31     H31     0.7048   -1.5821   -1.1499 H        1 ZINC000000006126    0.1400
32     H32    -1.5242   -1.5907   -2.1766 H        1 ZINC000000006126    0.1300
33     H33    -1.8470   -0.0492   -1.3484 H        1 ZINC000000006126    0.1300
34     H34    -3.3272   -0.3296   -3.3188 H        1 ZINC000000006126    0.1100
35     H35    -2.2227    1.0496   -3.5402 H        1 ZINC000000006126    0.0900
36     H36    -1.8494   -1.7619   -4.6724 H        1 ZINC000000006126    0.0800
37     H37    -2.2884   -0.3037   -5.5966 H        1 ZINC000000006126    0.0900
38     H38     0.1554   -0.8241   -5.7537 H        1 ZINC000000006126    0.1100
39     H39    -0.1496    0.7553   -4.9896 H        1 ZINC000000006126    0.0900
40     H40     1.5515   -0.5337   -3.7239 H        1 ZINC000000006126    0.1300
41     H41     0.3881   -1.8638   -3.5154 H        1 ZINC000000006126    0.1300
@<TRIPOS>BOND
1     1     2     1
2     1     23    1
3     2     3     1
4     2     4     1
5     2     15    1
6     4     5     1
7     4     24    1
8     4     25    1
9     5     6     1
10    6     7     2
11    7     8     1
12    7     9     1
13    9     14    ar
14    9     10    ar
15    10    11    ar
16    10    26    1
17    11    12    ar
18    11    27    1
19    12    13    ar
20    12    28    1
21    13    14    ar
22    14    29    1
23    15    16    1
24    15    30    1
25    15    31    1
26    16    17    1
27    16    22    1
28    16    18    1
29    18    19    1
30    18    32    1
31    18    33    1
32    19    20    1
33    19    34    1
34    19    35    1
35    20    21    1
36    20    36    1
37    20    37    1
38    21    22    1
39    21    38    1
40    21    39    1
41    22    40    1
42    22    41    1
@<TRIPOS>SUBSTRUCTURE
1   ZINC000000006126 1     RESIDUE    1   A     ZIN   1
