@<TRIPOS>MOLECULE
ZINC000003982162
  77   80    0    0    0
SMALL
NO_CHARGES
@<TRIPOS>ATOM
   1 C1            -0.7880     0.4981    -1.6742 C.3     
   2 O2            -1.1121    -0.8832    -1.5041 O.3     
   3 C3            -2.5075    -1.1352    -1.3265 C.3     
   4 H4            -3.0840    -0.3770    -1.8565 H       
   5 C5            -2.8489    -1.0864     0.1635 C.3     
   6 H6            -2.5525    -0.1201     0.5717 H       
   7 O7            -2.1455    -2.1263     0.8462 O.3     
   8 C8            -1.8094    -1.8962     2.1326 C.2     
   9 O9            -2.1063    -0.8407     2.6594 O.2     
  10 C10           -1.1104    -2.8848     2.8703 C.2     
  11 C11           -0.7739    -2.6545     4.1582 C.2     
  12 C12           -0.0494    -3.6792     4.9229 C.ar    
  13 C13            0.2985    -4.8925     4.3173 C.ar    
  14 C14            0.9776    -5.8487     5.0378 C.ar    
  15 C15            1.3176    -5.6115     6.3649 C.ar    
  16 O16            1.9873    -6.5577     7.0710 O.3     
  17 C17            2.3055    -6.2493     8.4295 C.3     
  18 C18            3.0541    -7.4264     9.0578 C.3     
  19 N19            4.3538    -7.5911     8.3932 N.3     
  20 C20            5.3062    -6.5649     8.8379 C.3     
  21 C21            4.8915    -8.9400     8.6153 C.3     
  22 C22            0.9745    -4.4082     6.9710 C.ar    
  23 C23            0.3005    -3.4430     6.2577 C.ar    
  24 C24           -4.3535    -1.2803     0.3577 C.3     
  25 C25           -4.7575    -2.6702    -0.1443 C.3     
  26 C26           -4.3276    -2.8135    -1.6061 C.3     
  27 C27           -5.0175    -3.8798    -2.4542 C.3     
  28 O28           -5.2767    -2.4834    -2.6180 O.3     
  29 C29           -2.8513    -2.5203    -1.8835 C.3     
  30 H30           -2.2317    -3.2734    -1.3967 H       
  31 C31           -2.5985    -2.5460    -3.3922 C.3     
  32 C32           -1.1928    -2.9699    -3.8227 C.3     
  33 O33           -3.6908    -2.8958    -4.2446 O.3     
  34 C34           -3.3274    -1.5139    -4.2550 C.3     
  35 H35           -3.9915    -0.8103    -3.7529 H       
  36 C36           -2.6027    -0.9765    -5.4907 C.3     
  37 C37           -3.4607     0.0639    -6.1634 C.2     
  38 C38           -3.7502    -0.0490    -7.4360 C.2     
  39 C39           -3.1948    -1.1990    -8.2360 C.3     
  40 C40           -4.6388     0.9711    -8.0999 C.3     
  41 H41            0.2891     0.6054    -1.8028 H       
  42 H42           -1.2994     0.8855    -2.5554 H       
  43 H43           -1.1063     1.0571    -0.7942 H       
  44 H44           -0.8468    -3.8219     2.4026 H       
  45 H45           -1.0374    -1.7174     4.6259 H       
  46 H46            0.0342    -5.0780     3.2867 H       
  47 H47            1.2465    -6.7851     4.5716 H       
  48 H48            2.9343    -5.3596     8.4624 H       
  49 H49            1.3861    -6.0651     8.9852 H       
  50 H50            3.2106    -7.2327    10.1190 H       
  51 H51            2.4666    -8.3366     8.9374 H       
  52 H52            5.4517    -6.6465     9.9150 H       
  53 H53            6.2599    -6.7100     8.3304 H       
  54 H54            4.9137    -5.5766     8.5981 H       
  55 H55            4.2408    -9.6735     8.1392 H       
  56 H56            5.8910    -9.0079     8.1858 H       
  57 H57            4.9417    -9.1394     9.6858 H       
  58 H58            1.2407    -4.2290     8.0023 H       
  59 H59            0.0344    -2.5087     6.7295 H       
  60 H60           -4.5979    -1.1910     1.4161 H       
  61 H61           -4.8937    -0.5193    -0.2056 H       
  62 H62           -4.2643    -3.4333     0.4578 H       
  63 H63           -5.8387    -2.7855    -0.0688 H       
  64 H64           -4.4261    -4.3801    -3.2211 H       
  65 H65           -5.7877    -4.4872    -1.9789 H       
  66 H66           -1.0176    -4.0034    -3.5242 H       
  67 H67           -1.1031    -2.8842    -4.9056 H       
  68 H68           -0.4562    -2.3239    -3.3449 H       
  69 H69           -1.6559    -0.5278    -5.1902 H       
  70 H70           -2.4127    -1.7950    -6.1850 H       
  71 H71           -3.8368     0.9025    -5.5963 H       
  72 H72           -3.8352    -2.0720    -8.1103 H       
  73 H73           -3.1581    -0.9241    -9.2901 H       
  74 H74           -2.1892    -1.4327    -7.8863 H       
  75 H75           -4.0277     1.7812    -8.4978 H       
  76 H76           -5.1899     0.4986    -8.9130 H       
  77 H77           -5.3416     1.3714    -7.3691 H       
@<TRIPOS>BOND
   1    1    2 1
   2    1   41 1
   3    1   42 1
   4    1   43 1
   5    2    3 1
   6    3    4 1
   7    3   29 1
   8    3    5 1
   9    5    6 1
  10    5    7 1
  11    5   24 1
  12    7    8 1
  13    8    9 2
  14    8   10 1
  15   10   11 2
  16   10   44 1
  17   11   12 1
  18   11   45 1
  19   12   23 ar
  20   12   13 ar
  21   13   14 ar
  22   13   46 1
  23   14   15 ar
  24   14   47 1
  25   15   16 1
  26   15   22 ar
  27   16   17 1
  28   17   18 1
  29   17   48 1
  30   17   49 1
  31   18   19 1
  32   18   50 1
  33   18   51 1
  34   19   20 1
  35   19   21 1
  36   20   52 1
  37   20   53 1
  38   20   54 1
  39   21   55 1
  40   21   56 1
  41   21   57 1
  42   22   23 ar
  43   22   58 1
  44   23   59 1
  45   24   25 1
  46   24   60 1
  47   24   61 1
  48   25   26 1
  49   25   62 1
  50   25   63 1
  51   26   28 1
  52   26   27 1
  53   26   29 1
  54   27   28 1
  55   27   64 1
  56   27   65 1
  57   29   30 1
  58   29   31 1
  59   31   34 1
  60   31   32 1
  61   31   33 1
  62   32   66 1
  63   32   67 1
  64   32   68 1
  65   33   34 1
  66   34   35 1
  67   34   36 1
  68   36   37 1
  69   36   69 1
  70   36   70 1
  71   37   38 2
  72   37   71 1
  73   38   39 1
  74   38   40 1
  75   39   72 1
  76   39   73 1
  77   39   74 1
  78   40   75 1
  79   40   76 1
  80   40   77 1
