@<TRIPOS>MOLECULE
ZINC000100406242
34    36    1     0     0
SMALL
USER_CHARGES
@<TRIPOS>ATOM
1      O1      0.0021   -0.0041    0.0020 O.2      1 ZINC000100406242   -0.4800
2      C2     -0.0145    1.2152    0.0087 C.2      1 ZINC000100406242    0.4500
3      C3      1.1920    1.9338    0.0011 C.2      1 ZINC000100406242   -0.4800
4      C4      2.3956    1.2606   -0.0140 C.2      1 ZINC000100406242    0.3600
5      O5      2.4140   -0.0921   -0.0215 O.3      1 ZINC000100406242   -0.6100
6      C6      3.6524    2.0092   -0.0220 C.2      1 ZINC000100406242    0.0100
7      C7      4.9196    1.4679   -0.0426 C.2      1 ZINC000100406242   -0.1800
8      C8      5.8154    2.5481   -0.0439 C.2      1 ZINC000100406242   -0.2000
9      C9      5.0768    3.6797   -0.0245 C.2      1 ZINC000100406242   -0.0300
10     C10     5.6259    5.0831   -0.0185 C.3      1 ZINC000100406242    0.0100
11     C11     5.7914    5.5637   -1.4372 C.ar     1 ZINC000100406242   -0.0900
12     C12     6.9803    5.3427   -2.1071 C.ar     1 ZINC000100406242   -0.0800
13     C13     7.1332    5.7831   -3.4081 C.ar     1 ZINC000100406242   -0.1500
14     C14     6.0949    6.4454   -4.0408 C.ar     1 ZINC000100406242    0.0900
15     F15     6.2431    6.8759   -5.3127 F        1 ZINC000100406242   -0.1400
16     C16     4.9044    6.6658   -3.3690 C.ar     1 ZINC000100406242   -0.1500
17     C17     4.7521    6.2203   -2.0697 C.ar     1 ZINC000100406242   -0.0800
18     O18     3.7774    3.3526   -0.0165 O.3      1 ZINC000100406242   -0.1500
19     C19    -1.3066    1.9380    0.0188 C.2      1 ZINC000100406242    0.2000
20     N20    -1.4543    3.2462    0.0209 N.2      1 ZINC000100406242   -0.2800
21     N21    -2.8363    3.4958    0.0312 N.pl3    1 ZINC000100406242   -0.5000
22     C22    -3.4426    2.2929    0.0348 C.2      1 ZINC000100406242    0.2400
23     N23    -2.5209    1.3687    0.0214 N.2      1 ZINC000100406242   -0.5100
24     H24     1.1774    3.0137    0.0070 H        1 ZINC000100406242    0.1000
25     H25     5.1735    0.4183   -0.0552 H        1 ZINC000100406242    0.1500
26     H26     6.8936    2.4867   -0.0577 H        1 ZINC000100406242    0.1400
27     H27     4.9359    5.7410    0.5099 H        1 ZINC000100406242    0.0900
28     H28     6.5934    5.0926    0.4835 H        1 ZINC000100406242    0.1000
29     H29     7.7901    4.8261   -1.6134 H        1 ZINC000100406242    0.1300
30     H30     8.0624    5.6109   -3.9310 H        1 ZINC000100406242    0.1300
31     H31     4.0939    7.1826   -3.8614 H        1 ZINC000100406242    0.1400
32     H32     3.8235    6.3918   -1.5456 H        1 ZINC000100406242    0.1400
33     H33    -3.2692    4.3639    0.0354 H        1 ZINC000100406242    0.4300
34     H34    -4.5090    2.1223    0.0425 H        1 ZINC000100406242    0.2200
@<TRIPOS>BOND
1     1     2     2
2     2     3     1
3     2     19    1
4     3     4     2
5     3     24    1
6     4     5     1
7     4     6     1
8     6     18    1
9     6     7     2
10    7     8     1
11    7     25    1
12    8     9     2
13    8     26    1
14    9     10    1
15    9     18    1
16    10    11    1
17    10    27    1
18    10    28    1
19    11    17    ar
20    11    12    ar
21    12    13    ar
22    12    29    1
23    13    14    ar
24    13    30    1
25    14    15    1
26    14    16    ar
27    16    17    ar
28    16    31    1
29    17    32    1
30    19    23    1
31    19    20    2
32    20    21    1
33    21    22    1
34    21    33    1
35    22    23    2
36    22    34    1
@<TRIPOS>SUBSTRUCTURE
1   ZINC000100406242 1     RESIDUE    1   A     ZIN   1
