@<TRIPOS>MOLECULE
ZINC000003833858
80    84    1     0     0
SMALL
USER_CHARGES
@<TRIPOS>ATOM
1      O1     -0.2831   -1.0977    1.4774 O.2      1 ZINC000003833858   -0.5800
2      C2     -0.5664    0.0756    1.3145 C.2      1 ZINC000003833858    0.7200
3      N3     -1.8570    0.4117    1.4822 N.am     1 ZINC000003833858   -0.6100
4      C4     -2.8830   -0.6361    1.4443 C.3      1 ZINC000003833858    0.1700
5      C5     -2.9812   -1.2923    2.7974 C.ar     1 ZINC000003833858   -0.1000
6      C6     -2.0778   -2.2752    3.1561 C.ar     1 ZINC000003833858   -0.0900
7      C7     -2.1679   -2.8771    4.3973 C.ar     1 ZINC000003833858   -0.1100
8      C8     -3.1610   -2.4957    5.2799 C.ar     1 ZINC000003833858   -0.0900
9      C9     -3.2595   -3.1522    6.6328 C.3      1 ZINC000003833858    0.1200
10     O10    -2.4726   -2.4212    7.5754 O.3      1 ZINC000003833858   -0.5700
11     C11    -4.0635   -1.5118    4.9217 C.ar     1 ZINC000003833858   -0.1100
12     C12    -3.9711   -0.9072    3.6820 C.ar     1 ZINC000003833858   -0.1200
13     C13    -2.2572    1.7935    1.7430 C.3      1 ZINC000003833858    0.1700
14     H14    -1.6243    2.2076    2.5302 H        1 ZINC000003833858    0.0900
15     C15    -3.7101    1.8045    2.2348 C.3      1 ZINC000003833858   -0.0900
16     C16    -4.0864    3.2008    2.6589 C.ar     1 ZINC000003833858   -0.0800
17     C17    -3.8316    3.6231    3.9503 C.ar     1 ZINC000003833858   -0.1200
18     C18    -4.1767    4.9039    4.3394 C.ar     1 ZINC000003833858   -0.1200
19     C19    -4.7762    5.7625    3.4369 C.ar     1 ZINC000003833858   -0.1200
20     C20    -5.0302    5.3404    2.1453 C.ar     1 ZINC000003833858   -0.1300
21     C21    -4.6811    4.0611    1.7550 C.ar     1 ZINC000003833858   -0.1100
22     C22    -2.1511    2.6480    0.5002 C.3      1 ZINC000003833858    0.0600
23     H23    -2.0293    3.6924    0.7957 H        1 ZINC000003833858    0.0800
24     O24    -3.3958    2.5568   -0.2112 O.3      1 ZINC000003833858   -0.5600
25     C25    -1.0373    2.2529   -0.4453 C.3      1 ZINC000003833858    0.0800
26     H26    -1.2808    1.2854   -0.9014 H        1 ZINC000003833858    0.0700
27     O27    -0.9407    3.2262   -1.4939 O.3      1 ZINC000003833858   -0.5400
28     C28     0.3098    2.1452    0.2685 C.3      1 ZINC000003833858    0.1700
29     H29     1.1028    2.1585   -0.4995 H        1 ZINC000003833858    0.0900
30     C30     0.5466    3.3283    1.2017 C.3      1 ZINC000003833858   -0.1100
31     C31     0.7091    4.5858    0.3873 C.ar     1 ZINC000003833858   -0.0600
32     C32     1.9329    4.8889   -0.1796 C.ar     1 ZINC000003833858   -0.1100
33     C33     2.0819    6.0424   -0.9266 C.ar     1 ZINC000003833858   -0.1200
34     C34     1.0070    6.8927   -1.1071 C.ar     1 ZINC000003833858   -0.1200
35     C35    -0.2170    6.5891   -0.5410 C.ar     1 ZINC000003833858   -0.1200
36     C36    -0.3672    5.4334    0.2024 C.ar     1 ZINC000003833858   -0.1000
37     N37     0.4234    0.8883    0.9970 N.am     1 ZINC000003833858   -0.6100
38     C38     1.7726    0.4831    1.4174 C.3      1 ZINC000003833858    0.1600
39     C39     1.9965    0.8930    2.8502 C.ar     1 ZINC000003833858   -0.1000
40     C40     2.6605    2.0712    3.1363 C.ar     1 ZINC000003833858   -0.1100
41     C41     2.8659    2.4473    4.4506 C.ar     1 ZINC000003833858   -0.1000
42     C42     2.4070    1.6453    5.4787 C.ar     1 ZINC000003833858   -0.0900
43     C43     2.6314    2.0550    6.9115 C.3      1 ZINC000003833858    0.1200
44     O44     1.5297    2.8478    7.3584 O.3      1 ZINC000003833858   -0.5700
45     C45     1.7419    0.4677    5.1926 C.ar     1 ZINC000003833858   -0.1000
46     C46     1.5331    0.0936    3.8784 C.ar     1 ZINC000003833858   -0.0900
47     H47    -3.8446   -0.1938    1.1843 H        1 ZINC000003833858    0.0900
48     H48    -2.6126   -1.3825    0.6973 H        1 ZINC000003833858    0.0900
49     H49    -1.3019   -2.5732    2.4665 H        1 ZINC000003833858    0.1500
50     H50    -1.4625   -3.6455    4.6772 H        1 ZINC000003833858    0.1200
51     H51    -4.3000   -3.1610    6.9575 H        1 ZINC000003833858    0.0500
52     H52    -2.8905   -4.1757    6.5677 H        1 ZINC000003833858    0.0500
53     H53    -2.4892   -2.7879    8.4700 H        1 ZINC000003833858    0.3800
54     H54    -4.8392   -1.2136    5.6115 H        1 ZINC000003833858    0.1200
55     H55    -4.6762   -0.1385    3.4022 H        1 ZINC000003833858    0.1300
56     H56    -4.3687    1.4795    1.4294 H        1 ZINC000003833858    0.1000
57     H57    -3.8118    1.1273    3.0828 H        1 ZINC000003833858    0.0900
58     H58    -3.3632    2.9523    4.6553 H        1 ZINC000003833858    0.1200
59     H59    -3.9783    5.2336    5.3485 H        1 ZINC000003833858    0.1200
60     H60    -5.0465    6.7629    3.7411 H        1 ZINC000003833858    0.1200
61     H61    -5.4988    6.0111    1.4404 H        1 ZINC000003833858    0.1200
62     H62    -4.8795    3.7313    0.7459 H        1 ZINC000003833858    0.1300
63     H63    -3.4214    3.0753   -1.0271 H        1 ZINC000003833858    0.3700
64     H64    -1.7464    3.3180   -2.0209 H        1 ZINC000003833858    0.3800
65     H65    -0.3051    3.4377    1.8730 H        1 ZINC000003833858    0.0700
66     H66     1.4501    3.1548    1.7863 H        1 ZINC000003833858    0.1000
67     H67     2.7727    4.2246   -0.0385 H        1 ZINC000003833858    0.1200
68     H68     3.0382    6.2796   -1.3689 H        1 ZINC000003833858    0.1200
69     H69     1.1236    7.7942   -1.6902 H        1 ZINC000003833858    0.1200
70     H70    -1.0568    7.2536   -0.6818 H        1 ZINC000003833858    0.1200
71     H71    -1.3235    5.1963    0.6447 H        1 ZINC000003833858    0.1100
72     H72     1.8709   -0.5989    1.3295 H        1 ZINC000003833858    0.1100
73     H73     2.5126    0.9681    0.7808 H        1 ZINC000003833858    0.0900
74     H74     3.0190    2.6978    2.3330 H        1 ZINC000003833858    0.1200
75     H75     3.3853    3.3674    4.6741 H        1 ZINC000003833858    0.1200
76     H76     2.7151    1.1649    7.5351 H        1 ZINC000003833858    0.0500
77     H77     3.5504    2.6367    6.9834 H        1 ZINC000003833858    0.0500
78     H78     1.6068    3.1474    8.2745 H        1 ZINC000003833858    0.3800
79     H79     1.3830   -0.1587    5.9959 H        1 ZINC000003833858    0.1200
80     H80     1.0134   -0.8264    3.6548 H        1 ZINC000003833858    0.1300
@<TRIPOS>BOND
1     1     2     2
2     2     37    am
3     2     3     am
4     3     4     1
5     3     13    1
6     4     5     1
7     4     47    1
8     4     48    1
9     5     12    ar
10    5     6     ar
11    6     7     ar
12    6     49    1
13    7     8     ar
14    7     50    1
15    8     9     1
16    8     11    ar
17    9     10    1
18    9     51    1
19    9     52    1
20    10    53    1
21    11    12    ar
22    11    54    1
23    12    55    1
24    13    14    1
25    13    15    1
26    13    22    1
27    15    16    1
28    15    56    1
29    15    57    1
30    16    21    ar
31    16    17    ar
32    17    18    ar
33    17    58    1
34    18    19    ar
35    18    59    1
36    19    20    ar
37    19    60    1
38    20    21    ar
39    20    61    1
40    21    62    1
41    22    23    1
42    22    24    1
43    22    25    1
44    24    63    1
45    25    26    1
46    25    27    1
47    25    28    1
48    27    64    1
49    28    29    1
50    28    30    1
51    28    37    1
52    30    31    1
53    30    65    1
54    30    66    1
55    31    36    ar
56    31    32    ar
57    32    33    ar
58    32    67    1
59    33    34    ar
60    33    68    1
61    34    35    ar
62    34    69    1
63    35    36    ar
64    35    70    1
65    36    71    1
66    37    38    1
67    38    39    1
68    38    72    1
69    38    73    1
70    39    46    ar
71    39    40    ar
72    40    41    ar
73    40    74    1
74    41    42    ar
75    41    75    1
76    42    43    1
77    42    45    ar
78    43    44    1
79    43    76    1
80    43    77    1
81    44    78    1
82    45    46    ar
83    45    79    1
84    46    80    1
@<TRIPOS>SUBSTRUCTURE
1   ZINC000003833858 1     RESIDUE    1   A     ZIN   1
