@<TRIPOS>MOLECULE
ZINC000100042059
96    97    1     0     0
SMALL
USER_CHARGES
@<TRIPOS>ATOM
1      C1      2.1391    1.6290    2.3116 C.3      1 ZINC000100042059   -0.1300
2      C2      2.1017    0.1233    2.3640 C.2      1 ZINC000100042059   -0.0900
3      C3      2.0825   -0.5328    3.5981 C.2      1 ZINC000100042059   -0.1000
4      C4      2.0979    0.1984    4.7688 C.2      1 ZINC000100042059   -0.1300
5      C5      2.0787   -0.4578    6.0030 C.2      1 ZINC000100042059   -0.1000
6      C6      2.0941    0.2734    7.1737 C.2      1 ZINC000100042059   -0.1000
7      C7      2.1315    1.7790    7.1213 C.3      1 ZINC000100042059   -0.1300
8      C8      2.0749   -0.3828    8.4078 C.2      1 ZINC000100042059   -0.0700
9      C9      2.0903    0.3484    9.5785 C.2      1 ZINC000100042059   -0.1500
10     C10     1.9543   -0.3000   10.8093 C.2      1 ZINC000100042059    0.0200
11     C11     0.8513   -1.0897   11.0430 C.2      1 ZINC000100042059   -0.2100
12     C12    -0.1918   -1.2371    9.9653 C.3      1 ZINC000100042059   -0.1100
13     C13     0.6787   -1.7566   12.2554 C.2      1 ZINC000100042059    0.3600
14     O14    -0.3077   -2.4470   12.4280 O.2      1 ZINC000100042059   -0.4600
15     C15     1.7026   -1.6307   13.3533 C.3      1 ZINC000100042059    0.0600
16     H16     1.4405   -0.7942   14.0012 H        1 ZINC000100042059    0.0900
17     O17     1.7317   -2.8367   14.1193 O.3      1 ZINC000100042059   -0.5500
18     C18     3.0807   -1.3845   12.7324 C.3      1 ZINC000100042059   -0.1000
19     C19     3.0193   -0.1306   11.8604 C.3      1 ZINC000100042059   -0.0400
20     C20     4.3758    0.0904   11.1881 C.3      1 ZINC000100042059   -0.1400
21     C21     2.6775    1.0802   12.7310 C.3      1 ZINC000100042059   -0.1400
22     C22     2.0863   -0.6078    1.1933 C.2      1 ZINC000100042059   -0.1200
23     C23     2.1055    0.0483   -0.0408 C.2      1 ZINC000100042059   -0.1200
24     C24     2.0901   -0.6829   -1.2115 C.2      1 ZINC000100042059   -0.1200
25     C25     2.1093   -0.0267   -2.4457 C.2      1 ZINC000100042059   -0.1200
26     C26     2.0939   -0.7579   -3.6164 C.2      1 ZINC000100042059   -0.0900
27     C27     2.0564   -2.2635   -3.5640 C.3      1 ZINC000100042059   -0.1300
28     C28     2.1131   -0.1017   -4.8505 C.2      1 ZINC000100042059   -0.1000
29     C29     2.0977   -0.8329   -6.0212 C.2      1 ZINC000100042059   -0.1300
30     C30     2.1169   -0.1768   -7.2553 C.2      1 ZINC000100042059   -0.1000
31     C31     2.1015   -0.9079   -8.4260 C.2      1 ZINC000100042059   -0.1000
32     C32     2.0640   -2.4136   -8.3736 C.3      1 ZINC000100042059   -0.1300
33     C33     2.1207   -0.2518   -9.6601 C.2      1 ZINC000100042059   -0.0700
34     C34     2.1053   -0.9830  -10.8308 C.2      1 ZINC000100042059   -0.1500
35     C35     2.0073   -0.3287  -12.0622 C.2      1 ZINC000100042059    0.0200
36     C36     0.9460    0.5147  -12.3010 C.2      1 ZINC000100042059   -0.2100
37     C37    -0.0936    0.7137  -11.2282 C.3      1 ZINC000100042059   -0.1100
38     C38     0.8124    1.1892  -13.5141 C.2      1 ZINC000100042059    0.3600
39     O39    -0.1378    1.9275  -13.6913 O.2      1 ZINC000100042059   -0.4600
40     C40     1.8339    1.0125  -14.6072 C.3      1 ZINC000100042059    0.0600
41     H41     1.5338    0.1899  -15.2564 H        1 ZINC000100042059    0.0900
42     O42     1.9264    2.2155  -15.3729 O.3      1 ZINC000100042059   -0.5500
43     C43     3.1952    0.6984  -13.9798 C.3      1 ZINC000100042059   -0.1000
44     C44     3.0677   -0.5509  -13.1083 C.3      1 ZINC000100042059   -0.0400
45     C45     4.4084   -0.8388  -12.4296 C.3      1 ZINC000100042059   -0.1400
46     C46     2.6703   -1.7433  -13.9807 C.3      1 ZINC000100042059   -0.1400
47     H47     3.1755    1.9665    2.3014 H        1 ZINC000100042059    0.0700
48     H48     1.6358    1.9737    1.4083 H        1 ZINC000100042059    0.0700
49     H49     1.6332    2.0357    3.1872 H        1 ZINC000100042059    0.0700
50     H50     2.0556   -1.6118    3.6357 H        1 ZINC000100042059    0.1200
51     H51     2.1247    1.2774    4.7313 H        1 ZINC000100042059    0.1200
52     H52     2.0518   -1.5368    6.0405 H        1 ZINC000100042059    0.1200
53     H53     1.1132    2.1675    7.1062 H        1 ZINC000100042059    0.0700
54     H54     2.6529    2.1603    7.9993 H        1 ZINC000100042059    0.0700
55     H55     2.6556    2.0983    6.2204 H        1 ZINC000100042059    0.0700
56     H56     2.0481   -1.4618    8.4453 H        1 ZINC000100042059    0.1200
57     H57     2.2074    1.4215    9.5435 H        1 ZINC000100042059    0.1400
58     H58     0.0597   -2.0863    9.3299 H        1 ZINC000100042059    0.0700
59     H59    -1.1669   -1.4025   10.4236 H        1 ZINC000100042059    0.0700
60     H60    -0.2227   -0.3292    9.3630 H        1 ZINC000100042059    0.0700
61     H61     0.8889   -3.0563   14.5394 H        1 ZINC000100042059    0.3900
62     H62     3.8175   -1.2443   13.5233 H        1 ZINC000100042059    0.0900
63     H63     3.3617   -2.2394   12.1172 H        1 ZINC000100042059    0.0800
64     H64     4.5765   -0.7283   10.4970 H        1 ZINC000100042059    0.0600
65     H65     4.3607    1.0327   10.6404 H        1 ZINC000100042059    0.0700
66     H66     5.1567    0.1242   11.9479 H        1 ZINC000100042059    0.0700
67     H67     3.4445    1.2064   13.4952 H        1 ZINC000100042059    0.0700
68     H68     2.6338    1.9742   12.1090 H        1 ZINC000100042059    0.0600
69     H69     1.7107    0.9226   13.2091 H        1 ZINC000100042059    0.0600
70     H70     2.0594   -1.6868    1.2309 H        1 ZINC000100042059    0.1200
71     H71     2.1323    1.1273   -0.0784 H        1 ZINC000100042059    0.1200
72     H72     2.0632   -1.7619   -1.1740 H        1 ZINC000100042059    0.1200
73     H73     2.1361    1.0523   -2.4832 H        1 ZINC000100042059    0.1200
74     H74     1.0200   -2.6010   -3.5537 H        1 ZINC000100042059    0.0700
75     H75     2.5624   -2.6702   -4.4396 H        1 ZINC000100042059    0.0700
76     H76     2.5597   -2.6083   -2.6607 H        1 ZINC000100042059    0.0700
77     H77     2.1399    0.9773   -4.8880 H        1 ZINC000100042059    0.1200
78     H78     2.0708   -1.9119   -5.9836 H        1 ZINC000100042059    0.1200
79     H79     2.1437    0.9022   -7.2929 H        1 ZINC000100042059    0.1200
80     H80     1.0276   -2.7511   -8.3634 H        1 ZINC000100042059    0.0700
81     H81     2.5700   -2.8203   -9.2492 H        1 ZINC000100042059    0.0700
82     H82     2.5673   -2.7583   -7.4703 H        1 ZINC000100042059    0.0700
83     H83     2.1475    0.8272   -9.6977 H        1 ZINC000100042059    0.1200
84     H84     2.1689   -2.0605  -10.7954 H        1 ZINC000100042059    0.1400
85     H85     0.1967    1.5495  -10.5915 H        1 ZINC000100042059    0.0700
86     H86    -1.0571    0.9271  -11.6911 H        1 ZINC000100042059    0.0700
87     H87    -0.1723   -0.1915  -10.6261 H        1 ZINC000100042059    0.0700
88     H88     1.0975    2.4765  -15.7970 H        1 ZINC000100042059    0.3900
89     H89     3.9279    0.5217  -14.7673 H        1 ZINC000100042059    0.0900
90     H90     3.5153    1.5383  -13.3632 H        1 ZINC000100042059    0.0800
91     H91     4.6461   -0.0309  -11.7376 H        1 ZINC000100042059    0.0600
92     H92     4.3439   -1.7791  -11.8822 H        1 ZINC000100042059    0.0700
93     H93     5.1901   -0.9113  -13.1857 H        1 ZINC000100042059    0.0700
94     H94     3.4337   -1.9075  -14.7412 H        1 ZINC000100042059    0.0700
95     H95     2.5795   -2.6340  -13.3590 H        1 ZINC000100042059    0.0600
96     H96     1.7148   -1.5381  -14.4633 H        1 ZINC000100042059    0.0600
@<TRIPOS>BOND
1     1     2     1
2     1     47    1
3     1     48    1
4     1     49    1
5     2     3     1
6     2     22    2
7     3     4     2
8     3     50    1
9     4     5     1
10    4     51    1
11    5     6     2
12    5     52    1
13    6     7     1
14    6     8     1
15    7     53    1
16    7     54    1
17    7     55    1
18    8     9     2
19    8     56    1
20    9     10    1
21    9     57    1
22    10    19    1
23    10    11    2
24    11    12    1
25    11    13    1
26    12    58    1
27    12    59    1
28    12    60    1
29    13    14    2
30    13    15    1
31    15    16    1
32    15    17    1
33    15    18    1
34    17    61    1
35    18    19    1
36    18    62    1
37    18    63    1
38    19    20    1
39    19    21    1
40    20    64    1
41    20    65    1
42    20    66    1
43    21    67    1
44    21    68    1
45    21    69    1
46    22    23    1
47    22    70    1
48    23    24    2
49    23    71    1
50    24    25    1
51    24    72    1
52    25    26    2
53    25    73    1
54    26    27    1
55    26    28    1
56    27    74    1
57    27    75    1
58    27    76    1
59    28    29    2
60    28    77    1
61    29    30    1
62    29    78    1
63    30    31    2
64    30    79    1
65    31    32    1
66    31    33    1
67    32    80    1
68    32    81    1
69    32    82    1
70    33    34    2
71    33    83    1
72    34    35    1
73    34    84    1
74    35    44    1
75    35    36    2
76    36    37    1
77    36    38    1
78    37    85    1
79    37    86    1
80    37    87    1
81    38    39    2
82    38    40    1
83    40    41    1
84    40    42    1
85    40    43    1
86    42    88    1
87    43    44    1
88    43    89    1
89    43    90    1
90    44    45    1
91    44    46    1
92    45    91    1
93    45    92    1
94    45    93    1
95    46    94    1
96    46    95    1
97    46    96    1
@<TRIPOS>SUBSTRUCTURE
1   ZINC000100042059 1     RESIDUE    1   A     ZIN   1
