@<TRIPOS>MOLECULE
ZINC000012466434
54    59    1     0     0
SMALL
USER_CHARGES
@<TRIPOS>ATOM
1      O1     -0.3533    1.2651   -0.0269 O.3      1 ZINC000012466434   -0.4800
2      C2     -0.2527   -0.0911   -0.0345 C.ar     1 ZINC000012466434    0.1100
3      C3     -0.1698   -0.8079   -1.2261 C.ar     1 ZINC000012466434   -0.1000
4      C4     -0.0931   -2.1903   -1.2771 C.ar     1 ZINC000012466434   -0.1100
5      C5     -0.0804   -2.9309   -0.1084 C.ar     1 ZINC000012466434   -0.0600
6      C6     -0.1061   -4.4238   -0.0428 C.3      1 ZINC000012466434   -0.0900
7      C7     -0.0368   -4.9636    1.3753 C.3      1 ZINC000012466434    0.0200
8      H8     -0.5180   -5.9416    1.3829 H        1 ZINC000012466434    0.1400
9      N9      1.3605   -5.1516    1.7866 N.4      1 ZINC000012466434   -0.3700
10     H10     1.8252   -5.7464    1.1171 H        1 ZINC000012466434    0.4200
11     C11     1.3914   -5.7960    3.1063 C.3      1 ZINC000012466434   -0.0300
12     C12     2.8053   -6.3065    3.3915 C.3      1 ZINC000012466434   -0.1500
13     C13     3.7186   -5.2570    4.0467 C.3      1 ZINC000012466434   -0.1500
14     C14     4.2626   -6.3946    4.9269 C.3      1 ZINC000012466434   -0.1400
15     C15     2.9190   -7.1072    4.6995 C.3      1 ZINC000012466434   -0.1200
16     C16     2.0671   -3.8699    1.8624 C.3      1 ZINC000012466434   -0.0100
17     C17     1.3973   -2.9503    2.8919 C.3      1 ZINC000012466434   -0.1200
18     C18    -0.0600   -2.7549    2.4679 C.3      1 ZINC000012466434   -0.0300
19     C19    -0.0903   -2.2070    1.0611 C.ar     1 ZINC000012466434   -0.1900
20     C20    -0.2219   -0.8285    1.1544 C.ar     1 ZINC000012466434    0.1000
21     O21    -0.3359   -0.4583    2.4485 O.3      1 ZINC000012466434   -0.2800
22     C22    -0.7403   -1.6321    3.2299 C.3      1 ZINC000012466434    0.1200
23     H23    -0.3643   -1.5737    4.2513 H        1 ZINC000012466434    0.1400
24     C24    -2.2554   -1.6620    3.2110 C.3      1 ZINC000012466434    0.1000
25     H25    -2.5970   -1.1066    2.3376 H        1 ZINC000012466434    0.0600
26     O26    -2.7309   -0.9907    4.3794 O.3      1 ZINC000012466434   -0.5600
27     C27    -2.8807   -3.0367    3.1721 C.3      1 ZINC000012466434   -0.1500
28     C28    -2.2652   -3.9009    2.0718 C.3      1 ZINC000012466434   -0.1300
29     C29    -0.7329   -4.0941    2.4200 C.3      1 ZINC000012466434    0.1400
30     O30    -0.6143   -4.7173    3.7004 O.3      1 ZINC000012466434   -0.5400
31     H31     0.4985    1.7225   -0.0070 H        1 ZINC000012466434    0.4000
32     H32    -0.1654   -0.2589   -2.1561 H        1 ZINC000012466434    0.1400
33     H33    -0.0434   -2.6917   -2.2324 H        1 ZINC000012466434    0.1400
34     H34    -1.0260   -4.7786   -0.5077 H        1 ZINC000012466434    0.1300
35     H35     0.7410   -4.8134   -0.6073 H        1 ZINC000012466434    0.1000
36     H36     1.1050   -5.0734    3.8704 H        1 ZINC000012466434    0.1700
37     H37     0.6936   -6.6333    3.1182 H        1 ZINC000012466434    0.1200
38     H38     3.2564   -6.8051    2.5336 H        1 ZINC000012466434    0.1100
39     H39     4.4604   -4.8381    3.3667 H        1 ZINC000012466434    0.0800
40     H40     3.1764   -4.4940    4.6052 H        1 ZINC000012466434    0.0900
41     H41     5.1134   -6.9167    4.4891 H        1 ZINC000012466434    0.0900
42     H42     4.4318   -6.1022    5.9632 H        1 ZINC000012466434    0.0800
43     H43     2.1581   -6.8501    5.4364 H        1 ZINC000012466434    0.0900
44     H44     3.0152   -8.1821    4.5464 H        1 ZINC000012466434    0.0800
45     H45     3.1022   -4.0456    2.1553 H        1 ZINC000012466434    0.1400
46     H46     2.0487   -3.3897    0.8840 H        1 ZINC000012466434    0.1300
47     H47     1.4358   -3.4115    3.8788 H        1 ZINC000012466434    0.1100
48     H48     1.9075   -1.9874    2.9136 H        1 ZINC000012466434    0.1200
49     H49    -3.6948   -0.9611    4.4512 H        1 ZINC000012466434    0.3900
50     H50    -2.7290   -3.5245    4.1350 H        1 ZINC000012466434    0.0900
51     H51    -3.9506   -2.9364    2.9896 H        1 ZINC000012466434    0.0900
52     H52    -2.7697   -4.8664    2.0353 H        1 ZINC000012466434    0.0900
53     H53    -2.3609   -3.3971    1.1100 H        1 ZINC000012466434    0.0900
54     H54    -1.0327   -5.5874    3.7546 H        1 ZINC000012466434    0.3900
@<TRIPOS>BOND
1     1     2     1
2     1     31    1
3     2     20    ar
4     2     3     ar
5     3     4     ar
6     3     32    1
7     4     5     ar
8     4     33    1
9     5     19    ar
10    5     6     1
11    6     7     1
12    6     34    1
13    6     35    1
14    7     8     1
15    7     29    1
16    7     9     1
17    9     10    1
18    9     11    1
19    9     16    1
20    11    12    1
21    11    36    1
22    11    37    1
23    12    15    1
24    12    13    1
25    12    38    1
26    13    14    1
27    13    39    1
28    13    40    1
29    14    15    1
30    14    41    1
31    14    42    1
32    15    43    1
33    15    44    1
34    16    17    1
35    16    45    1
36    16    46    1
37    17    18    1
38    17    47    1
39    17    48    1
40    18    22    1
41    18    29    1
42    18    19    1
43    19    20    ar
44    20    21    1
45    21    22    1
46    22    23    1
47    22    24    1
48    24    25    1
49    24    26    1
50    24    27    1
51    26    49    1
52    27    28    1
53    27    50    1
54    27    51    1
55    28    29    1
56    28    52    1
57    28    53    1
58    29    30    1
59    30    54    1
@<TRIPOS>SUBSTRUCTURE
1   ZINC000012466434 1     RESIDUE    1   A     ZIN   1
