@<TRIPOS>MOLECULE
ZINC000004626670
  43   46    0    0    0
SMALL
USER_CHARGES
NO_NAME
@<TRIPOS>ATOM
    1 C1       -0.0173     1.4248     0.0099 C.3    1 <0>       0.0200
    2 O2        0.0021    -0.0041     0.0020 O.3    1 <0>      -0.3000
    3 C3       -1.1988    -0.6367     0.0101 C.ar   1 <0>       0.1900
    4 C4       -2.3919     0.0841     0.0195 C.ar   1 <0>      -0.2600
    5 C5       -3.5886    -0.6029     0.0269 C.ar   1 <0>       0.1400
    6 N6       -3.6158    -1.9223     0.0239 N.ar   1 <0>      -0.5000
    7 C7       -2.5027    -2.6374     0.0147 C.ar   1 <0>       0.1900
    8 C8       -1.2791    -2.0267     0.0034 C.ar   1 <0>      -0.1500
    9 C9       -0.0110    -2.8527     0.0016 C.3    1 <0>      -0.0700
   10 C10       0.1295    -3.5217    -1.3686 C.3    1 <0>      -0.1200
   11 C11      -0.6432    -4.8252    -1.4147 C.3    1 <0>      -0.1400
   12 C12      -2.1493    -4.6631    -1.3565 C.3    1 <0>      -0.0900
   13 C13      -2.5932    -4.1502     0.0086 C.3    1 <0>      -0.3700
   14 H14      -3.6223    -4.4558     0.1978 H      1 <0>       0.1200
   15 S15      -1.5098    -4.8276     1.2961 S.o    1 <0>       1.4200
   16 O16      -1.8480    -6.1874     1.5326 O.2    1 <0>      -0.8500
   17 C17      -2.0752    -4.0189     2.7559 C.2    1 <0>      -0.0700
   18 N18      -1.6231    -2.8832     3.2014 N.2    1 <0>      -0.4100
   19 C19      -2.2760    -2.5484     4.3439 C.ar   1 <0>       0.0300
   20 C20      -2.1925    -1.4623     5.2186 C.ar   1 <0>      -0.0500
   21 C21      -3.0060    -1.4070     6.3150 C.ar   1 <0>      -0.1300
   22 C22      -3.9179    -2.4205     6.5715 C.ar   1 <0>      -0.0900
   23 C23      -4.0175    -3.5023     5.7222 C.ar   1 <0>      -0.1200
   24 C24      -3.1997    -3.5755     4.6033 C.ar   1 <0>       0.0600
   25 N25      -3.0522    -4.4882     3.5780 N.pl3  1 <0>      -0.5700
   26 H26       1.0053     1.8021     0.0021 H      1 <0>       0.1100
   27 H27      -0.5445     1.7859    -0.8732 H      1 <0>       0.0600
   28 H28      -0.5275     1.7763     0.9067 H      1 <0>       0.0600
   29 H29      -2.3798     1.1640     0.0214 H      1 <0>       0.1400
   30 H30      -4.5176    -0.0522     0.0356 H      1 <0>       0.1600
   31 H31       0.8476    -2.2064     0.1835 H      1 <0>       0.1000
   32 H32      -0.0698    -3.6159     0.7776 H      1 <0>       0.0600
   33 H33      -0.2545    -2.8501    -2.1365 H      1 <0>       0.0800
   34 H34       1.1830    -3.7224    -1.5632 H      1 <0>       0.0800
   35 H35      -0.3869    -5.3467    -2.3369 H      1 <0>       0.0900
   36 H36      -0.3291    -5.4432    -0.5735 H      1 <0>       0.0500
   37 H37      -2.4629    -3.9539    -2.1224 H      1 <0>       0.0800
   38 H38      -2.6208    -5.6271    -1.5479 H      1 <0>       0.0800
   39 H39      -1.4858    -0.6680     5.0287 H      1 <0>       0.1300
   40 H40      -2.9381    -0.5659     6.9891 H      1 <0>       0.1300
   41 H41      -4.5539    -2.3621     7.4424 H      1 <0>       0.1300
   42 H42      -4.7286    -4.2890     5.9268 H      1 <0>       0.1300
   43 H43      -3.5519    -5.3119     3.4653 H      1 <0>       0.4300
@<TRIPOS>BOND
   1    1    2 1
   2    1   26 1
   3    1   27 1
   4    1   28 1
   5    2    3 1
   6    3    8 ar
   7    3    4 ar
   8    4    5 ar
   9    4   29 1
  10    5    6 ar
  11    5   30 1
  12    6    7 ar
  13    7   13 1
  14    7    8 ar
  15    8    9 1
  16    9   10 1
  17    9   31 1
  18    9   32 1
  19   10   11 1
  20   10   33 1
  21   10   34 1
  22   11   12 1
  23   11   35 1
  24   11   36 1
  25   12   13 1
  26   12   37 1
  27   12   38 1
  28   13   14 1
  29   13   15 1
  30   15   16 2
  31   15   17 1
  32   17   25 1
  33   17   18 2
  34   18   19 1
  35   19   24 ar
  36   19   20 ar
  37   20   21 ar
  38   20   39 1
  39   21   22 ar
  40   21   40 1
  41   22   23 ar
  42   22   41 1
  43   23   24 ar
  44   23   42 1
  45   24   25 1
  46   25   43 1
