@<TRIPOS>MOLECULE
ZINC000002003883
62    64    1     0     0
SMALL
USER_CHARGES
@<TRIPOS>ATOM
1      C1      0.5431   -1.7592    1.2837 C.3      1 ZINC000002003883   -0.1500
2      C2     -0.5722   -1.7996    0.2372 C.3      1 ZINC000002003883    0.0500
3      N3     -1.2558   -0.4999    0.1996 N.3      1 ZINC000002003883   -0.5300
4      C4     -2.0755   -0.3710   -1.0126 C.3      1 ZINC000002003883    0.0800
5      C5     -1.1795   -0.3400   -2.2239 C.2      1 ZINC000002003883   -0.1100
6      C6     -1.3674   -1.2087   -3.2117 C.2      1 ZINC000002003883   -0.0600
7      C7     -0.5160   -1.1792   -4.3627 C.1      1 ZINC000002003883   -0.1500
8      C8      0.1819   -1.1551   -5.3064 C.1      1 ZINC000002003883   -0.1500
9      C9      1.0571   -1.1248   -6.4896 C.3      1 ZINC000002003883    0.0500
10     C10     0.6296   -2.2204   -7.4683 C.3      1 ZINC000002003883   -0.1400
11     C11     0.9456    0.2402   -7.1716 C.3      1 ZINC000002003883   -0.1400
12     C12     2.5057   -1.3628   -6.0586 C.3      1 ZINC000002003883   -0.1400
13     C13    -2.0666   -0.2964    1.4075 C.3      1 ZINC000002003883    0.0900
14     C14    -2.4345    1.1601    1.5261 C.ar     1 ZINC000002003883   -0.0400
15     C15    -1.5585    2.0474    2.1232 C.ar     1 ZINC000002003883   -0.1300
16     C16    -1.8931    3.3846    2.2335 C.ar     1 ZINC000002003883   -0.0800
17     C17    -3.1041    3.8370    1.7472 C.ar     1 ZINC000002003883   -0.2100
18     C18    -3.9852    2.9486    1.1475 C.ar     1 ZINC000002003883    0.1300
19     O19    -5.1771    3.3913    0.6678 O.3      1 ZINC000002003883   -0.3100
20     C20    -5.4582    4.7847    0.8145 C.3      1 ZINC000002003883    0.1400
21     C21    -6.8132    5.0882    0.2289 C.2      1 ZINC000002003883   -0.2000
22     C22    -7.9621    5.0522    0.9008 C.2      1 ZINC000002003883   -0.0900
23     C23    -9.0909    5.3716    0.1498 C.2      1 ZINC000002003883   -0.0500
24     C24   -10.4609    5.3856    0.7245 C.2      1 ZINC000002003883   -0.0400
25     C25   -10.7117    5.0967    2.0131 C.2      1 ZINC000002003883   -0.2100
26     S26   -12.4393    5.2188    2.3183 S.3      1 ZINC000002003883    0.1100
27     C27   -12.7389    5.6656    0.6445 C.2      1 ZINC000002003883   -0.2100
28     C28   -11.5897    5.7050   -0.0265 C.2      1 ZINC000002003883   -0.1300
29     C29    -8.8394    5.6661   -1.1375 C.2      1 ZINC000002003883   -0.2000
30     S30    -7.1112    5.5498   -1.4412 S.3      1 ZINC000002003883    0.1400
31     C31    -3.6447    1.6088    1.0330 C.ar     1 ZINC000002003883   -0.1500
32     H32     1.1125   -2.6878    1.2439 H        1 ZINC000002003883    0.0600
33     H33     1.2049   -0.9181    1.0772 H        1 ZINC000002003883    0.0600
34     H34     0.1066   -1.6430    2.2757 H        1 ZINC000002003883    0.0500
35     H35    -0.1440   -2.0134   -0.7421 H        1 ZINC000002003883    0.0800
36     H36    -1.2878   -2.5791    0.4988 H        1 ZINC000002003883    0.0400
37     H37    -2.7542   -1.2209   -1.0843 H        1 ZINC000002003883    0.0400
38     H38    -2.6531    0.5521   -0.9642 H        1 ZINC000002003883    0.0900
39     H39    -0.3847    0.3882   -2.2892 H        1 ZINC000002003883    0.1200
40     H40    -2.1623   -1.9369   -3.1464 H        1 ZINC000002003883    0.1300
41     H41    -0.4024   -2.0508   -7.7753 H        1 ZINC000002003883    0.0600
42     H42     1.2777   -2.1980   -8.3444 H        1 ZINC000002003883    0.0700
43     H43     0.7090   -3.1928   -6.9824 H        1 ZINC000002003883    0.0600
44     H44     1.2502    1.0207   -6.4743 H        1 ZINC000002003883    0.0600
45     H45     1.5937    0.2626   -8.0477 H        1 ZINC000002003883    0.0700
46     H46    -0.0864    0.4098   -7.4786 H        1 ZINC000002003883    0.0600
47     H47     2.5852   -2.3353   -5.5728 H        1 ZINC000002003883    0.0600
48     H48     3.1538   -1.3404   -6.9348 H        1 ZINC000002003883    0.0700
49     H49     2.8103   -0.5823   -5.3614 H        1 ZINC000002003883    0.0600
50     H50    -2.9743   -0.8962    1.3411 H        1 ZINC000002003883    0.0500
51     H51    -1.4945   -0.5992    2.2845 H        1 ZINC000002003883    0.0900
52     H52    -0.6112    1.6955    2.5044 H        1 ZINC000002003883    0.1200
53     H53    -1.2072    4.0757    2.7007 H        1 ZINC000002003883    0.1300
54     H54    -3.3652    4.8814    1.8339 H        1 ZINC000002003883    0.1300
55     H55    -5.4526    5.0471    1.8725 H        1 ZINC000002003883    0.0800
56     H56    -4.6982    5.3657    0.2921 H        1 ZINC000002003883    0.0800
57     H57    -8.0149    4.7947    1.9483 H        1 ZINC000002003883    0.1400
58     H58    -9.9667    4.8301    2.7482 H        1 ZINC000002003883    0.1700
59     H59   -13.7104    5.8796    0.2239 H        1 ZINC000002003883    0.1700
60     H60   -11.5373    5.9588   -1.0750 H        1 ZINC000002003883    0.1400
61     H61    -9.5840    5.9367   -1.8715 H        1 ZINC000002003883    0.1700
62     H62    -4.3288    0.9152    0.5666 H        1 ZINC000002003883    0.1300
@<TRIPOS>BOND
1     1     2     1
2     1     32    1
3     1     33    1
4     1     34    1
5     2     3     1
6     2     35    1
7     2     36    1
8     3     4     1
9     3     13    1
10    4     5     1
11    4     37    1
12    4     38    1
13    5     6     2
14    5     39    1
15    6     7     1
16    6     40    1
17    7     8     3
18    8     9     1
19    9     10    1
20    9     11    1
21    9     12    1
22    10    41    1
23    10    42    1
24    10    43    1
25    11    44    1
26    11    45    1
27    11    46    1
28    12    47    1
29    12    48    1
30    12    49    1
31    13    14    1
32    13    50    1
33    13    51    1
34    14    31    ar
35    14    15    ar
36    15    16    ar
37    15    52    1
38    16    17    ar
39    16    53    1
40    17    18    ar
41    17    54    1
42    18    19    1
43    18    31    ar
44    19    20    1
45    20    21    1
46    20    55    1
47    20    56    1
48    21    30    1
49    21    22    2
50    22    23    1
51    22    57    1
52    23    24    1
53    23    29    2
54    24    28    1
55    24    25    2
56    25    26    1
57    25    58    1
58    26    27    1
59    27    28    2
60    27    59    1
61    28    60    1
62    29    30    1
63    29    61    1
64    31    62    1
@<TRIPOS>SUBSTRUCTURE
1   ZINC000002003883 1     RESIDUE    1   A     ZIN   1
