@<TRIPOS>MOLECULE
ZINC000000005882
32    34    1     0     0
SMALL
USER_CHARGES
@<TRIPOS>ATOM
1      C1      0.1122    2.0571    0.6721 C.3      1 ZINC000000005882   -0.1700
2      C2      0.1044    0.5799    0.2736 C.3      1 ZINC000000005882    0.1200
3      N3      0.7594   -0.2112    1.3183 N.am     1 ZINC000000005882   -0.4300
4      N4      2.1357   -0.4266    1.2430 N.2      1 ZINC000000005882   -0.2200
5      C5      2.7891   -1.1220    2.1382 C.2      1 ZINC000000005882    0.1800
6      C6      4.2520   -1.3165    2.0050 C.ar     1 ZINC000000005882   -0.0900
7      C7      4.8345   -2.5526    2.3018 C.ar     1 ZINC000000005882   -0.0500
8      C8      6.2054   -2.6828    2.1608 C.ar     1 ZINC000000005882   -0.1700
9      C9      6.9481   -1.5968    1.7349 C.ar     1 ZINC000000005882    0.1100
10     N10     6.3707   -0.4422    1.4626 N.ar     1 ZINC000000005882   -0.4800
11     C11     5.0697   -0.2716    1.5761 C.ar     1 ZINC000000005882    0.1400
12     C12     2.0683   -1.7096    3.2768 C.ar     1 ZINC000000005882   -0.0500
13     C13     2.7234   -2.4570    4.2539 C.ar     1 ZINC000000005882   -0.1100
14     C14     2.0028   -2.9865    5.3022 C.ar     1 ZINC000000005882   -0.0900
15     C15     0.6325   -2.7837    5.3953 C.ar     1 ZINC000000005882   -0.1100
16     C16    -0.0355   -2.0481    4.4407 C.ar     1 ZINC000000005882   -0.0500
17     C17     0.6742   -1.5034    3.3719 C.ar     1 ZINC000000005882   -0.1200
18     C18     0.0157   -0.7061    2.3288 C.2      1 ZINC000000005882    0.5300
19     O19    -1.1838   -0.4991    2.3731 O.2      1 ZINC000000005882   -0.5200
20     H20     1.1413    2.3954    0.7926 H        1 ZINC000000005882    0.0600
21     H21    -0.3751    2.6456   -0.1052 H        1 ZINC000000005882    0.0800
22     H22    -0.4241    2.1825    1.6127 H        1 ZINC000000005882    0.0600
23     H23    -0.9247    0.2415    0.1530 H        1 ZINC000000005882    0.1000
24     H24     0.6407    0.4545   -0.6670 H        1 ZINC000000005882    0.1000
25     H25     4.2304   -3.3843    2.6330 H        1 ZINC000000005882    0.1400
26     H26     6.6899   -3.6225    2.3813 H        1 ZINC000000005882    0.1400
27     H27     8.0178   -1.6952    1.6239 H        1 ZINC000000005882    0.1600
28     H28     4.6335    0.6886    1.3436 H        1 ZINC000000005882    0.1600
29     H29     3.7890   -2.6203    4.1896 H        1 ZINC000000005882    0.1400
30     H30     2.5096   -3.5661    6.0596 H        1 ZINC000000005882    0.1400
31     H31     0.0846   -3.2070    6.2241 H        1 ZINC000000005882    0.1400
32     H32    -1.1016   -1.8945    4.5203 H        1 ZINC000000005882    0.1400
@<TRIPOS>BOND
1     1     2     1
2     1     20    1
3     1     21    1
4     1     22    1
5     2     3     1
6     2     23    1
7     2     24    1
8     3     18    am
9     3     4     1
10    4     5     2
11    5     6     1
12    5     12    1
13    6     11    ar
14    6     7     ar
15    7     8     ar
16    7     25    1
17    8     9     ar
18    8     26    1
19    9     10    ar
20    9     27    1
21    10    11    ar
22    11    28    1
23    12    17    ar
24    12    13    ar
25    13    14    ar
26    13    29    1
27    14    15    ar
28    14    30    1
29    15    16    ar
30    15    31    1
31    16    17    ar
32    16    32    1
33    17    18    1
34    18    19    2
@<TRIPOS>SUBSTRUCTURE
1   ZINC000000005882 1     RESIDUE    1   A     ZIN   1
