@<TRIPOS>MOLECULE
ZINC000000056973
36    37    1     0     0
SMALL
USER_CHARGES
@<TRIPOS>ATOM
1      C1     -0.0184    1.5028    0.0103 C.3      1 ZINC000000056973   -0.1200
2      C2      0.0021   -0.0041    0.0020 C.ar     1 ZINC000000056973   -0.0800
3      C3      0.0057   -0.6883   -1.1958 C.ar     1 ZINC000000056973   -0.1100
4      C4     -0.0119    0.0743   -2.4954 C.3      1 ZINC000000056973   -0.1100
5      C5      0.0261   -2.0794   -1.2093 C.ar     1 ZINC000000056973    0.1400
6      C6      0.0434   -2.7782   -0.0154 C.ar     1 ZINC000000056973   -0.1500
7      C7      0.0723   -4.2854    0.0126 C.3      1 ZINC000000056973   -0.0800
8      C8     -0.3618   -4.8351   -1.3484 C.3      1 ZINC000000056973   -0.1500
9      C9      0.4156   -4.0884   -2.4399 C.3      1 ZINC000000056973    0.1100
10     C10     1.9177   -4.2024   -2.1724 C.3      1 ZINC000000056973   -0.1800
11     C11     0.0888   -4.6895   -3.8083 C.3      1 ZINC000000056973   -0.1400
12     O12     0.0246   -2.7150   -2.4111 O.3      1 ZINC000000056973   -0.3000
13     C13     0.0373   -2.0903    1.1868 C.ar     1 ZINC000000056973   -0.0800
14     C14     0.0528   -2.8519    2.4871 C.3      1 ZINC000000056973   -0.1200
15     C15     0.0230   -0.7051    1.1989 C.ar     1 ZINC000000056973    0.0700
16     O16     0.0182   -0.0342    2.3816 O.3      1 ZINC000000056973   -0.4900
17     H17     1.0042    1.8801    0.0026 H        1 ZINC000000056973    0.0700
18     H18    -0.5455    1.8639   -0.8728 H        1 ZINC000000056973    0.0700
19     H19    -0.5286    1.8543    0.9071 H        1 ZINC000000056973    0.0700
20     H20     1.0114    0.2730   -2.8141 H        1 ZINC000000056973    0.0700
21     H21    -0.5212   -0.5167   -3.2566 H        1 ZINC000000056973    0.0700
22     H22    -0.5386    1.0183   -2.3556 H        1 ZINC000000056973    0.0700
23     H23     1.0841   -4.6246    0.2348 H        1 ZINC000000056973    0.0800
24     H24    -0.6081   -4.6469    0.7835 H        1 ZINC000000056973    0.0800
25     H25    -0.1388   -5.9007   -1.4023 H        1 ZINC000000056973    0.0800
26     H26    -1.4314   -4.6757   -1.4848 H        1 ZINC000000056973    0.0800
27     H27     2.2087   -5.2528   -2.1759 H        1 ZINC000000056973    0.0700
28     H28     2.4666   -3.6708   -2.9497 H        1 ZINC000000056973    0.0700
29     H29     2.1481   -3.7648   -1.2010 H        1 ZINC000000056973    0.0600
30     H30    -0.9804   -4.5981   -3.9994 H        1 ZINC000000056973    0.0700
31     H31     0.6428   -4.1565   -4.5810 H        1 ZINC000000056973    0.0700
32     H32     0.3711   -5.7423   -3.8195 H        1 ZINC000000056973    0.0800
33     H33     1.0841   -3.0204    2.7972 H        1 ZINC000000056973    0.0700
34     H34    -0.4670   -2.2752    3.2521 H        1 ZINC000000056973    0.0700
35     H35    -0.4474   -3.8109    2.3524 H        1 ZINC000000056973    0.0700
36     H36     0.9001    0.1691    2.7221 H        1 ZINC000000056973    0.3800
@<TRIPOS>BOND
1     1     2     1
2     1     17    1
3     1     18    1
4     1     19    1
5     2     15    ar
6     2     3     ar
7     3     4     1
8     3     5     ar
9     4     20    1
10    4     21    1
11    4     22    1
12    5     12    1
13    5     6     ar
14    6     7     1
15    6     13    ar
16    7     8     1
17    7     23    1
18    7     24    1
19    8     9     1
20    8     25    1
21    8     26    1
22    9     10    1
23    9     11    1
24    9     12    1
25    10    27    1
26    10    28    1
27    10    29    1
28    11    30    1
29    11    31    1
30    11    32    1
31    13    14    1
32    13    15    ar
33    14    33    1
34    14    34    1
35    14    35    1
36    15    16    1
37    16    36    1
@<TRIPOS>SUBSTRUCTURE
1   ZINC000000056973 1     RESIDUE    1   A     ZIN   1
