@<TRIPOS>MOLECULE
ZINC000000002071
  31   32    0    0    0
SMALL
USER_CHARGES
NO_NAME
@<TRIPOS>ATOM
    1 C1       -0.0184     1.5028     0.0103 C.3    1 <0>      -0.0800
    2 C2        0.0021    -0.0041     0.0020 C.2    1 <0>      -0.0200
    3 C3       -1.0713    -0.8268     0.0024 C.2    1 <0>      -0.2300
    4 C4       -0.5046    -2.1292    -0.0078 C.2    1 <0>       0.2400
    5 N5       -1.1930    -3.3416    -0.0119 N.am   1 <0>      -0.6300
    6 C6       -2.5408    -3.3512    -0.0060 C.2    1 <0>       0.5800
    7 O7       -3.1560    -2.3030     0.0028 O.2    1 <0>      -0.5000
    8 C8       -3.2706    -4.6365    -0.0104 C.ar   1 <0>      -0.1400
    9 C9       -3.6165    -5.2504     1.1947 C.ar   1 <0>      -0.0400
   10 C10      -3.2471    -4.6039     2.5049 C.3    1 <0>      -0.1200
   11 C11      -4.2977    -6.4500     1.1835 C.ar   1 <0>      -0.1300
   12 C12      -4.6380    -7.0446    -0.0185 C.ar   1 <0>      -0.0900
   13 C13      -4.2982    -6.4415    -1.2165 C.ar   1 <0>      -0.1300
   14 C14      -3.6221    -5.2390    -1.2196 C.ar   1 <0>      -0.0400
   15 C15      -3.2528    -4.5836    -2.5253 C.3    1 <0>      -0.1200
   16 N16       0.7921    -1.9629    -0.0130 N.2    1 <0>      -0.3900
   17 O17       1.0880    -0.7906    -0.0130 O.3    1 <0>       0.1000
   18 H18       1.0042     1.8801     0.0026 H      1 <0>       0.0900
   19 H19      -0.5455     1.8639    -0.8728 H      1 <0>       0.0900
   20 H20      -0.5286     1.8543     0.9071 H      1 <0>       0.0900
   21 H21      -2.1168    -0.5563     0.0092 H      1 <0>       0.1900
   22 H22      -0.7021    -4.1781    -0.0190 H      1 <0>       0.4200
   23 H23      -4.0518    -3.9409     2.8225 H      1 <0>       0.0800
   24 H24      -3.0923    -5.3749     3.2596 H      1 <0>       0.0800
   25 H25      -2.3299    -4.0282     2.3801 H      1 <0>       0.0600
   26 H26      -4.5656    -6.9261     2.1151 H      1 <0>       0.1300
   27 H27      -5.1709    -7.9840    -0.0217 H      1 <0>       0.1300
   28 H28      -4.5665    -6.9111    -2.1514 H      1 <0>       0.1300
   29 H29      -4.0595    -3.9219    -2.8407 H      1 <0>       0.0800
   30 H30      -2.3381    -4.0051    -2.3956 H      1 <0>       0.0600
   31 H31      -3.0936    -5.3497    -3.2842 H      1 <0>       0.0800
@<TRIPOS>BOND
   1    1    2 1
   2    1   18 1
   3    1   19 1
   4    1   20 1
   5    2   17 1
   6    2    3 2
   7    3    4 1
   8    3   21 1
   9    4    5 1
  10    4   16 2
  11    5    6 am
  12    5   22 1
  13    6    7 2
  14    6    8 1
  15    8   14 ar
  16    8    9 ar
  17    9   10 1
  18    9   11 ar
  19   10   23 1
  20   10   24 1
  21   10   25 1
  22   11   12 ar
  23   11   26 1
  24   12   13 ar
  25   12   27 1
  26   13   14 ar
  27   13   28 1
  28   14   15 1
  29   15   29 1
  30   15   30 1
  31   15   31 1
  32   16   17 1
