@<TRIPOS>MOLECULE
ZINC000003777328
63    64    1     0     0
SMALL
USER_CHARGES
@<TRIPOS>ATOM
1      C1      0.8687   -0.8405    0.8918 C.3      1 ZINC000003777328    0.0200
2      N2      0.0115   -0.0280    0.0184 N.3      1 ZINC000003777328   -0.6600
3      C3     -1.3336   -0.6090   -0.0875 C.3      1 ZINC000003777328    0.0800
4      H4     -1.2618   -1.6966   -0.0725 H        1 ZINC000003777328    0.1000
5      C5     -1.9820   -0.1587   -1.3981 C.3      1 ZINC000003777328   -0.0600
6      C6     -1.2100   -0.7261   -2.5614 C.ar     1 ZINC000003777328   -0.0700
7      C7     -0.1543   -0.0162   -3.1024 C.ar     1 ZINC000003777328   -0.0900
8      C8      0.5538   -0.5366   -4.1694 C.ar     1 ZINC000003777328   -0.1200
9      C9      0.2067   -1.7670   -4.6951 C.ar     1 ZINC000003777328   -0.1200
10     C10    -0.8484   -2.4773   -4.1535 C.ar     1 ZINC000003777328   -0.1200
11     C11    -1.5538   -1.9588   -3.0837 C.ar     1 ZINC000003777328   -0.1200
12     C12    -2.1740   -0.1450    1.0742 C.2      1 ZINC000003777328    0.5200
13     O13    -1.9226    0.9071    1.6226 O.2      1 ZINC000003777328   -0.5300
14     N14    -3.2052   -0.8992    1.5036 N.am     1 ZINC000003777328   -0.6000
15     C15    -3.6163   -2.1960    0.9355 C.3      1 ZINC000003777328    0.1000
16     C16    -4.3659   -2.9132    2.0860 C.3      1 ZINC000003777328   -0.1300
17     C17    -5.1091   -1.7292    2.7592 C.3      1 ZINC000003777328   -0.1300
18     C18    -4.1024   -0.5680    2.6202 C.3      1 ZINC000003777328    0.1200
19     H19    -4.6331    0.3584    2.4005 H        1 ZINC000003777328    0.1000
20     C20    -3.3149   -0.4170    3.8961 C.2      1 ZINC000003777328    0.5200
21     O21    -2.1106   -0.5608    3.8861 O.2      1 ZINC000003777328   -0.5100
22     N22    -3.9487   -0.1220    5.0484 N.am     1 ZINC000003777328   -0.7200
23     C23    -3.1831    0.0248    6.2888 C.3      1 ZINC000003777328    0.0800
24     H24    -2.2143    0.4723    6.0669 H        1 ZINC000003777328    0.1200
25     C25    -2.9788   -1.3300    6.9163 C.2      1 ZINC000003777328    0.3300
26     O26    -3.4265   -2.3164    6.3825 O.2      1 ZINC000003777328   -0.4300
27     C27    -3.9509    0.9254    7.2584 C.3      1 ZINC000003777328   -0.1200
28     C28    -4.0499    2.3362    6.6745 C.3      1 ZINC000003777328   -0.1300
29     C29    -4.8176    3.2368    7.6441 C.3      1 ZINC000003777328    0.0900
30     N30    -4.9124    4.5876    7.0850 N.pl3    1 ZINC000003777328   -0.6900
31     C31    -5.5600    5.5717    7.7801 C.cat    1 ZINC000003777328    0.7400
32     N32    -6.1046    5.3018    8.9654 N.pl3    1 ZINC000003777328   -0.7900
33     N33    -5.6462    6.7998    7.2718 N.pl3    1 ZINC000003777328   -0.7900
34     H34    -5.2496    6.9963    6.4086 H        1 ZINC000003777328    0.4400
35     H35    -6.1055    7.4976    7.7647 H        1 ZINC000003777328    0.4400
36     H36     1.8805   -0.4351    0.8870 H        1 ZINC000003777328    0.0700
37     H37     0.4744   -0.8212    1.9078 H        1 ZINC000003777328    0.0300
38     H38     0.8873   -1.8681    0.5287 H        1 ZINC000003777328    0.0600
39     H39    -0.0316    0.9271    0.3409 H        1 ZINC000003777328    0.3500
40     H40    -3.0110   -0.5162   -1.4360 H        1 ZINC000003777328    0.0800
41     H41    -1.9733    0.9299   -1.4525 H        1 ZINC000003777328    0.0800
42     H42     0.1169    0.9451   -2.6916 H        1 ZINC000003777328    0.1200
43     H43     1.3781    0.0183   -4.5926 H        1 ZINC000003777328    0.1200
44     H44     0.7595   -2.1733   -5.5293 H        1 ZINC000003777328    0.1200
45     H45    -1.1198   -3.4385   -4.5645 H        1 ZINC000003777328    0.1200
46     H46    -2.3781   -2.5138   -2.6606 H        1 ZINC000003777328    0.1200
47     H47    -4.2818   -2.0441    0.0858 H        1 ZINC000003777328    0.0800
48     H48    -2.7416   -2.7729    0.6350 H        1 ZINC000003777328    0.0800
49     H49    -5.0717   -3.6461    1.6953 H        1 ZINC000003777328    0.0900
50     H50    -3.6647   -3.3788    2.7786 H        1 ZINC000003777328    0.0800
51     H51    -6.0363   -1.5058    2.2314 H        1 ZINC000003777328    0.0900
52     H52    -5.3042   -1.9437    3.8099 H        1 ZINC000003777328    0.0900
53     H53    -4.9118   -0.0069    5.0564 H        1 ZINC000003777328    0.4000
54     H54    -2.4320   -1.4188    7.8434 H        1 ZINC000003777328    0.1100
55     H55    -4.9528    0.5243    7.4110 H        1 ZINC000003777328    0.0800
56     H56    -3.4255    0.9632    8.2127 H        1 ZINC000003777328    0.1000
57     H57    -3.0479    2.7373    6.5219 H        1 ZINC000003777328    0.0900
58     H58    -4.5753    2.2984    5.7202 H        1 ZINC000003777328    0.0800
59     H59    -5.8196    2.8356    7.7967 H        1 ZINC000003777328    0.0900
60     H60    -4.2922    3.2746    8.5984 H        1 ZINC000003777328    0.0900
61     H61    -4.5158    4.7841    6.2219 H        1 ZINC000003777328    0.4400
62     H62    -6.0418    4.4074    9.3356 H        1 ZINC000003777328    0.4400
63     H63    -6.5638    5.9996    9.4583 H        1 ZINC000003777328    0.4400
@<TRIPOS>BOND
1     1     2     1
2     1     36    1
3     1     37    1
4     1     38    1
5     2     3     1
6     2     39    1
7     3     4     1
8     3     5     1
9     3     12    1
10    5     6     1
11    5     40    1
12    5     41    1
13    6     11    ar
14    6     7     ar
15    7     8     ar
16    7     42    1
17    8     9     ar
18    8     43    1
19    9     10    ar
20    9     44    1
21    10    11    ar
22    10    45    1
23    11    46    1
24    12    13    2
25    12    14    am
26    14    18    1
27    14    15    1
28    15    16    1
29    15    47    1
30    15    48    1
31    16    17    1
32    16    49    1
33    16    50    1
34    17    18    1
35    17    51    1
36    17    52    1
37    18    19    1
38    18    20    1
39    20    21    2
40    20    22    am
41    22    23    1
42    22    53    1
43    23    24    1
44    23    25    1
45    23    27    1
46    25    26    2
47    25    54    1
48    27    28    1
49    27    55    1
50    27    56    1
51    28    29    1
52    28    57    1
53    28    58    1
54    29    30    1
55    29    59    1
56    29    60    1
57    30    31    ar
58    30    61    1
59    31    32    ar
60    31    33    ar
61    32    62    1
62    32    63    1
63    33    34    1
64    33    35    1
@<TRIPOS>SUBSTRUCTURE
1   ZINC000003777328 1     RESIDUE    1   A     ZIN   1
