@<TRIPOS>MOLECULE
ZINC000017142919
29    30    1     0     0
SMALL
USER_CHARGES
@<TRIPOS>ATOM
1      N1     -0.0166    1.3715    0.0096 N.pl3    1 ZINC000017142919   -0.8100
2      C2      0.0021   -0.0041    0.0020 C.2      1 ZINC000017142919    0.5300
3      N3     -1.1354   -0.6866    0.0037 N.2      1 ZINC000017142919   -0.6000
4      C4     -1.1294   -2.0184   -0.0035 C.2      1 ZINC000017142919    0.6700
5      O5     -2.1890   -2.6231   -0.0021 O.2      1 ZINC000017142919   -0.5100
6      N6      0.0260   -2.7081   -0.0127 N.am     1 ZINC000017142919   -0.5300
7      C7      0.0002   -4.1729   -0.0205 C.3      1 ZINC000017142919    0.2700
8      H8      1.0131   -4.5607   -0.1292 H        1 ZINC000017142919    0.1300
9      O9     -0.8214   -4.6416   -1.1029 O.3      1 ZINC000017142919   -0.3300
10     C10    -1.4650   -5.8520   -0.6500 C.3      1 ZINC000017142919    0.1000
11     H11    -0.7752   -6.6946   -0.6980 H        1 ZINC000017142919    0.1000
12     C12    -2.7197   -6.1373   -1.4779 C.3      1 ZINC000017142919    0.0900
13     O13    -2.3441   -6.4395   -2.8231 O.3      1 ZINC000017142919   -0.5700
14     C14    -1.8378   -5.5348    0.8206 C.3      1 ZINC000017142919    0.0600
15     H15    -2.7583   -4.9533    0.8718 H        1 ZINC000017142919    0.1100
16     O16    -1.9523   -6.7350    1.5879 O.3      1 ZINC000017142919   -0.5500
17     C17    -0.6221   -4.6930    1.2898 C.3      1 ZINC000017142919    0.0200
18     H18     0.0882   -5.3176    1.8315 H        1 ZINC000017142919    0.1200
19     F19    -1.0448   -3.6266    2.0906 F        1 ZINC000017142919   -0.1800
20     C20     1.2201   -2.0510   -0.0153 C.2      1 ZINC000017142919    0.2500
21     C21     1.2306   -0.6966   -0.0134 C.2      1 ZINC000017142919   -0.3000
22     I22     3.0436    0.3531   -0.0173 I        1 ZINC000017142919    0.0100
23     H23     0.8168    1.8679    0.0043 H        1 ZINC000017142919    0.4100
24     H24    -0.8631    1.8450    0.0162 H        1 ZINC000017142919    0.4200
25     H25    -3.2521   -6.9865   -1.0498 H        1 ZINC000017142919    0.0700
26     H26    -3.3674   -5.2607   -1.4697 H        1 ZINC000017142919    0.0600
27     H27    -3.0912   -6.6313   -3.4064 H        1 ZINC000017142919    0.3900
28     H28    -2.1843   -6.5883    2.5151 H        1 ZINC000017142919    0.3900
29     H29     2.1477   -2.6042   -0.0231 H        1 ZINC000017142919    0.1800
@<TRIPOS>BOND
1     1     2     1
2     1     23    1
3     1     24    1
4     2     21    1
5     2     3     2
6     3     4     1
7     4     5     2
8     4     6     am
9     6     7     1
10    6     20    1
11    7     8     1
12    7     17    1
13    7     9     1
14    9     10    1
15    10    11    1
16    10    12    1
17    10    14    1
18    12    13    1
19    12    25    1
20    12    26    1
21    13    27    1
22    14    15    1
23    14    16    1
24    14    17    1
25    16    28    1
26    17    18    1
27    17    19    1
28    20    21    2
29    20    29    1
30    21    22    1
@<TRIPOS>SUBSTRUCTURE
1   ZINC000017142919 1     RESIDUE    1   A     ZIN   1
