@<TRIPOS>MOLECULE
ZINC000002029729
24    23    1     0     0
SMALL
USER_CHARGES
@<TRIPOS>ATOM
1      C1     -0.0178    1.4608    0.0101 C.3      1 ZINC000002029729    0.0600
2      N2      0.0021   -0.0041    0.0020 N.pl3    1 ZINC000002029729   -0.5800
3      C3      0.0241   -0.7433    1.2666 C.3      1 ZINC000002029729    0.1000
4      C4     -1.4105   -1.0203    1.7205 C.3      1 ZINC000002029729    0.1000
5      O5     -2.0465   -1.8923    0.7840 O.3      1 ZINC000002029729   -0.7700
6      P6     -3.5672   -2.3953    0.9470 P.3      1 ZINC000002029729    2.2000
7      O7     -4.5020   -1.1730    1.0849 O.2      1 ZINC000002029729   -1.1000
8      O8     -3.6849   -3.2786    2.2091 O.3      1 ZINC000002029729   -1.1000
9      O9     -3.9910   -3.2517   -0.3488 O.3      1 ZINC000002029729   -0.9000
10     C10     0.0000   -0.6816   -1.1863 C.cat    1 ZINC000002029729    0.7400
11     N11    -0.0200   -0.0095   -2.3361 N.pl3    1 ZINC000002029729   -0.8100
12     N12     0.0181   -2.0134   -1.1936 N.pl3    1 ZINC000002029729   -0.7800
13     H13     0.0167   -2.4938   -2.0363 H        1 ZINC000002029729    0.4300
14     H14     0.0327   -2.5028   -0.3563 H        1 ZINC000002029729    0.4400
15     H15     1.0048    1.8381    0.0023 H        1 ZINC000002029729    0.0900
16     H16    -0.5450    1.8219   -0.8730 H        1 ZINC000002029729    0.0800
17     H17    -0.5280    1.8123    0.9069 H        1 ZINC000002029729    0.1100
18     H18     0.5496   -1.6879    1.1262 H        1 ZINC000002029729    0.1000
19     H19     0.5371   -0.1514    2.0246 H        1 ZINC000002029729    0.1300
20     H20    -1.3961   -1.4911    2.7035 H        1 ZINC000002029729    0.0900
21     H21    -1.9619   -0.0816    1.7754 H        1 ZINC000002029729    0.0700
22     H22    -4.8973   -3.5875   -0.3191 H        1 ZINC000002029729    0.4200
23     H23    -0.0332    0.9604   -2.3307 H        1 ZINC000002029729    0.4300
24     H24    -0.0214   -0.4899   -3.1787 H        1 ZINC000002029729    0.4300
@<TRIPOS>BOND
1     1     2     1
2     1     15    1
3     1     16    1
4     1     17    1
5     2     3     1
6     2     10    ar
7     3     4     1
8     3     18    1
9     3     19    1
10    4     5     1
11    4     20    1
12    4     21    1
13    5     6     1
14    6     7     2
15    6     8     1
16    6     9     1
17    9     22    1
18    10    11    ar
19    10    12    ar
20    11    23    1
21    11    24    1
22    12    13    1
23    12    14    1
@<TRIPOS>SUBSTRUCTURE
1   ZINC000002029729 1     RESIDUE    1   A     ZIN   1
