@<TRIPOS>MOLECULE
ZINC000014974583
38    40    1     0     0
SMALL
USER_CHARGES
@<TRIPOS>ATOM
1      C1     -0.2268    0.6753    1.2380 C.3      1 ZINC000014974583    0.0300
2      O2     -0.3277   -0.6954    0.8467 O.3      1 ZINC000014974583   -0.3200
3      C3     -1.5680   -1.1630    0.5541 C.ar     1 ZINC000014974583    0.2200
4      C4     -2.3734   -1.7190    1.5446 C.ar     1 ZINC000014974583   -0.1000
5      C5     -1.8817   -1.8121    2.9660 C.3      1 ZINC000014974583   -0.1300
6      C6     -3.6282   -2.1832    1.2068 C.ar     1 ZINC000014974583    0.1400
7      N7     -4.0663   -2.1049   -0.0354 N.ar     1 ZINC000014974583   -0.4300
8      H8     -4.9526   -2.4391   -0.2445 H        1 ZINC000014974583    0.4500
9      C9     -3.3329   -1.5845   -1.0013 C.ar     1 ZINC000014974583    0.1200
10     C10    -3.8847   -1.5198   -2.4021 C.3      1 ZINC000014974583    0.1400
11     N11    -3.4736   -2.7140   -3.1445 N.pl3    1 ZINC000014974583   -0.4900
12     C12    -2.4707   -2.7857   -4.0661 C.2      1 ZINC000014974583    0.2600
13     N13    -2.3762   -3.9977   -4.5292 N.2      1 ZINC000014974583   -0.4200
14     C14    -3.3106   -4.7821   -3.9362 C.ar     1 ZINC000014974583   -0.0900
15     C15    -3.6683   -6.1293   -4.0367 C.ar     1 ZINC000014974583    0.3400
16     Cl16   -2.8258   -7.1900   -5.1223 Cl       1 ZINC000014974583    0.0300
17     N17    -4.6612   -6.5804   -3.2878 N.ar     1 ZINC000014974583   -0.5500
18     C18    -5.3128   -5.7798   -2.4537 C.ar     1 ZINC000014974583    0.6200
19     N19    -6.3447   -6.3034   -1.6919 N.pl3    1 ZINC000014974583   -0.8000
20     N20    -5.0094   -4.4981   -2.3251 N.ar     1 ZINC000014974583   -0.5900
21     C21    -4.0232   -3.9666   -3.0357 C.ar     1 ZINC000014974583    0.3300
22     C22    -2.0697   -1.0936   -0.7434 C.ar     1 ZINC000014974583   -0.0800
23     C23    -1.2396   -0.5006   -1.8526 C.3      1 ZINC000014974583   -0.1300
24     H24     0.8157    0.9188    1.4428 H        1 ZINC000014974583    0.1200
25     H25    -0.5973    1.3110    0.4338 H        1 ZINC000014974583    0.0700
26     H26    -0.8218    0.8415    2.1360 H        1 ZINC000014974583    0.0600
27     H27    -2.1597   -0.9074    3.5067 H        1 ZINC000014974583    0.1000
28     H28    -2.3327   -2.6781    3.4506 H        1 ZINC000014974583    0.1000
29     H29    -0.7968   -1.9182    2.9690 H        1 ZINC000014974583    0.1000
30     H30    -4.2595   -2.6163    1.9685 H        1 ZINC000014974583    0.2200
31     H31    -4.9729   -1.4735   -2.3622 H        1 ZINC000014974583    0.1300
32     H32    -3.5013   -0.6308   -2.9030 H        1 ZINC000014974583    0.1600
33     H33    -1.8467   -1.9574   -4.3677 H        1 ZINC000014974583    0.2400
34     H34    -6.5803   -7.2408   -1.7732 H        1 ZINC000014974583    0.4300
35     H35    -6.8316   -5.7326   -1.0771 H        1 ZINC000014974583    0.4200
36     H36    -1.5084    0.5471   -1.9873 H        1 ZINC000014974583    0.1100
37     H37    -0.1830   -0.5743   -1.5950 H        1 ZINC000014974583    0.1100
38     H38    -1.4268   -1.0456   -2.7778 H        1 ZINC000014974583    0.0900
@<TRIPOS>BOND
1     1     2     1
2     1     24    1
3     1     25    1
4     1     26    1
5     2     3     1
6     3     22    ar
7     3     4     ar
8     4     5     1
9     4     6     ar
10    5     27    1
11    5     28    1
12    5     29    1
13    6     7     ar
14    6     30    1
15    7     8     1
16    7     9     ar
17    9     10    1
18    9     22    ar
19    10    11    1
20    10    31    1
21    10    32    1
22    11    21    1
23    11    12    1
24    12    13    2
25    12    33    1
26    13    14    1
27    14    21    ar
28    14    15    ar
29    15    16    1
30    15    17    ar
31    17    18    ar
32    18    19    1
33    18    20    ar
34    19    34    1
35    19    35    1
36    20    21    ar
37    22    23    1
38    23    36    1
39    23    37    1
40    23    38    1
@<TRIPOS>SUBSTRUCTURE
1   ZINC000014974583 1     RESIDUE    1   A     ZIN   1
