@<TRIPOS>MOLECULE
ZINC000030691787
54    57    1     0     0
SMALL
USER_CHARGES
@<TRIPOS>ATOM
1      C1     -0.0178    1.4608    0.0101 C.3      1 ZINC000030691787    0.0800
2      N2      0.0021   -0.0041    0.0020 N.am     1 ZINC000030691787   -0.7300
3      C3      0.5851   -0.6645   -1.0180 C.2      1 ZINC000030691787    0.5900
4      O4      1.0950   -0.0440   -1.9323 O.2      1 ZINC000030691787   -0.5200
5      C5      0.6050   -2.1314   -1.0260 C.2      1 ZINC000030691787   -0.2200
6      C6     -0.3405   -2.9799   -1.5781 C.2      1 ZINC000030691787    0.1400
7      C7     -1.5677   -2.5517   -2.2743 C.ar     1 ZINC000030691787   -0.0500
8      C8     -1.8507   -1.1912   -2.4248 C.ar     1 ZINC000030691787   -0.0600
9      C9     -2.9995   -0.7971   -3.0765 C.ar     1 ZINC000030691787   -0.1500
10     C10    -3.8735   -1.7471   -3.5824 C.ar     1 ZINC000030691787    0.1200
11     F11    -4.9977   -1.3548   -4.2206 F        1 ZINC000030691787   -0.1300
12     C12    -3.5983   -3.0981   -3.4363 C.ar     1 ZINC000030691787   -0.1500
13     C13    -2.4498   -3.5046   -2.7915 C.ar     1 ZINC000030691787   -0.0600
14     O14     0.0361   -4.2539   -1.3801 O.3      1 ZINC000030691787   -0.1700
15     C15     1.2068   -4.3240   -0.7119 C.ar     1 ZINC000030691787    0.0600
16     C16     1.9827   -5.3926   -0.2830 C.ar     1 ZINC000030691787   -0.1000
17     C17     3.1669   -5.1589    0.3973 C.ar     1 ZINC000030691787    0.1700
18     N18     3.9441   -6.2378    0.8268 N.am     1 ZINC000030691787   -0.9500
19     C19     4.9051   -6.8585   -0.0882 C.3      1 ZINC000030691787    0.1200
20     C20     6.2229   -6.0822   -0.0475 C.3      1 ZINC000030691787    0.0400
21     O21     6.8062   -6.2018    1.2515 O.3      1 ZINC000030691787   -0.5500
22     S22     3.7790   -6.8146    2.3703 S.o2     1 ZINC000030691787    2.6000
23     C23     2.4914   -8.0861    2.2430 C.3      1 ZINC000030691787   -0.6800
24     O24     5.0378   -7.4070    2.6596 O.2      1 ZINC000030691787   -0.9200
25     O25     3.3063   -5.6989    3.1127 O.2      1 ZINC000030691787   -0.9400
26     C26     3.5888   -3.8570    0.6558 C.ar     1 ZINC000030691787   -0.0300
27     C27     4.8793   -3.6175    1.3963 C.3      1 ZINC000030691787   -0.1400
28     C28     5.3923   -2.1781    1.4744 C.3      1 ZINC000030691787   -0.1800
29     C29     4.8037   -2.8490    2.7172 C.3      1 ZINC000030691787   -0.1500
30     C30     2.8287   -2.7879    0.2353 C.ar     1 ZINC000030691787   -0.0700
31     C31     1.6399   -3.0141   -0.4533 C.ar     1 ZINC000030691787   -0.0800
32     H32     1.0048    1.8381    0.0023 H        1 ZINC000030691787    0.0600
33     H33    -0.5450    1.8219   -0.8730 H        1 ZINC000030691787    0.0600
34     H34    -0.5280    1.8123    0.9069 H        1 ZINC000030691787    0.0800
35     H35    -0.4044   -0.4986    0.7308 H        1 ZINC000030691787    0.4100
36     H36    -1.1708   -0.4503   -2.0308 H        1 ZINC000030691787    0.1400
37     H37    -3.2194    0.2538   -3.1931 H        1 ZINC000030691787    0.1500
38     H38    -4.2829   -3.8335   -3.8324 H        1 ZINC000030691787    0.1500
39     H39    -2.2363   -4.5572   -2.6786 H        1 ZINC000030691787    0.1500
40     H40     1.6632   -6.4054   -0.4791 H        1 ZINC000030691787    0.1400
41     H41     5.0818   -7.8903    0.2155 H        1 ZINC000030691787    0.1000
42     H42     4.5047   -6.8417   -1.1019 H        1 ZINC000030691787    0.1000
43     H43     6.9073   -6.4888   -0.7920 H        1 ZINC000030691787    0.0600
44     H44     6.0323   -5.0312   -0.2648 H        1 ZINC000030691787    0.0600
45     H45     7.6463   -5.7331    1.3501 H        1 ZINC000030691787    0.3800
46     H46     2.8719   -8.9325    1.6711 H        1 ZINC000030691787    0.1300
47     H47     2.2100   -8.4195    3.2418 H        1 ZINC000030691787    0.1300
48     H48     1.6187   -7.6702    1.7394 H        1 ZINC000030691787    0.1300
49     H49     5.6206   -4.4128    1.3185 H        1 ZINC000030691787    0.1300
50     H50     6.4714   -2.0263    1.4479 H        1 ZINC000030691787    0.1000
51     H51     4.7964   -1.4045    0.9902 H        1 ZINC000030691787    0.1000
52     H52     3.8205   -2.5166    3.0505 H        1 ZINC000030691787    0.1000
53     H53     5.4954   -3.1385    3.5082 H        1 ZINC000030691787    0.1000
54     H54     3.1557   -1.7782    0.4353 H        1 ZINC000030691787    0.1400
@<TRIPOS>BOND
1     1     2     1
2     1     32    1
3     1     33    1
4     1     34    1
5     2     3     am
6     2     35    1
7     3     4     2
8     3     5     1
9     5     31    1
10    5     6     2
11    6     7     1
12    6     14    1
13    7     13    ar
14    7     8     ar
15    8     9     ar
16    8     36    1
17    9     10    ar
18    9     37    1
19    10    11    1
20    10    12    ar
21    12    13    ar
22    12    38    1
23    13    39    1
24    14    15    1
25    15    31    ar
26    15    16    ar
27    16    17    ar
28    16    40    1
29    17    18    1
30    17    26    ar
31    18    19    1
32    18    22    am
33    19    20    1
34    19    41    1
35    19    42    1
36    20    21    1
37    20    43    1
38    20    44    1
39    21    45    1
40    22    23    1
41    22    24    2
42    22    25    2
43    23    46    1
44    23    47    1
45    23    48    1
46    26    27    1
47    26    30    ar
48    27    29    1
49    27    28    1
50    27    49    1
51    28    29    1
52    28    50    1
53    28    51    1
54    29    52    1
55    29    53    1
56    30    31    ar
57    30    54    1
@<TRIPOS>SUBSTRUCTURE
1   ZINC000030691787 1     RESIDUE    1   A     ZIN   1
