@<TRIPOS>MOLECULE
ZINC000003954777
76    80    1     0     0
SMALL
USER_CHARGES
@<TRIPOS>ATOM
1      C1      2.0395   -0.1643    0.6955 C.3      1 ZINC000003954777    0.0600
2      N2      1.5454   -1.5199    0.4416 N.am     1 ZINC000003954777   -0.6100
3      C3      1.7505   -2.5731    1.4390 C.3      1 ZINC000003954777    0.1600
4      C4      0.5829   -2.5973    2.3914 C.ar     1 ZINC000003954777   -0.1100
5      C5      0.6080   -1.8219    3.5356 C.ar     1 ZINC000003954777   -0.1100
6      C6     -0.4630   -1.8442    4.4092 C.ar     1 ZINC000003954777   -0.1200
7      C7     -1.5594   -2.6414    4.1385 C.ar     1 ZINC000003954777   -0.1200
8      C8     -1.5849   -3.4161    2.9939 C.ar     1 ZINC000003954777   -0.1200
9      C9     -0.5157   -3.3907    2.1181 C.ar     1 ZINC000003954777   -0.0900
10     C10     0.9021   -1.7980   -0.7096 C.2      1 ZINC000003954777    0.5100
11     O11     0.4390   -2.9037   -0.8936 O.2      1 ZINC000003954777   -0.5200
12     C12     0.7582   -0.7351   -1.7682 C.3      1 ZINC000003954777    0.1400
13     H13     1.7188   -0.2438   -1.9227 H        1 ZINC000003954777    0.1100
14     C14    -0.2761    0.2978   -1.3164 C.3      1 ZINC000003954777   -0.0900
15     C15    -0.2993    1.4456   -2.2927 C.ar     1 ZINC000003954777   -0.0800
16     C16     0.5460    2.5348   -2.0914 C.ar     1 ZINC000003954777   -0.1100
17     C17     0.5500    3.5878   -2.9542 C.ar     1 ZINC000003954777   -0.1000
18     C18    -0.3098    3.5793   -4.0653 C.ar     1 ZINC000003954777   -0.0500
19     C19    -0.3337    4.6477   -4.9781 C.ar     1 ZINC000003954777   -0.1100
20     C20    -1.1797    4.6046   -6.0432 C.ar     1 ZINC000003954777   -0.1200
21     C21    -2.0253    3.5150   -6.2445 C.ar     1 ZINC000003954777   -0.1100
22     C22    -2.0297    2.4626   -5.3817 C.ar     1 ZINC000003954777   -0.1100
23     C23    -1.1698    2.4712   -4.2700 C.ar     1 ZINC000003954777   -0.0500
24     C24    -1.1417    1.4003   -3.3610 C.ar     1 ZINC000003954777   -0.0900
25     N25     0.3175   -1.3513   -3.0221 N.am     1 ZINC000003954777   -0.7000
26     C26     1.2232   -1.8857   -3.8651 C.2      1 ZINC000003954777    0.5200
27     O27     2.4030   -1.8565   -3.5855 O.2      1 ZINC000003954777   -0.5200
28     C28     0.7700   -2.5195   -5.1550 C.3      1 ZINC000003954777    0.1400
29     H29    -0.0205   -1.9190   -5.6052 H        1 ZINC000003954777    0.1000
30     C30     0.2541   -3.9486   -4.8847 C.3      1 ZINC000003954777   -0.1200
31     C31     0.7673   -4.7419   -6.1155 C.3      1 ZINC000003954777   -0.1300
32     C32     2.1330   -4.0595   -6.3780 C.3      1 ZINC000003954777    0.0900
33     N33     1.9044   -2.6298   -6.0836 N.am     1 ZINC000003954777   -0.6100
34     C34     2.6185   -1.6013   -6.5823 C.2      1 ZINC000003954777    0.7300
35     O35     2.3398   -0.4597   -6.2700 O.2      1 ZINC000003954777   -0.5600
36     N36     3.6416   -1.8381   -7.4271 N.am     1 ZINC000003954777   -0.6800
37     C37     4.4362   -0.7781   -7.8783 C.ar     1 ZINC000003954777    0.2400
38     C38     3.8503    0.4321   -8.2247 C.ar     1 ZINC000003954777   -0.1200
39     C39     4.6374    1.4766   -8.6693 C.ar     1 ZINC000003954777   -0.0500
40     C40     6.0072    1.3179   -8.7695 C.ar     1 ZINC000003954777   -0.1300
41     C41     6.5938    0.1137   -8.4253 C.ar     1 ZINC000003954777   -0.0400
42     C42     5.8130   -0.9326   -7.9751 C.ar     1 ZINC000003954777   -0.0800
43     N43     6.4417   -2.2210   -7.6064 N.pl3    1 ZINC000003954777    0.0400
44     O44     7.6528   -2.3427   -7.6517 O.2      1 ZINC000003954777   -0.1500
45     O45     5.7480   -3.1594   -7.2576 O.2      1 ZINC000003954777   -0.1800
46     H46     3.0231   -0.0450    0.2411 H        1 ZINC000003954777    0.0600
47     H47     1.3495    0.5607    0.2639 H        1 ZINC000003954777    0.0800
48     H48     2.1136   -0.0000    1.7705 H        1 ZINC000003954777    0.0800
49     H49     1.8306   -3.5377    0.9377 H        1 ZINC000003954777    0.0900
50     H50     2.6677   -2.3747    1.9936 H        1 ZINC000003954777    0.0900
51     H51     1.4646   -1.1991    3.7471 H        1 ZINC000003954777    0.1200
52     H52    -0.4431   -1.2389    5.3034 H        1 ZINC000003954777    0.1200
53     H53    -2.3959   -2.6593    4.8214 H        1 ZINC000003954777    0.1200
54     H54    -2.4413   -4.0393    2.7826 H        1 ZINC000003954777    0.1200
55     H55    -0.5356   -3.9959    1.2238 H        1 ZINC000003954777    0.1300
56     H56    -1.2613   -0.1670   -1.2787 H        1 ZINC000003954777    0.0900
57     H57    -0.0111    0.6683   -0.3262 H        1 ZINC000003954777    0.1000
58     H58     1.2077    2.5440   -1.2379 H        1 ZINC000003954777    0.1200
59     H59     1.2104    4.4255   -2.7853 H        1 ZINC000003954777    0.1300
60     H60     0.3157    5.4987   -4.8348 H        1 ZINC000003954777    0.1300
61     H61    -1.1962    5.4271   -6.7430 H        1 ZINC000003954777    0.1200
62     H62    -2.6873    3.5061   -7.0978 H        1 ZINC000003954777    0.1200
63     H63    -2.6907    1.6253   -5.5502 H        1 ZINC000003954777    0.1300
64     H64    -1.7879    0.5473   -3.5069 H        1 ZINC000003954777    0.1200
65     H65    -0.6261   -1.3746   -3.2457 H        1 ZINC000003954777    0.4000
66     H66     0.6823   -4.3455   -3.9642 H        1 ZINC000003954777    0.0900
67     H67    -0.8349   -3.9640   -4.8427 H        1 ZINC000003954777    0.1000
68     H68     0.8976   -5.7967   -5.8738 H        1 ZINC000003954777    0.0900
69     H69     0.0983   -4.6175   -6.9670 H        1 ZINC000003954777    0.0800
70     H70     2.8949   -4.4677   -5.7139 H        1 ZINC000003954777    0.0800
71     H71     2.4276   -4.1886   -7.4194 H        1 ZINC000003954777    0.0800
72     H72     3.8272   -2.7432   -7.7223 H        1 ZINC000003954777    0.4200
73     H73     2.7804    0.5566   -8.1470 H        1 ZINC000003954777    0.1600
74     H74     4.1823    2.4181   -8.9392 H        1 ZINC000003954777    0.1500
75     H75     6.6204    2.1359   -9.1178 H        1 ZINC000003954777    0.1500
76     H76     7.6640   -0.0073   -8.5050 H        1 ZINC000003954777    0.1600
@<TRIPOS>BOND
1     1     2     1
2     1     46    1
3     1     47    1
4     1     48    1
5     2     3     1
6     2     10    am
7     3     4     1
8     3     49    1
9     3     50    1
10    4     9     ar
11    4     5     ar
12    5     6     ar
13    5     51    1
14    6     7     ar
15    6     52    1
16    7     8     ar
17    7     53    1
18    8     9     ar
19    8     54    1
20    9     55    1
21    10    11    2
22    10    12    1
23    12    13    1
24    12    14    1
25    12    25    1
26    14    15    1
27    14    56    1
28    14    57    1
29    15    24    ar
30    15    16    ar
31    16    17    ar
32    16    58    1
33    17    18    ar
34    17    59    1
35    18    23    ar
36    18    19    ar
37    19    20    ar
38    19    60    1
39    20    21    ar
40    20    61    1
41    21    22    ar
42    21    62    1
43    22    23    ar
44    22    63    1
45    23    24    ar
46    24    64    1
47    25    26    am
48    25    65    1
49    26    27    2
50    26    28    1
51    28    29    1
52    28    33    1
53    28    30    1
54    30    31    1
55    30    66    1
56    30    67    1
57    31    32    1
58    31    68    1
59    31    69    1
60    32    33    1
61    32    70    1
62    32    71    1
63    33    34    am
64    34    35    2
65    34    36    am
66    36    37    1
67    36    72    1
68    37    42    ar
69    37    38    ar
70    38    39    ar
71    38    73    1
72    39    40    ar
73    39    74    1
74    40    41    ar
75    40    75    1
76    41    42    ar
77    41    76    1
78    42    43    1
79    43    44    2
80    43    45    2
@<TRIPOS>SUBSTRUCTURE
1   ZINC000003954777 1     RESIDUE    1   A     ZIN   1
