@<TRIPOS>MOLECULE
ZINC000059715991
66    70    1     0     0
SMALL
USER_CHARGES
@<TRIPOS>ATOM
1      C1     -0.0187    1.5258    0.0104 C.3      1 ZINC000059715991   -0.1900
2      C2      0.0021   -0.0041    0.0020 C.3      1 ZINC000059715991    0.1000
3      H3     -1.0205   -0.3814    0.0098 H        1 ZINC000059715991    0.0900
4      O4      0.6932   -0.4774    1.1597 O.3      1 ZINC000059715991   -0.2500
5      C5     -0.0504   -0.6992    2.2739 C.2      1 ZINC000059715991    0.2200
6      C6      0.4907   -1.1486    3.4532 C.2      1 ZINC000059715991   -0.3100
7      C7      1.8575   -1.4362    3.6674 C.2      1 ZINC000059715991    0.6000
8      N8      2.2733   -1.8732    4.8727 N.am     1 ZINC000059715991   -0.8600
9      O9      2.6601   -1.2890    2.7627 O.2      1 ZINC000059715991   -0.5200
10     S10    -0.7827   -1.3105    4.6553 S.3      1 ZINC000059715991    0.2100
11     C11    -1.9907   -0.7609    3.5024 C.2      1 ZINC000059715991    0.0900
12     N12    -3.3488   -0.6230    3.7744 N.pl3    1 ZINC000059715991   -0.4300
13     C13    -4.1201    0.4700    3.5095 C.2      1 ZINC000059715991    0.2800
14     N14    -5.3442    0.2563    3.8943 N.2      1 ZINC000059715991   -0.4700
15     C15    -5.4451   -0.9869    4.4325 C.ar     1 ZINC000059715991    0.0600
16     C16    -6.5021   -1.7118    4.9881 C.ar     1 ZINC000059715991   -0.0600
17     C17    -6.2830   -2.9857    5.4615 C.ar     1 ZINC000059715991   -0.1100
18     C18    -5.0202   -3.5560    5.3913 C.ar     1 ZINC000059715991   -0.0600
19     C19    -4.7993   -4.9520    5.9142 C.3      1 ZINC000059715991    0.1000
20     N20    -5.0299   -5.9213    4.8348 N.3      1 ZINC000059715991   -0.5300
21     C21    -6.2683   -5.6133    4.1060 C.3      1 ZINC000059715991    0.0500
22     C22    -6.4306   -6.5954    2.9434 C.3      1 ZINC000059715991    0.0600
23     N23    -6.4581   -7.9687    3.4658 N.3      1 ZINC000059715991   -0.5500
24     C24    -6.6887   -8.9381    2.3864 C.3      1 ZINC000059715991    0.0200
25     C25    -5.2197   -8.2767    4.1946 C.3      1 ZINC000059715991    0.0600
26     C26    -5.0574   -7.2946    5.3572 C.3      1 ZINC000059715991    0.0600
27     C27    -3.9658   -2.8541    4.8459 C.ar     1 ZINC000059715991   -0.0900
28     C28    -4.1693   -1.5715    4.3584 C.ar     1 ZINC000059715991    0.0500
29     C29    -1.4083   -0.4871    2.3186 C.2      1 ZINC000059715991   -0.2100
30     C30     0.7074   -0.4901   -1.2379 C.ar     1 ZINC000059715991   -0.0400
31     C31     2.0520   -0.8062   -1.1889 C.ar     1 ZINC000059715991   -0.0900
32     C32     2.6992   -1.2521   -2.3264 C.ar     1 ZINC000059715991   -0.0800
33     C33     2.0014   -1.3821   -3.5124 C.ar     1 ZINC000059715991   -0.1100
34     C34     0.6562   -1.0667   -3.5611 C.ar     1 ZINC000059715991   -0.0700
35     C35     0.0082   -0.6251   -2.4229 C.ar     1 ZINC000059715991   -0.1800
36     C36    -1.4581   -0.2814   -2.4760 C.3      1 ZINC000059715991    0.5100
37     F37    -1.9388   -0.4880   -3.7735 F        1 ZINC000059715991   -0.1700
38     F38    -2.1609   -1.0971   -1.5829 F        1 ZINC000059715991   -0.1800
39     F39    -1.6357    1.0601   -2.1210 F        1 ZINC000059715991   -0.1700
40     H40     1.0039    1.9031    0.0027 H        1 ZINC000059715991    0.0800
41     H41    -0.5459    1.8868   -0.8726 H        1 ZINC000059715991    0.1000
42     H42    -0.5289    1.8773    0.9072 H        1 ZINC000059715991    0.0700
43     H43     1.6343   -1.9904    5.5930 H        1 ZINC000059715991    0.4000
44     H44     3.2116   -2.0706    5.0197 H        1 ZINC000059715991    0.4100
45     H45    -3.7663    1.3801    3.0480 H        1 ZINC000059715991    0.2200
46     H46    -7.4878   -1.2742    5.0464 H        1 ZINC000059715991    0.1400
47     H47    -7.1005   -3.5455    5.8913 H        1 ZINC000059715991    0.1300
48     H48    -3.7752   -5.0469    6.2752 H        1 ZINC000059715991    0.0900
49     H49    -5.4926   -5.1474    6.7323 H        1 ZINC000059715991    0.0500
50     H50    -7.1196   -5.7045    4.7806 H        1 ZINC000059715991    0.0400
51     H51    -6.2186   -4.5958    3.7182 H        1 ZINC000059715991    0.0900
52     H52    -7.3631   -6.3871    2.4189 H        1 ZINC000059715991    0.0800
53     H53    -5.5931   -6.4851    2.2545 H        1 ZINC000059715991    0.0400
54     H54    -5.8882   -8.8599    1.6508 H        1 ZINC000059715991    0.0300
55     H55    -6.7044   -9.9462    2.8007 H        1 ZINC000059715991    0.0700
56     H56    -7.6446   -8.7273    1.9069 H        1 ZINC000059715991    0.0700
57     H57    -5.2695   -9.2942    4.5824 H        1 ZINC000059715991    0.0800
58     H58    -4.3685   -8.1855    3.5200 H        1 ZINC000059715991    0.0400
59     H59    -4.1249   -7.5029    5.8817 H        1 ZINC000059715991    0.0800
60     H60    -5.8949   -7.4049    6.0461 H        1 ZINC000059715991    0.0500
61     H61    -2.9852   -3.3037    4.7942 H        1 ZINC000059715991    0.1300
62     H62    -1.9680   -0.1336    1.4653 H        1 ZINC000059715991    0.1600
63     H63     2.5973   -0.7046   -0.2622 H        1 ZINC000059715991    0.1500
64     H64     3.7500   -1.4984   -2.2884 H        1 ZINC000059715991    0.1400
65     H65     2.5071   -1.7297   -4.4011 H        1 ZINC000059715991    0.1400
66     H66     0.1110   -1.1680   -4.4879 H        1 ZINC000059715991    0.1400
@<TRIPOS>BOND
1     1     2     1
2     1     40    1
3     1     41    1
4     1     42    1
5     2     3     1
6     2     4     1
7     2     30    1
8     4     5     1
9     5     29    1
10    5     6     2
11    6     7     1
12    6     10    1
13    7     8     am
14    7     9     2
15    8     43    1
16    8     44    1
17    10    11    1
18    11    12    1
19    11    29    2
20    12    28    1
21    12    13    1
22    13    14    2
23    13    45    1
24    14    15    1
25    15    28    ar
26    15    16    ar
27    16    17    ar
28    16    46    1
29    17    18    ar
30    17    47    1
31    18    19    1
32    18    27    ar
33    19    20    1
34    19    48    1
35    19    49    1
36    20    26    1
37    20    21    1
38    21    22    1
39    21    50    1
40    21    51    1
41    22    23    1
42    22    52    1
43    22    53    1
44    23    24    1
45    23    25    1
46    24    54    1
47    24    55    1
48    24    56    1
49    25    26    1
50    25    57    1
51    25    58    1
52    26    59    1
53    26    60    1
54    27    28    ar
55    27    61    1
56    29    62    1
57    30    35    ar
58    30    31    ar
59    31    32    ar
60    31    63    1
61    32    33    ar
62    32    64    1
63    33    34    ar
64    33    65    1
65    34    35    ar
66    34    66    1
67    35    36    1
68    36    37    1
69    36    38    1
70    36    39    1
@<TRIPOS>SUBSTRUCTURE
1   ZINC000059715991 1     RESIDUE    1   A     ZIN   1
