@<TRIPOS>MOLECULE
ZINC000034096099
36    37    1     0     0
SMALL
USER_CHARGES
@<TRIPOS>ATOM
1      C1      0.2305    0.7527    1.4930 C.3      1 ZINC000034096099   -0.1100
2      C2      0.1363   -0.5903    0.7660 C.3      1 ZINC000034096099   -0.1400
3      H3      0.6216   -0.5115   -0.2069 H        1 ZINC000034096099    0.0700
4      C4      0.8217   -1.6538    1.5846 C.2      1 ZINC000034096099    0.5000
5      O5      1.3376   -1.3646    2.6507 O.co2    1 ZINC000034096099   -0.6900
6      O6      0.8602   -2.8036    1.1808 O.co2    1 ZINC000034096099   -0.6900
7      C7     -1.3127   -0.9582    0.5762 C.ar     1 ZINC000034096099   -0.0100
8      C8     -2.1347   -1.1090    1.6797 C.ar     1 ZINC000034096099   -0.1200
9      C9     -3.4615   -1.4455    1.5148 C.ar     1 ZINC000034096099   -0.0500
10     C10    -3.9766   -1.6342    0.2275 C.ar     1 ZINC000034096099   -0.1000
11     C11    -5.3904   -1.9927    0.0424 C.2      1 ZINC000034096099    0.0200
12     C12    -6.3523   -1.3265    0.7230 C.2      1 ZINC000034096099   -0.2300
13     C13    -7.7232   -1.9342    0.8138 C.3      1 ZINC000034096099   -0.0700
14     C14    -8.5087   -1.2871    1.9556 C.3      1 ZINC000034096099   -0.1200
15     C15    -8.4421    0.2359    1.8008 C.3      1 ZINC000034096099   -0.1200
16     C16    -7.0189    0.7019    2.1116 C.3      1 ZINC000034096099   -0.1600
17     C17    -6.0278   -0.1017    1.3188 C.2      1 ZINC000034096099    0.3800
18     O18    -4.9019    0.3324    1.1822 O.2      1 ZINC000034096099   -0.4400
19     C19    -3.1389   -1.4794   -0.8827 C.ar     1 ZINC000034096099   -0.1000
20     C20    -1.8157   -1.1380   -0.7008 C.ar     1 ZINC000034096099   -0.1300
21     H21     1.2786    1.0188    1.6302 H        1 ZINC000034096099    0.0500
22     H22    -0.2652    1.5219    0.9009 H        1 ZINC000034096099    0.0300
23     H23    -0.2547    0.6740    2.4659 H        1 ZINC000034096099    0.0500
24     H24    -1.7356   -0.9630    2.6726 H        1 ZINC000034096099    0.1200
25     H25    -4.1014   -1.5634    2.3768 H        1 ZINC000034096099    0.1100
26     H26    -5.6615   -2.7876   -0.6367 H        1 ZINC000034096099    0.1300
27     H27    -8.2526   -1.7742   -0.1255 H        1 ZINC000034096099    0.0700
28     H28    -7.6328   -3.0047    0.9982 H        1 ZINC000034096099    0.0700
29     H29    -9.5480   -1.6133    1.9148 H        1 ZINC000034096099    0.0700
30     H30    -8.0703   -1.5767    2.9106 H        1 ZINC000034096099    0.0700
31     H31    -8.7014    0.5108    0.7784 H        1 ZINC000034096099    0.0700
32     H32    -9.1397    0.7045    2.4950 H        1 ZINC000034096099    0.0700
33     H33    -6.9198    1.7569    1.8560 H        1 ZINC000034096099    0.0900
34     H34    -6.8189    0.5690    3.1749 H        1 ZINC000034096099    0.0900
35     H35    -3.5289   -1.6233   -1.8795 H        1 ZINC000034096099    0.1100
36     H36    -1.1680   -1.0178   -1.5566 H        1 ZINC000034096099    0.1200
@<TRIPOS>BOND
1     1     2     1
2     1     21    1
3     1     22    1
4     1     23    1
5     2     3     1
6     2     4     1
7     2     7     1
8     4     5     ar
9     4     6     ar
10    7     20    ar
11    7     8     ar
12    8     9     ar
13    8     24    1
14    9     10    ar
15    9     25    1
16    10    11    1
17    10    19    ar
18    11    12    2
19    11    26    1
20    12    17    1
21    12    13    1
22    13    14    1
23    13    27    1
24    13    28    1
25    14    15    1
26    14    29    1
27    14    30    1
28    15    16    1
29    15    31    1
30    15    32    1
31    16    17    1
32    16    33    1
33    16    34    1
34    17    18    2
35    19    20    ar
36    19    35    1
37    20    36    1
@<TRIPOS>SUBSTRUCTURE
1   ZINC000034096099 1     RESIDUE    1   A     ZIN   1
