@<TRIPOS>MOLECULE
ZINC000002516061
38    40    1     0     0
SMALL
USER_CHARGES
@<TRIPOS>ATOM
1      C1      0.0296    1.4295   -0.0860 C.3      1 ZINC000002516061   -0.0500
2      N2      0.0341   -0.0392   -0.0541 N.4      1 ZINC000002516061   -0.3800
3      H3     -0.9237   -0.3564   -0.0457 H        1 ZINC000002516061    0.4100
4      C4      0.6616   -0.5188   -1.2724 C.3      1 ZINC000002516061   -0.0100
5      C5      0.4371   -2.0235   -1.4516 C.3      1 ZINC000002516061   -0.0900
6      C6      1.5173   -2.7579   -0.6832 C.ar     1 ZINC000002516061   -0.2500
7      C7      2.4953   -3.4545   -1.3686 C.ar     1 ZINC000002516061   -0.0200
8      C8      3.4802   -4.1234   -0.6641 C.ar     1 ZINC000002516061   -0.2200
9      Br9     4.8226   -5.0792   -1.5917 Br       1 ZINC000002516061   -0.0800
10     C10     3.4834   -4.0927    0.7235 C.ar     1 ZINC000002516061    0.2900
11     O11     4.4518   -4.7486    1.4159 O.3      1 ZINC000002516061   -0.6700
12     C12     2.4973   -3.3912    1.4037 C.ar     1 ZINC000002516061   -0.2400
13     C13     1.5180   -2.7273    0.6904 C.ar     1 ZINC000002516061   -0.0400
14     C14     0.4379   -1.9614    1.4274 C.3      1 ZINC000002516061   -0.0200
15     H15     0.4999   -2.1734    2.4948 H        1 ZINC000002516061    0.1300
16     C16    -0.9173   -2.3655    0.9067 C.ar     1 ZINC000002516061   -0.0900
17     C17    -1.0841   -3.5929    0.2929 C.ar     1 ZINC000002516061   -0.0800
18     C18    -2.3272   -3.9636   -0.1847 C.ar     1 ZINC000002516061   -0.1000
19     C19    -3.4037   -3.1071   -0.0481 C.ar     1 ZINC000002516061   -0.1200
20     C20    -3.2371   -1.8802    0.5665 C.ar     1 ZINC000002516061   -0.1100
21     C21    -1.9949   -1.5112    1.0479 C.ar     1 ZINC000002516061   -0.1800
22     C22     0.6653   -0.4654    1.1820 C.3      1 ZINC000002516061    0.0000
23     H23     1.0562    1.7958   -0.0956 H        1 ZINC000002516061    0.1200
24     H24    -0.4867    1.7718   -0.9829 H        1 ZINC000002516061    0.1200
25     H25    -0.4840    1.8105    0.7966 H        1 ZINC000002516061    0.1200
26     H26     0.2372    0.0104   -2.1256 H        1 ZINC000002516061    0.1200
27     H27     1.7322   -0.3199   -1.2256 H        1 ZINC000002516061    0.1300
28     H28    -0.5430   -2.2982   -1.0617 H        1 ZINC000002516061    0.1000
29     H29     0.4982   -2.2811   -2.5090 H        1 ZINC000002516061    0.1000
30     H30     2.4902   -3.4765   -2.4484 H        1 ZINC000002516061    0.1100
31     H31     2.4959   -3.3644    2.4834 H        1 ZINC000002516061    0.1100
32     H32    -0.2431   -4.2620    0.1863 H        1 ZINC000002516061    0.1400
33     H33    -2.4573   -4.9222   -0.6648 H        1 ZINC000002516061    0.1300
34     H34    -4.3747   -3.3965   -0.4219 H        1 ZINC000002516061    0.1300
35     H35    -4.0780   -1.2109    0.6729 H        1 ZINC000002516061    0.1300
36     H36    -1.8648   -0.5526    1.5281 H        1 ZINC000002516061    0.1200
37     H37     1.7364   -0.2706    1.1272 H        1 ZINC000002516061    0.1400
38     H38     0.2413    0.1016    2.0107 H        1 ZINC000002516061    0.1300
@<TRIPOS>BOND
1     1     2     1
2     1     23    1
3     1     24    1
4     1     25    1
5     2     3     1
6     2     22    1
7     2     4     1
8     4     5     1
9     4     26    1
10    4     27    1
11    5     6     1
12    5     28    1
13    5     29    1
14    6     13    ar
15    6     7     ar
16    7     8     ar
17    7     30    1
18    8     9     1
19    8     10    ar
20    10    11    1
21    10    12    ar
22    12    13    ar
23    12    31    1
24    13    14    1
25    14    15    1
26    14    16    1
27    14    22    1
28    16    21    ar
29    16    17    ar
30    17    18    ar
31    17    32    1
32    18    19    ar
33    18    33    1
34    19    20    ar
35    19    34    1
36    20    21    ar
37    20    35    1
38    21    36    1
39    22    37    1
40    22    38    1
@<TRIPOS>SUBSTRUCTURE
1   ZINC000002516061 1     RESIDUE    1   A     ZIN   1
