@<TRIPOS>MOLECULE
ZINC000036156831
25    26    1     0     0
SMALL
USER_CHARGES
@<TRIPOS>ATOM
1      C1     -0.0187    1.5258    0.0104 C.3      1 ZINC000036156831   -0.1400
2      C2      0.0021   -0.0041    0.0020 C.3      1 ZINC000036156831    0.0500
3      H3     -1.0205   -0.3814    0.0098 H        1 ZINC000036156831    0.1100
4      N4      0.7126   -0.4907    1.1921 N.3      1 ZINC000036156831   -0.8300
5      C5      0.7074   -0.4901   -1.2379 C.2      1 ZINC000036156831    0.3700
6      O6      1.8337   -0.9338   -1.1604 O.2      1 ZINC000036156831   -0.4500
7      C7      0.0312   -0.4265   -2.5400 C.ar     1 ZINC000036156831   -0.1700
8      C8     -1.2662    0.0904   -2.6330 C.ar     1 ZINC000036156831   -0.0600
9      C9     -1.8975    0.1492   -3.8552 C.ar     1 ZINC000036156831   -0.1100
10     C10    -1.2517   -0.3030   -4.9989 C.ar     1 ZINC000036156831    0.0700
11     O11    -1.6542   -0.3518   -6.3004 O.3      1 ZINC000036156831   -0.3000
12     C12    -0.4497   -0.5200   -7.0707 C.3      1 ZINC000036156831    0.2100
13     O13     0.4463   -1.1904   -6.1649 O.3      1 ZINC000036156831   -0.3000
14     C14     0.0431   -0.8201   -4.9140 C.ar     1 ZINC000036156831    0.0200
15     C15     0.6846   -0.8775   -3.6938 C.ar     1 ZINC000036156831   -0.0400
16     H16     1.0039    1.9031    0.0027 H        1 ZINC000036156831    0.0600
17     H17    -0.5459    1.8868   -0.8726 H        1 ZINC000036156831    0.0700
18     H18    -0.5289    1.8773    0.9072 H        1 ZINC000036156831    0.0800
19     H19     0.6843   -1.4980    1.2434 H        1 ZINC000036156831    0.3500
20     H20     1.6637   -0.1543    1.2082 H        1 ZINC000036156831    0.3500
21     H21    -1.7721    0.4428   -1.7462 H        1 ZINC000036156831    0.1500
22     H22    -2.8987    0.5481   -3.9249 H        1 ZINC000036156831    0.1500
23     H23    -0.6398   -1.1378   -7.9484 H        1 ZINC000036156831    0.1400
24     H24    -0.0442    0.4484   -7.3636 H        1 ZINC000036156831    0.0900
25     H25     1.6878   -1.2722   -3.6281 H        1 ZINC000036156831    0.1500
@<TRIPOS>BOND
1     1     2     1
2     1     16    1
3     1     17    1
4     1     18    1
5     2     3     1
6     2     4     1
7     2     5     1
8     4     19    1
9     4     20    1
10    5     6     2
11    5     7     1
12    7     15    ar
13    7     8     ar
14    8     9     ar
15    8     21    1
16    9     10    ar
17    9     22    1
18    10    14    ar
19    10    11    1
20    11    12    1
21    12    13    1
22    12    23    1
23    12    24    1
24    13    14    1
25    14    15    ar
26    15    25    1
@<TRIPOS>SUBSTRUCTURE
1   ZINC000036156831 1     RESIDUE    1   A     ZIN   1
