@<TRIPOS>MOLECULE
ZINC000003916477
30    31    1     0     0
SMALL
USER_CHARGES
@<TRIPOS>ATOM
1      C1     -0.0184    1.5028    0.0103 C.3      1 ZINC000003916477   -0.0900
2      C2      0.0021   -0.0041    0.0020 C.2      1 ZINC000003916477   -0.1900
3      C3     -1.0678   -0.8049    0.0026 C.2      1 ZINC000003916477    0.0600
4      C4     -2.4799   -0.2787    0.0119 C.3      1 ZINC000003916477   -0.1100
5      N5     -0.7868   -2.0924   -0.0057 N.2      1 ZINC000003916477   -0.3200
6      C6     -1.8450   -3.1055   -0.0068 C.3      1 ZINC000003916477    0.0100
7      C7     -2.2994   -3.3556   -1.4217 C.2      1 ZINC000003916477    0.3900
8      O8     -1.7897   -2.7476   -2.3387 O.2      1 ZINC000003916477   -0.4300
9      C9     -3.3619   -4.3378   -1.6905 C.ar     1 ZINC000003916477   -0.1900
10     C10    -3.9563   -5.0368   -0.6351 C.ar     1 ZINC000003916477   -0.0800
11     C11    -4.9511   -5.9555   -0.8952 C.ar     1 ZINC000003916477   -0.1300
12     C12    -5.3614   -6.1869   -2.1966 C.ar     1 ZINC000003916477   -0.0700
13     C13    -4.7781   -5.4991   -3.2465 C.ar     1 ZINC000003916477   -0.1300
14     C14    -3.7864   -4.5727   -3.0022 C.ar     1 ZINC000003916477   -0.0500
15     C15     0.4606   -2.4221   -0.0132 C.2      1 ZINC000003916477   -0.0200
16     S16     1.4407   -1.0212   -0.0178 S.3      1 ZINC000003916477    0.4600
17     H17     1.0042    1.8801    0.0026 H        1 ZINC000003916477    0.0900
18     H18    -0.5455    1.8639   -0.8728 H        1 ZINC000003916477    0.1000
19     H19    -0.5286    1.8543    0.9071 H        1 ZINC000003916477    0.1000
20     H20    -2.8250   -0.1459   -1.0135 H        1 ZINC000003916477    0.1100
21     H21    -3.1289   -0.9889    0.5245 H        1 ZINC000003916477    0.0900
22     H22    -2.5074    0.6791    0.5315 H        1 ZINC000003916477    0.1100
23     H23    -1.4615   -4.0319    0.4208 H        1 ZINC000003916477    0.1600
24     H24    -2.6871   -2.7519    0.5881 H        1 ZINC000003916477    0.1600
25     H25    -3.6367   -4.8579    0.3809 H        1 ZINC000003916477    0.1300
26     H26    -5.4111   -6.4962   -0.0812 H        1 ZINC000003916477    0.1400
27     H27    -6.1406   -6.9082   -2.3939 H        1 ZINC000003916477    0.1400
28     H28    -5.1037   -5.6852   -4.2593 H        1 ZINC000003916477    0.1400
29     H29    -3.3322   -4.0368   -3.8225 H        1 ZINC000003916477    0.1400
30     H30     0.8319   -3.4363   -0.0204 H        1 ZINC000003916477    0.2500
@<TRIPOS>BOND
1     1     2     1
2     1     17    1
3     1     18    1
4     1     19    1
5     2     16    1
6     2     3     2
7     3     4     1
8     3     5     1
9     4     20    1
10    4     21    1
11    4     22    1
12    5     6     1
13    5     15    2
14    6     7     1
15    6     23    1
16    6     24    1
17    7     8     2
18    7     9     1
19    9     14    ar
20    9     10    ar
21    10    11    ar
22    10    25    1
23    11    12    ar
24    11    26    1
25    12    13    ar
26    12    27    1
27    13    14    ar
28    13    28    1
29    14    29    1
30    15    16    1
31    15    30    1
@<TRIPOS>SUBSTRUCTURE
1   ZINC000003916477 1     RESIDUE    1   A     ZIN   1
