@<TRIPOS>MOLECULE
ZINC000003777810
26    26    1     0     0
SMALL
USER_CHARGES
@<TRIPOS>ATOM
1      O1      0.0021   -0.0041    0.0020 O.2      1 ZINC000003777810   -0.1600
2      N2     -0.0144    1.2138    0.0087 N.pl3    1 ZINC000003777810    0.0700
3      O3      1.0320    1.8371    0.0021 O.2      1 ZINC000003777810   -0.0900
4      C4     -1.3063    1.9364    0.0188 C.2      1 ZINC000003777810    0.2300
5      N5     -1.4524    3.2332    0.0208 N.2      1 ZINC000003777810   -0.3900
6      C6     -2.7602    3.5310    0.0299 C.2      1 ZINC000003777810   -0.0100
7      C7     -3.4507    2.3748    0.0336 C.2      1 ZINC000003777810    0.0400
8      N8     -2.5289    1.3630    0.0215 N.pl3    1 ZINC000003777810   -0.4200
9      C9     -2.8152   -0.0738    0.0203 C.3      1 ZINC000003777810    0.2800
10     O10    -4.2295   -0.2777    0.0345 O.3      1 ZINC000003777810   -0.3900
11     C11    -4.6185   -1.6527    0.0346 C.3      1 ZINC000003777810    0.1000
12     C12    -6.1224   -1.7493    0.0501 C.2      1 ZINC000003777810   -0.1500
13     C13    -6.7330   -2.5895   -0.7481 C.2      1 ZINC000003777810   -0.1300
14     C14    -8.2368   -2.6861   -0.7327 C.3      1 ZINC000003777810    0.1000
15     O15    -8.7263   -2.7127   -2.0750 O.3      1 ZINC000003777810   -0.5700
16     H16    -3.1850    4.5240    0.0338 H        1 ZINC000003777810    0.2000
17     H17    -4.5253    2.2668    0.0407 H        1 ZINC000003777810    0.2100
18     H18    -2.3916   -0.5279   -0.8755 H        1 ZINC000003777810    0.1000
19     H19    -2.3730   -0.5331    0.9044 H        1 ZINC000003777810    0.1000
20     H20    -4.2324   -2.1396   -0.8608 H        1 ZINC000003777810    0.0700
21     H21    -4.2137   -2.1448    0.9190 H        1 ZINC000003777810    0.0700
22     H22    -6.6967   -1.1258    0.7194 H        1 ZINC000003777810    0.1200
23     H23    -6.1587   -3.2130   -1.4174 H        1 ZINC000003777810    0.1200
24     H24    -8.5370   -3.5990   -0.2183 H        1 ZINC000003777810    0.0600
25     H25    -8.6510   -1.8227   -0.2120 H        1 ZINC000003777810    0.0600
26     H26    -9.6890   -2.7743   -2.1414 H        1 ZINC000003777810    0.3900
@<TRIPOS>BOND
1     1     2     2
2     2     3     2
3     2     4     1
4     4     8     1
5     4     5     2
6     5     6     1
7     6     7     2
8     6     16    1
9     7     8     1
10    7     17    1
11    8     9     1
12    9     10    1
13    9     18    1
14    9     19    1
15    10    11    1
16    11    12    1
17    11    20    1
18    11    21    1
19    12    13    2
20    12    22    1
21    13    14    1
22    13    23    1
23    14    15    1
24    14    24    1
25    14    25    1
26    15    26    1
@<TRIPOS>SUBSTRUCTURE
1   ZINC000003777810 1     RESIDUE    1   A     ZIN   1
