@<TRIPOS>MOLECULE
ZINC000068243819
52    55    1     0     0
SMALL
USER_CHARGES
@<TRIPOS>ATOM
1      C1     -0.0187    1.5258    0.0104 C.3      1 ZINC000068243819   -0.1500
2      C2      0.0021   -0.0041    0.0020 C.3      1 ZINC000068243819    0.0600
3      O3      0.6932   -0.4774    1.1597 O.3      1 ZINC000068243819   -0.2800
4      C4      0.8016   -1.8199    1.3052 C.ar     1 ZINC000068243819    0.4800
5      C5      1.4596   -2.3691    2.4162 C.ar     1 ZINC000068243819   -0.1100
6      N6      2.0857   -1.8528    3.5028 N.2      1 ZINC000068243819   -0.4300
7      C7      2.5356   -2.8220    4.2446 C.2      1 ZINC000068243819    0.2500
8      N8      2.2258   -4.0244    3.6792 N.pl3    1 ZINC000068243819   -0.4800
9      C9      2.5612   -5.3462    4.2146 C.3      1 ZINC000068243819    0.2900
10     H10     1.7552   -6.0483    4.0011 H        1 ZINC000068243819    0.1400
11     O11     2.7739   -5.2595    5.6450 O.3      1 ZINC000068243819   -0.3200
12     C12     3.7896   -6.2159    5.9365 C.3      1 ZINC000068243819   -0.0200
13     H13     3.3761   -7.2216    5.8605 H        1 ZINC000068243819    0.1100
14     C14     4.5067   -6.0610    7.2630 C.3      1 ZINC000068243819    0.1200
15     O15     5.4280   -7.1728    7.3711 O.3      1 ZINC000068243819   -0.7200
16     P16     6.4329   -7.5236    6.1453 P.3      1 ZINC000068243819    2.3100
17     O17     7.6590   -6.7007    6.2453 O.2      1 ZINC000068243819   -1.0000
18     O18     6.8160   -9.0870    6.1784 O.3      1 ZINC000068243819   -0.7200
19     C19     7.5640   -9.6828    7.2403 C.3      1 ZINC000068243819    0.1400
20     C20     6.7282  -10.7826    7.8982 C.3      1 ZINC000068243819   -0.1700
21     C21     8.8525  -10.2878    6.6796 C.3      1 ZINC000068243819   -0.1700
22     O22     5.6362   -7.1717    4.7653 O.3      1 ZINC000068243819   -0.6800
23     C23     4.8184   -5.9904    4.7954 C.3      1 ZINC000068243819    0.0600
24     H24     5.4235   -5.0963    4.9456 H        1 ZINC000068243819    0.1400
25     C25     3.8824   -5.8516    3.5826 C.3      1 ZINC000068243819    0.1000
26     C26     4.4417   -4.8378    2.5824 C.3      1 ZINC000068243819   -0.1700
27     F27     3.6821   -7.0930    2.9692 F        1 ZINC000068243819   -0.1600
28     C28     1.5425   -3.7687    2.5172 C.ar     1 ZINC000068243819    0.3600
29     N29     0.9992   -4.5195    1.5653 N.ar     1 ZINC000068243819   -0.6000
30     C30     0.3874   -3.9593    0.5345 C.ar     1 ZINC000068243819    0.6300
31     N31    -0.1675   -4.7747   -0.4381 N.pl3    1 ZINC000068243819   -0.8100
32     N32     0.2831   -2.6428    0.4031 N.ar     1 ZINC000068243819   -0.6200
33     H33     1.0039    1.9031    0.0027 H        1 ZINC000068243819    0.0700
34     H34    -0.5459    1.8868   -0.8726 H        1 ZINC000068243819    0.0800
35     H35    -0.5289    1.8773    0.9072 H        1 ZINC000068243819    0.0700
36     H36    -1.0205   -0.3814    0.0098 H        1 ZINC000068243819    0.0700
37     H37     0.5123   -0.3556   -0.8948 H        1 ZINC000068243819    0.0700
38     H38     3.0754   -2.6938    5.1712 H        1 ZINC000068243819    0.2300
39     H39     5.0551   -5.1192    7.2826 H        1 ZINC000068243819    0.1000
40     H40     3.7875   -6.0920    8.0814 H        1 ZINC000068243819    0.1300
41     H41     7.8118   -8.9226    7.9811 H        1 ZINC000068243819    0.0700
42     H42     5.8102  -10.3516    8.2976 H        1 ZINC000068243819    0.0600
43     H43     6.4804  -11.5428    7.1574 H        1 ZINC000068243819    0.0700
44     H44     7.2988  -11.2371    8.7082 H        1 ZINC000068243819    0.0800
45     H45     9.4479   -9.5043    6.2109 H        1 ZINC000068243819    0.0700
46     H46     9.4230  -10.7422    7.4896 H        1 ZINC000068243819    0.0800
47     H47     8.6046  -11.0480    5.9388 H        1 ZINC000068243819    0.0700
48     H48     5.4203   -5.1707    2.2364 H        1 ZINC000068243819    0.0900
49     H49     3.7646   -4.7547    1.7322 H        1 ZINC000068243819    0.0800
50     H50     4.5386   -3.8658    3.0661 H        1 ZINC000068243819    0.0800
51     H51    -0.1038   -5.7392   -0.3566 H        1 ZINC000068243819    0.4200
52     H52    -0.6198   -4.3812   -1.2007 H        1 ZINC000068243819    0.4200
@<TRIPOS>BOND
1     1     2     1
2     1     33    1
3     1     34    1
4     1     35    1
5     2     3     1
6     2     36    1
7     2     37    1
8     3     4     1
9     4     32    ar
10    4     5     ar
11    5     28    ar
12    5     6     1
13    6     7     2
14    7     8     1
15    7     38    1
16    8     9     1
17    8     28    1
18    9     10    1
19    9     25    1
20    9     11    1
21    11    12    1
22    12    13    1
23    12    23    1
24    12    14    1
25    14    15    1
26    14    39    1
27    14    40    1
28    15    16    1
29    16    17    2
30    16    18    1
31    16    22    1
32    18    19    1
33    19    20    1
34    19    21    1
35    19    41    1
36    20    42    1
37    20    43    1
38    20    44    1
39    21    45    1
40    21    46    1
41    21    47    1
42    22    23    1
43    23    24    1
44    23    25    1
45    25    26    1
46    25    27    1
47    26    48    1
48    26    49    1
49    26    50    1
50    28    29    ar
51    29    30    ar
52    30    31    1
53    30    32    ar
54    31    51    1
55    31    52    1
@<TRIPOS>SUBSTRUCTURE
1   ZINC000068243819 1     RESIDUE    1   A     ZIN   1
