@<TRIPOS>MOLECULE
ZINC000000005661
  41   43    0    0    0
SMALL
USER_CHARGES
NO_NAME
@<TRIPOS>ATOM
    1 C1       -0.0184     1.5028     0.0103 C.3    1 <0>      -0.1000
    2 C2        0.0021    -0.0041     0.0020 C.2    1 <0>      -0.2300
    3 C3       -1.1640    -0.7009     0.0038 C.2    1 <0>       0.0300
    4 C4       -2.4917     0.0120     0.0135 C.3    1 <0>      -0.1300
    5 C5       -1.0958    -2.1637    -0.0044 C.ar   1 <0>      -0.1800
    6 C6       -2.2605    -2.9393    -0.0036 C.ar   1 <0>      -0.0100
    7 C7       -2.1684    -4.3012    -0.0118 C.ar   1 <0>      -0.2300
    8 C8       -0.9222    -4.9242    -0.0205 C.ar   1 <0>       0.1900
    9 O9       -0.8473    -6.2796    -0.0282 O.3    1 <0>      -0.3000
   10 C10      -2.0828    -6.9977    -0.0267 C.3    1 <0>       0.1500
   11 C11      -1.8032    -8.4785    -0.0358 C.2    1 <0>      -0.0400
   12 N12      -1.6641    -9.2272     1.0105 N.2    1 <0>      -0.2300
   13 N13      -1.4331   -10.4520     0.8004 N.2    1 <0>      -0.2500
   14 C14      -1.3613   -10.8214    -0.4378 C.2    1 <0>       0.0000
   15 C15      -1.0973   -12.2234    -0.9232 C.3    1 <0>      -0.0200
   16 C16       0.2617   -12.6959    -0.4028 C.3    1 <0>      -0.1400
   17 C17      -2.1938   -13.1570    -0.4066 C.3    1 <0>      -0.1400
   18 S18      -1.6238    -9.4527    -1.4324 S.3    1 <0>       0.2000
   19 C19       0.2412    -4.1717    -0.0220 C.ar   1 <0>      -0.1700
   20 C20       0.1660    -2.7874    -0.0138 C.ar   1 <0>       0.1900
   21 O21       1.2874    -2.0353    -0.0155 O.3    1 <0>      -0.2700
   22 C22       1.2316    -0.6942    -0.0134 C.2    1 <0>       0.5200
   23 O23       2.2696    -0.0571    -0.0151 O.2    1 <0>      -0.4600
   24 H24       1.0042     1.8801     0.0026 H      1 <0>       0.0800
   25 H25      -0.5455     1.8639    -0.8728 H      1 <0>       0.0800
   26 H26      -0.5286     1.8543     0.9071 H      1 <0>       0.0800
   27 H27      -2.3256     1.0892     0.0182 H      1 <0>       0.0800
   28 H28      -3.0589    -0.2643    -0.8754 H      1 <0>       0.0900
   29 H29      -3.0508    -0.2734     0.9046 H      1 <0>       0.0900
   30 H30      -3.2292    -2.4619     0.0039 H      1 <0>       0.1500
   31 H31      -3.0674    -4.8997    -0.0111 H      1 <0>       0.1400
   32 H32      -2.6512    -6.7408     0.8672 H      1 <0>       0.1100
   33 H33      -2.6590    -6.7312    -0.9127 H      1 <0>       0.1000
   34 H34      -1.0932   -12.2359    -2.0131 H      1 <0>       0.1000
   35 H35       1.0429   -12.0308    -0.7708 H      1 <0>       0.0600
   36 H36       0.2577   -12.6834     0.6872 H      1 <0>       0.0700
   37 H37       0.4527   -13.7100    -0.7539 H      1 <0>       0.0700
   38 H38      -3.1620   -12.8204    -0.7773 H      1 <0>       0.0600
   39 H39      -2.0029   -14.1711    -0.7577 H      1 <0>       0.0700
   40 H40      -2.1979   -13.1446     0.6833 H      1 <0>       0.0700
   41 H41       1.2035    -4.6620    -0.0288 H      1 <0>       0.1500
@<TRIPOS>BOND
   1    1    2 1
   2    1   24 1
   3    1   25 1
   4    1   26 1
   5    2   22 1
   6    2    3 2
   7    3    4 1
   8    3    5 1
   9    4   27 1
  10    4   28 1
  11    4   29 1
  12    5   20 ar
  13    5    6 ar
  14    6    7 ar
  15    6   30 1
  16    7    8 ar
  17    7   31 1
  18    8    9 1
  19    8   19 ar
  20    9   10 1
  21   10   11 1
  22   10   32 1
  23   10   33 1
  24   11   18 1
  25   11   12 2
  26   12   13 1
  27   13   14 2
  28   14   15 1
  29   14   18 1
  30   15   16 1
  31   15   17 1
  32   15   34 1
  33   16   35 1
  34   16   36 1
  35   16   37 1
  36   17   38 1
  37   17   39 1
  38   17   40 1
  39   19   20 ar
  40   19   41 1
  41   20   21 1
  42   21   22 1
  43   22   23 2
