@<TRIPOS>MOLECULE
ZINC000238901809
49    52    1     0     0
SMALL
USER_CHARGES
@<TRIPOS>ATOM
1      C1     -0.0187    1.5258    0.0104 C.3      1 ZINC000238901809   -0.1400
2      C2      0.0021   -0.0041    0.0020 C.3      1 ZINC000238901809   -0.0500
3      C3     -1.4138   -0.5235   -0.0896 C.3      1 ZINC000238901809   -0.1000
4      C4     -1.4320   -2.0465    0.0001 C.3      1 ZINC000238901809   -0.1400
5      C5     -0.8372   -2.4744    1.3505 C.3      1 ZINC000238901809   -0.0600
6      H6     -1.4206   -2.0393    2.1619 H        1 ZINC000238901809    0.0700
7      C7      0.6019   -2.0026    1.4476 C.3      1 ZINC000238901809   -0.0700
8      H8      1.1781   -2.4899    0.6610 H        1 ZINC000238901809    0.0800
9      C9      1.2427   -2.3385    2.7916 C.3      1 ZINC000238901809   -0.1100
10     C10     0.7012   -3.6243    3.3981 C.3      1 ZINC000238901809   -0.0900
11     C11     0.1924   -4.5209    2.2971 C.2      1 ZINC000238901809   -0.0100
12     C12     0.7127   -5.7301    2.1134 C.2      1 ZINC000238901809   -0.2500
13     C13     0.2347   -6.6002    1.0406 C.2      1 ZINC000238901809    0.3900
14     O14     0.7052   -7.7102    0.9046 O.2      1 ZINC000238901809   -0.4700
15     C15    -0.8439   -6.1180    0.1030 C.3      1 ZINC000238901809   -0.1700
16     C16    -0.7777   -4.5894    0.0145 C.3      1 ZINC000238901809   -0.1000
17     C17    -0.9293   -4.0048    1.4128 C.3      1 ZINC000238901809   -0.0300
18     C18    -2.2836   -4.4165    1.9935 C.3      1 ZINC000238901809   -0.1400
19     C19     0.7453   -0.5087    1.2471 C.3      1 ZINC000238901809   -0.0700
20     H20     0.4357    0.0430    2.1348 H        1 ZINC000238901809    0.0700
21     C21     2.2403   -0.2564    0.9103 C.3      1 ZINC000238901809   -0.1200
22     C22     2.3494   -0.3038   -0.6255 C.3      1 ZINC000238901809   -0.1600
23     C23     0.8787   -0.4950   -1.1650 C.3      1 ZINC000238901809    0.1100
24     H24     0.7222    0.0916   -2.0702 H        1 ZINC000238901809    0.0600
25     O25     0.6073   -1.8767   -1.4089 O.3      1 ZINC000238901809   -0.5400
26     H26     1.0039    1.9031    0.0027 H        1 ZINC000238901809    0.0600
27     H27    -0.5459    1.8868   -0.8726 H        1 ZINC000238901809    0.0600
28     H28    -0.5289    1.8773    0.9072 H        1 ZINC000238901809    0.0600
29     H29    -2.0029   -0.1080    0.7279 H        1 ZINC000238901809    0.0500
30     H30    -1.8496   -0.2140   -1.0396 H        1 ZINC000238901809    0.0600
31     H31    -2.4588   -2.4042   -0.0760 H        1 ZINC000238901809    0.0500
32     H32    -0.8366   -2.4669   -0.8104 H        1 ZINC000238901809    0.1300
33     H33     2.3188   -2.4415    2.6521 H        1 ZINC000238901809    0.0600
34     H34     1.0572   -1.5177    3.4844 H        1 ZINC000238901809    0.0600
35     H35     1.4968   -4.1328    3.9427 H        1 ZINC000238901809    0.0700
36     H36    -0.1147   -3.3887    4.0815 H        1 ZINC000238901809    0.0800
37     H37     1.5008   -6.0747    2.7664 H        1 ZINC000238901809    0.1300
38     H38    -0.6868   -6.5480   -0.8862 H        1 ZINC000238901809    0.0900
39     H39    -1.8199   -6.4197    0.4833 H        1 ZINC000238901809    0.1000
40     H40     0.1797   -4.2895   -0.4115 H        1 ZINC000238901809    0.0800
41     H41    -1.5896   -4.2246   -0.6148 H        1 ZINC000238901809    0.0800
42     H42    -2.3411   -5.5038    2.0459 H        1 ZINC000238901809    0.0600
43     H43    -2.3922   -3.9982    2.9941 H        1 ZINC000238901809    0.0600
44     H44    -3.0825   -4.0410    1.3540 H        1 ZINC000238901809    0.0700
45     H45     2.5471    0.7229    1.2776 H        1 ZINC000238901809    0.0600
46     H46     2.8609   -1.0349    1.3541 H        1 ZINC000238901809    0.0700
47     H47     2.7419    0.6411   -1.0014 H        1 ZINC000238901809    0.0700
48     H48     2.9985   -1.1253   -0.9287 H        1 ZINC000238901809    0.0700
49     H49     1.1797   -2.2779   -2.0771 H        1 ZINC000238901809    0.3600
@<TRIPOS>BOND
1     1     2     1
2     1     26    1
3     1     27    1
4     1     28    1
5     2     19    1
6     2     23    1
7     2     3     1
8     3     4     1
9     3     29    1
10    3     30    1
11    4     5     1
12    4     31    1
13    4     32    1
14    5     6     1
15    5     17    1
16    5     7     1
17    7     8     1
18    7     9     1
19    7     19    1
20    9     10    1
21    9     33    1
22    9     34    1
23    10    11    1
24    10    35    1
25    10    36    1
26    11    17    1
27    11    12    2
28    12    13    1
29    12    37    1
30    13    14    2
31    13    15    1
32    15    16    1
33    15    38    1
34    15    39    1
35    16    17    1
36    16    40    1
37    16    41    1
38    17    18    1
39    18    42    1
40    18    43    1
41    18    44    1
42    19    20    1
43    19    21    1
44    21    22    1
45    21    45    1
46    21    46    1
47    22    23    1
48    22    47    1
49    22    48    1
50    23    24    1
51    23    25    1
52    25    49    1
@<TRIPOS>SUBSTRUCTURE
1   ZINC000238901809 1     RESIDUE    1   A     ZIN   1
