@<TRIPOS>MOLECULE
ZINC000000007570
15    15    1     0     0
SMALL
USER_CHARGES
@<TRIPOS>ATOM
1      O1     -0.5401    0.0404   -1.6579 O.2      1 ZINC000000007570   -0.1300
2      N2     -0.4109    1.2271   -1.4162 N.pl3    1 ZINC000000007570    0.0200
3      O3      0.5649    1.8295   -1.8266 O.2      1 ZINC000000007570   -0.1300
4      C4     -1.4468    1.9414   -0.6259 C.2      1 ZINC000000007570   -0.1000
5      Br5    -1.3355    3.8150   -0.3957 Br       1 ZINC000000007570    0.0700
6      C6     -2.4532    1.2623   -0.0799 C.2      1 ZINC000000007570    0.0900
7      C7     -2.4381   -0.2079   -0.0882 C.2      1 ZINC000000007570   -0.0200
8      C8     -3.5160   -1.0177   -0.2844 C.2      1 ZINC000000007570   -0.1300
9      C9     -3.0459   -2.3433   -0.2113 C.2      1 ZINC000000007570   -0.1700
10     C10    -1.7190   -2.2803    0.0233 C.2      1 ZINC000000007570    0.0200
11     Br11   -0.5621   -3.7636    0.2158 Br       1 ZINC000000007570    0.0700
12     O12    -1.3545   -0.9891    0.0912 O.3      1 ZINC000000007570   -0.1300
13     H13    -3.2808    1.7913    0.3691 H        1 ZINC000000007570    0.2000
14     H14    -4.5341   -0.7038   -0.4614 H        1 ZINC000000007570    0.1700
15     H15    -3.6364   -3.2408   -0.3216 H        1 ZINC000000007570    0.1700
@<TRIPOS>BOND
1     1     2     2
2     2     3     2
3     2     4     1
4     4     5     1
5     4     6     2
6     6     7     1
7     6     13    1
8     7     12    1
9     7     8     2
10    8     9     1
11    8     14    1
12    9     10    2
13    9     15    1
14    10    11    1
15    10    12    1
@<TRIPOS>SUBSTRUCTURE
1   ZINC000000007570 1     RESIDUE    1   A     ZIN   1
