@<TRIPOS>MOLECULE
ZINC000006716839
36    38    1     0     0
SMALL
USER_CHARGES
@<TRIPOS>ATOM
1      C1     -0.0184    1.5028    0.0103 C.3      1 ZINC000006716839   -0.0700
2      C2      0.0021   -0.0041    0.0020 C.2      1 ZINC000006716839    0.2300
3      N3      0.0079   -0.7545   -1.0630 N.2      1 ZINC000006716839   -0.4600
4      C4      0.0271   -2.0583   -0.6883 C.2      1 ZINC000006716839    0.0900
5      C5      0.0388   -3.1899   -1.5658 C.1      1 ZINC000006716839   -0.0200
6      C6      0.0485   -4.1176   -2.2851 C.1      1 ZINC000006716839   -0.1400
7      C7      0.0602   -5.2492   -3.1626 C.ar     1 ZINC000006716839    0.0900
8      C8      0.0580   -5.0820   -4.5550 C.ar     1 ZINC000006716839   -0.1500
9      C9      0.0695   -6.1989   -5.3621 C.ar     1 ZINC000006716839    0.1300
10     N10     0.0821   -7.4121   -4.8418 N.ar     1 ZINC000006716839   -0.4800
11     C11     0.0846   -7.6160   -3.5366 C.ar     1 ZINC000006716839    0.1800
12     Cl12    0.1014   -9.2401   -2.9237 Cl       1 ZINC000006716839   -0.0200
13     C13     0.0800   -6.5555   -2.6540 C.ar     1 ZINC000006716839   -0.1300
14     C14     0.0333   -2.0965    0.6755 C.2      1 ZINC000006716839    0.0400
15     C15     0.0536   -3.3302    1.5407 C.3      1 ZINC000006716839   -0.0800
16     N16     0.0233   -0.7992    1.1047 N.pl3    1 ZINC000006716839   -0.4100
17     C17     0.0251   -0.3670    2.4391 C.ar     1 ZINC000006716839    0.1000
18     C18    -1.0555   -0.6507    3.2629 C.ar     1 ZINC000006716839   -0.0800
19     C19    -1.0521   -0.2243    4.5765 C.ar     1 ZINC000006716839   -0.1400
20     C20     0.0286    0.4860    5.0720 C.ar     1 ZINC000006716839    0.1200
21     F21     0.0305    0.9019    6.3573 F        1 ZINC000006716839   -0.1300
22     C22     1.1075    0.7700    4.2516 C.ar     1 ZINC000006716839   -0.1400
23     C23     1.1100    0.3402    2.9391 C.ar     1 ZINC000006716839   -0.0700
24     H24     1.0042    1.8801    0.0026 H        1 ZINC000006716839    0.0900
25     H25    -0.5455    1.8639   -0.8728 H        1 ZINC000006716839    0.1000
26     H26    -0.5286    1.8543    0.9071 H        1 ZINC000006716839    0.0800
27     H27     0.0471   -4.0928   -4.9883 H        1 ZINC000006716839    0.1500
28     H28     0.0680   -6.0801   -6.4355 H        1 ZINC000006716839    0.1700
29     H29     0.0821   -6.7291   -1.5880 H        1 ZINC000006716839    0.1500
30     H30     1.0861   -3.6140    1.7447 H        1 ZINC000006716839    0.0800
31     H31    -0.4588   -3.1236    2.4803 H        1 ZINC000006716839    0.0700
32     H32    -0.4517   -4.1455    1.0230 H        1 ZINC000006716839    0.0900
33     H33    -1.8987   -1.2043    2.8768 H        1 ZINC000006716839    0.1400
34     H34    -1.8928   -0.4446    5.2177 H        1 ZINC000006716839    0.1500
35     H35     1.9493    1.3243    4.6396 H        1 ZINC000006716839    0.1500
36     H36     1.9518    0.5615    2.2997 H        1 ZINC000006716839    0.1400
@<TRIPOS>BOND
1     1     2     1
2     1     24    1
3     1     25    1
4     1     26    1
5     2     16    1
6     2     3     2
7     3     4     1
8     4     5     1
9     4     14    2
10    5     6     3
11    6     7     1
12    7     13    ar
13    7     8     ar
14    8     9     ar
15    8     27    1
16    9     10    ar
17    9     28    1
18    10    11    ar
19    11    12    1
20    11    13    ar
21    13    29    1
22    14    15    1
23    14    16    1
24    15    30    1
25    15    31    1
26    15    32    1
27    16    17    1
28    17    23    ar
29    17    18    ar
30    18    19    ar
31    18    33    1
32    19    20    ar
33    19    34    1
34    20    21    1
35    20    22    ar
36    22    23    ar
37    22    35    1
38    23    36    1
@<TRIPOS>SUBSTRUCTURE
1   ZINC000006716839 1     RESIDUE    1   A     ZIN   1
