@<TRIPOS>MOLECULE
ZINC000004214704
86    91    1     0     0
SMALL
USER_CHARGES
@<TRIPOS>ATOM
1      C1      0.3597    1.5252   -0.0782 C.3      1 ZINC000004214704    0.0300
2      O2      0.3255    0.0966   -0.0759 O.3      1 ZINC000004214704   -0.3100
3      C3      0.9172   -0.5334    0.9740 C.ar     1 ZINC000004214704    0.1000
4      C4      1.5119    0.2042    1.9818 C.ar     1 ZINC000004214704   -0.1700
5      C5      2.1151   -0.4337    3.0559 C.ar     1 ZINC000004214704   -0.0600
6      C6      2.1220   -1.8106    3.1238 C.ar     1 ZINC000004214704   -0.0800
7      C7      1.5293   -2.5549    2.1135 C.ar     1 ZINC000004214704   -0.1700
8      C8      0.9225   -1.9237    1.0428 C.ar     1 ZINC000004214704    0.1000
9      O9      0.3423   -2.6584    0.0563 O.3      1 ZINC000004214704   -0.3100
10     C10     0.3961   -4.0802    0.1892 C.3      1 ZINC000004214704    0.0300
11     C11     2.7543   -2.5460    4.2766 C.3      1 ZINC000004214704    0.0900
12     N12     3.6660   -1.6634    5.0111 N.3      1 ZINC000004214704   -0.5300
13     C13     4.2154   -2.3403    6.1934 C.3      1 ZINC000004214704    0.0600
14     C14     3.0901   -2.6145    7.1930 C.3      1 ZINC000004214704   -0.1200
15     C15     3.6538   -3.3090    8.4059 C.ar     1 ZINC000004214704   -0.0900
16     C16     3.7177   -4.6899    8.4428 C.ar     1 ZINC000004214704   -0.0900
17     C17     4.2333   -5.3294    9.5530 C.ar     1 ZINC000004214704   -0.1400
18     C18     4.6883   -4.5841   10.6330 C.ar     1 ZINC000004214704    0.1400
19     N19     5.2114   -5.2285   11.7586 N.am     1 ZINC000004214704   -0.6600
20     C20     5.1695   -4.6231   12.9620 C.2      1 ZINC000004214704    0.5800
21     O21     4.5857   -3.5638   13.0898 O.2      1 ZINC000004214704   -0.5300
22     C22     5.8305   -5.2441   14.1219 C.ar     1 ZINC000004214704   -0.1900
23     C23     6.6009   -6.3999   13.9555 C.ar     1 ZINC000004214704   -0.1200
24     C24     7.2187   -6.9779   15.0451 C.ar     1 ZINC000004214704    0.0800
25     O25     7.9682   -8.1018   14.8830 O.3      1 ZINC000004214704   -0.3000
26     C26     8.0713   -8.6272   13.5581 C.3      1 ZINC000004214704    0.0200
27     C27     7.0774   -6.4127   16.3132 C.ar     1 ZINC000004214704    0.1600
28     O28     7.6883   -6.9869   17.3815 O.3      1 ZINC000004214704   -0.3000
29     C29     7.5025   -6.3574   18.6508 C.3      1 ZINC000004214704    0.0200
30     C30     6.3165   -5.2677   16.4866 C.ar     1 ZINC000004214704   -0.2100
31     C31     5.6949   -4.6752   15.3983 C.ar     1 ZINC000004214704    0.2300
32     N32     4.9300   -3.5234   15.5723 N.am     1 ZINC000004214704   -0.6500
33     C33     5.1763   -2.7015   16.6117 C.2      1 ZINC000004214704    0.5700
34     O34     6.1299   -2.9077   17.3369 O.2      1 ZINC000004214704   -0.5200
35     C35     4.2875   -1.5502   16.8696 C.ar     1 ZINC000004214704   -0.2000
36     C36     3.1798   -1.3098   16.0380 C.ar     1 ZINC000004214704    0.1700
37     N37     2.3766   -0.2979   16.2436 N.ar     1 ZINC000004214704   -0.4700
38     C38     2.5677    0.5579   17.2541 C.ar     1 ZINC000004214704    0.1500
39     C39     1.6926    1.6385   17.4578 C.ar     1 ZINC000004214704   -0.1000
40     C40     1.9063    2.4966   18.4928 C.ar     1 ZINC000004214704   -0.0900
41     C41     2.9829    2.3239   19.3604 C.ar     1 ZINC000004214704   -0.1200
42     C42     3.8525    1.2894   19.1961 C.ar     1 ZINC000004214704   -0.0900
43     C43     3.6627    0.3838   18.1381 C.ar     1 ZINC000004214704   -0.1200
44     C44     4.5363   -0.6985   17.9404 C.ar     1 ZINC000004214704    0.0200
45     C45     4.6232   -3.1973   10.5926 C.ar     1 ZINC000004214704   -0.1200
46     C46     4.1112   -2.5638    9.4772 C.ar     1 ZINC000004214704   -0.0900
47     C47     2.9768   -0.4192    5.3885 C.3      1 ZINC000004214704    0.0500
48     C48     2.7542    0.4141    4.1261 C.3      1 ZINC000004214704   -0.0700
49     H49     1.3957    1.8639   -0.0796 H        1 ZINC000004214704    0.0600
50     H50    -0.1460    1.8993   -0.9684 H        1 ZINC000004214704    0.1000
51     H51    -0.1447    1.9021    0.8115 H        1 ZINC000004214704    0.0500
52     H52     1.5068    1.2831    1.9320 H        1 ZINC000004214704    0.1400
53     H53     1.5386   -3.6336    2.1655 H        1 ZINC000004214704    0.1300
54     H54     1.4367   -4.4030    0.2214 H        1 ZINC000004214704    0.0600
55     H55    -0.1054   -4.3783    1.1100 H        1 ZINC000004214704    0.0500
56     H56    -0.1020   -4.5438   -0.6623 H        1 ZINC000004214704    0.1000
57     H57     1.9733   -2.8978    4.9507 H        1 ZINC000004214704    0.0500
58     H58     3.3115   -3.4016    3.8951 H        1 ZINC000004214704    0.0900
59     H59     4.6721   -3.2833    5.8927 H        1 ZINC000004214704    0.0800
60     H60     4.9682   -1.7043    6.6591 H        1 ZINC000004214704    0.0800
61     H61     2.6335   -1.6716    7.4937 H        1 ZINC000004214704    0.0800
62     H62     2.3374   -3.2506    6.7273 H        1 ZINC000004214704    0.0700
63     H63     3.3636   -5.2689    7.6026 H        1 ZINC000004214704    0.1200
64     H64     4.2822   -6.4079    9.5815 H        1 ZINC000004214704    0.1300
65     H65     5.6044   -6.1112   11.6731 H        1 ZINC000004214704    0.4100
66     H66     6.7115   -6.8394   12.9752 H        1 ZINC000004214704    0.1400
67     H67     7.0775   -8.8823   13.1901 H        1 ZINC000004214704    0.0600
68     H68     8.5198   -7.8792   12.9044 H        1 ZINC000004214704    0.0600
69     H69     8.6951   -9.5210   13.5692 H        1 ZINC000004214704    0.1000
70     H70     8.0423   -6.9157   19.4157 H        1 ZINC000004214704    0.1100
71     H71     7.8831   -5.3369   18.6094 H        1 ZINC000004214704    0.0600
72     H72     6.4405   -6.3395   18.8955 H        1 ZINC000004214704    0.0600
73     H73     6.2104   -4.8344   17.4701 H        1 ZINC000004214704    0.1700
74     H74     4.2204   -3.3132   14.9453 H        1 ZINC000004214704    0.4300
75     H75     2.9876   -1.9759   15.2099 H        1 ZINC000004214704    0.1600
76     H76     0.8532    1.7879   16.7950 H        1 ZINC000004214704    0.1400
77     H77     1.2303    3.3253   18.6437 H        1 ZINC000004214704    0.1400
78     H78     3.1295    3.0196   20.1733 H        1 ZINC000004214704    0.1300
79     H79     4.6837    1.1656   19.8745 H        1 ZINC000004214704    0.1400
80     H80     5.3774   -0.8622   18.5979 H        1 ZINC000004214704    0.1600
81     H81     4.9759   -2.6149   11.4309 H        1 ZINC000004214704    0.1400
82     H82     4.0606   -1.4855    9.4450 H        1 ZINC000004214704    0.1200
83     H83     2.0158   -0.6568    5.8448 H        1 ZINC000004214704    0.0400
84     H84     3.5916    0.1408    6.0932 H        1 ZINC000004214704    0.0800
85     H85     3.7123    0.7893    3.7665 H        1 ZINC000004214704    0.0800
86     H86     2.1018    1.2558    4.3585 H        1 ZINC000004214704    0.0800
@<TRIPOS>BOND
1     1     2     1
2     1     49    1
3     1     50    1
4     1     51    1
5     2     3     1
6     3     8     ar
7     3     4     ar
8     4     5     ar
9     4     52    1
10    5     48    1
11    5     6     ar
12    6     7     ar
13    6     11    1
14    7     8     ar
15    7     53    1
16    8     9     1
17    9     10    1
18    10    54    1
19    10    55    1
20    10    56    1
21    11    12    1
22    11    57    1
23    11    58    1
24    12    13    1
25    12    47    1
26    13    14    1
27    13    59    1
28    13    60    1
29    14    15    1
30    14    61    1
31    14    62    1
32    15    46    ar
33    15    16    ar
34    16    17    ar
35    16    63    1
36    17    18    ar
37    17    64    1
38    18    19    1
39    18    45    ar
40    19    20    am
41    19    65    1
42    20    21    2
43    20    22    1
44    22    31    ar
45    22    23    ar
46    23    24    ar
47    23    66    1
48    24    25    1
49    24    27    ar
50    25    26    1
51    26    67    1
52    26    68    1
53    26    69    1
54    27    28    1
55    27    30    ar
56    28    29    1
57    29    70    1
58    29    71    1
59    29    72    1
60    30    31    ar
61    30    73    1
62    31    32    1
63    32    33    am
64    32    74    1
65    33    34    2
66    33    35    1
67    35    44    ar
68    35    36    ar
69    36    37    ar
70    36    75    1
71    37    38    ar
72    38    43    ar
73    38    39    ar
74    39    40    ar
75    39    76    1
76    40    41    ar
77    40    77    1
78    41    42    ar
79    41    78    1
80    42    43    ar
81    42    79    1
82    43    44    ar
83    44    80    1
84    45    46    ar
85    45    81    1
86    46    82    1
87    47    48    1
88    47    83    1
89    47    84    1
90    48    85    1
91    48    86    1
@<TRIPOS>SUBSTRUCTURE
1   ZINC000004214704 1     RESIDUE    1   A     ZIN   1
