@<TRIPOS>MOLECULE
ZINC000005941273
  31   33    0    0    0
SMALL
NO_CHARGES
@<TRIPOS>ATOM
   1 N1            -0.0167     1.3797     0.0096 N.pl3   
   2 C2             0.0021    -0.0041     0.0020 C.ar    
   3 C3            -1.1953    -0.7393     0.0036 C.ar    
   4 N4            -2.5111    -0.4171     0.0123 N.2     
   5 C5            -3.2237    -1.5060     0.0097 C.2     
   6 N6            -2.4068    -2.5973    -0.0008 N.pl3   
   7 C7            -2.8327    -3.9990    -0.0071 C.3     
   8 H8            -2.1471    -4.5918    -0.6126 H       
   9 O9            -4.1656    -4.1024    -0.5352 O.3     
  10 C10           -4.8155    -5.1823     0.1692 C.3     
  11 H11           -4.4943    -6.1462    -0.2256 H       
  12 C12           -6.3367    -5.0453     0.0800 C.3     
  13 O13           -6.7530    -5.2292    -1.2746 O.3     
  14 C14           -4.3326    -5.0028     1.6310 C.3     
  15 C15           -2.8639    -4.5436     1.4341 C.3     
  16 H16           -2.1827    -5.3877     1.5411 H       
  17 O17           -2.5325    -3.5136     2.3676 O.3     
  18 C18           -1.1125    -2.1421    -0.0049 C.ar    
  19 N19            0.0849    -2.7183    -0.0145 N.ar    
  20 C20            1.1806    -1.9886    -0.0159 C.ar    
  21 N21            1.1531    -0.6685    -0.0125 N.ar    
  22 H22            0.8167     1.8761     0.0043 H       
  23 H23           -0.8632     1.8532     0.0162 H       
  24 H24           -4.3032    -1.5401     0.0154 H       
  25 H25           -6.8070    -5.8001     0.7102 H       
  26 H26           -6.6327    -4.0528     0.4195 H       
  27 H27           -7.7082    -5.1557    -1.4060 H       
  28 H28           -4.9158    -4.2368     2.1420 H       
  29 H29           -4.3741    -5.9475     2.1731 H       
  30 H30           -2.5954    -3.7865     3.2931 H       
  31 H31            2.1380    -2.4885    -0.0238 H       
@<TRIPOS>BOND
   1    1    2 1
   2    1   22 1
   3    1   23 1
   4    2   21 ar
   5    2    3 ar
   6    3   18 ar
   7    3    4 1
   8    4    5 2
   9    5    6 1
  10    5   24 1
  11    6    7 1
  12    6   18 1
  13    7    8 1
  14    7   15 1
  15    7    9 1
  16    9   10 1
  17   10   11 1
  18   10   12 1
  19   10   14 1
  20   12   13 1
  21   12   25 1
  22   12   26 1
  23   13   27 1
  24   14   15 1
  25   14   28 1
  26   14   29 1
  27   15   16 1
  28   15   17 1
  29   17   30 1
  30   18   19 ar
  31   19   20 ar
  32   20   21 ar
  33   20   31 1
