@<TRIPOS>MOLECULE
ZINC000000002303
47    50    1     0     0
SMALL
USER_CHARGES
@<TRIPOS>ATOM
1      F1      0.0021   -0.0041    0.0020 F        1 ZINC000000002303   -0.1200
2      C2     -0.0162    1.3468    0.0094 C.ar     1 ZINC000000002303    0.1400
3      C3     -1.2242    2.0232    0.0304 C.ar     1 ZINC000000002303   -0.1500
4      C4     -1.2417    3.4050    0.0379 C.ar     1 ZINC000000002303   -0.0500
5      C5     -0.0538    4.1120    0.0246 C.ar     1 ZINC000000002303   -0.1600
6      C6     -0.0742    5.6188    0.0333 C.3      1 ZINC000000002303    0.1500
7      N7     -0.0607    6.0994    1.4172 N.pl3    1 ZINC000000002303   -0.4500
8      C8     -1.1682    6.3479    2.2114 C.ar     1 ZINC000000002303    0.0900
9      C9     -2.5363    6.2465    2.0123 C.ar     1 ZINC000000002303   -0.0900
10     C10    -3.4053    6.5791    3.0314 C.ar     1 ZINC000000002303   -0.0600
11     C11    -2.9192    7.0150    4.2547 C.ar     1 ZINC000000002303   -0.0800
12     C12    -1.5631    7.1222    4.4699 C.ar     1 ZINC000000002303   -0.0800
13     C13    -0.6703    6.7886    3.4490 C.ar     1 ZINC000000002303    0.0500
14     N14     0.6857    6.7891    3.3571 N.pl3    1 ZINC000000002303   -0.5300
15     H15     1.2939    7.0502    4.0662 H        1 ZINC000000002303    0.4500
16     C16     1.0459    6.3800    2.1662 C.cat    1 ZINC000000002303    0.6300
17     N17     2.3488    6.2580    1.7310 N.pl3    1 ZINC000000002303   -0.6900
18     C18     3.4557    6.5991    2.6281 C.3      1 ZINC000000002303    0.1300
19     C19     3.7988    5.3887    3.5012 C.3      1 ZINC000000002303   -0.1800
20     C20     5.0061    5.7256    4.3790 C.3      1 ZINC000000002303    0.0000
21     N21     6.1554    6.0594    3.5292 N.4      1 ZINC000000002303   -0.5100
22     H22     6.9634    6.2289    4.1094 H        1 ZINC000000002303    0.4400
23     H23     6.3460    5.2896    2.9054 H        1 ZINC000000002303    0.4300
24     C24     5.8598    7.2621    2.7414 C.3      1 ZINC000000002303    0.0000
25     C25     4.6854    6.9843    1.8006 C.3      1 ZINC000000002303   -0.1600
26     C26     1.1529    3.4377    0.0037 C.ar     1 ZINC000000002303   -0.0700
27     C27     1.1730    2.0559    0.0019 C.ar     1 ZINC000000002303   -0.1500
28     H28    -2.1524    1.4711    0.0405 H        1 ZINC000000002303    0.1500
29     H29    -2.1838    3.9329    0.0539 H        1 ZINC000000002303    0.1400
30     H30     0.8032    5.9971   -0.4913 H        1 ZINC000000002303    0.1200
31     H31    -0.9764    5.9729   -0.4655 H        1 ZINC000000002303    0.1400
32     H32    -2.9212    5.9082    1.0616 H        1 ZINC000000002303    0.1500
33     H33    -4.4710    6.4996    2.8751 H        1 ZINC000000002303    0.1600
34     H34    -3.6092    7.2728    5.0445 H        1 ZINC000000002303    0.1600
35     H35    -1.1913    7.4625    5.4251 H        1 ZINC000000002303    0.1500
36     H36     2.5323    5.9464    0.8310 H        1 ZINC000000002303    0.4400
37     H37     3.1660    7.4370    3.2622 H        1 ZINC000000002303    0.1100
38     H38     2.9460    5.1429    4.1340 H        1 ZINC000000002303    0.1100
39     H39     4.0380    4.5368    2.8647 H        1 ZINC000000002303    0.1100
40     H40     4.7657    6.5774    5.0152 H        1 ZINC000000002303    0.1400
41     H41     5.2530    4.8660    5.0020 H        1 ZINC000000002303    0.1500
42     H42     5.6012    8.0811    3.4126 H        1 ZINC000000002303    0.1400
43     H43     6.7369    7.5368    2.1555 H        1 ZINC000000002303    0.1500
44     H44     4.9430    6.1655    1.1288 H        1 ZINC000000002303    0.1100
45     H45     4.4663    7.8790    1.2179 H        1 ZINC000000002303    0.1300
46     H46     2.0803    3.9910   -0.0071 H        1 ZINC000000002303    0.1200
47     H47     2.1158    1.5293   -0.0145 H        1 ZINC000000002303    0.1500
@<TRIPOS>BOND
1     1     2     1
2     2     27    ar
3     2     3     ar
4     3     4     ar
5     3     28    1
6     4     5     ar
7     4     29    1
8     5     6     1
9     5     26    ar
10    6     7     1
11    6     30    1
12    6     31    1
13    7     16    ar
14    7     8     1
15    8     13    ar
16    8     9     ar
17    9     10    ar
18    9     32    1
19    10    11    ar
20    10    33    1
21    11    12    ar
22    11    34    1
23    12    13    ar
24    12    35    1
25    13    14    1
26    14    15    1
27    14    16    ar
28    16    17    ar
29    17    18    1
30    17    36    1
31    18    25    1
32    18    19    1
33    18    37    1
34    19    20    1
35    19    38    1
36    19    39    1
37    20    21    1
38    20    40    1
39    20    41    1
40    21    22    1
41    21    23    1
42    21    24    1
43    24    25    1
44    24    42    1
45    24    43    1
46    25    44    1
47    25    45    1
48    26    27    ar
49    26    46    1
50    27    47    1
@<TRIPOS>SUBSTRUCTURE
1   ZINC000000002303 1     RESIDUE    1   A     ZIN   1
