@<TRIPOS>MOLECULE
ZINC000043208634
53    57    1     0     0
SMALL
USER_CHARGES
@<TRIPOS>ATOM
1      C1     -0.0173    1.4248    0.0099 C.3      1 ZINC000043208634    0.0400
2      O2      0.0021   -0.0041    0.0020 O.3      1 ZINC000043208634   -0.3000
3      C3     -1.1989   -0.6368    0.0101 C.ar     1 ZINC000043208634    0.3200
4      N4     -2.3117    0.0757    0.0191 N.ar     1 ZINC000043208634   -0.5200
5      C5     -3.5019   -0.4924    0.0272 C.ar     1 ZINC000043208634    0.1500
6      C6     -3.6302   -1.8782    0.0269 C.ar     1 ZINC000043208634   -0.1200
7      C7     -4.9726   -2.5088    0.0360 C.ar     1 ZINC000043208634   -0.0100
8      C8     -5.0860   -3.9078    0.0415 C.ar     1 ZINC000043208634   -0.0900
9      C9     -6.3039   -4.5091    0.0500 C.ar     1 ZINC000043208634   -0.0800
10     C10    -7.4753   -3.7294    0.0538 C.ar     1 ZINC000043208634    0.1300
11     N11    -8.6810   -4.3066    0.0626 N.ar     1 ZINC000043208634   -0.4600
12     C12    -9.7858   -3.6004    0.0666 C.ar     1 ZINC000043208634    0.1300
13     C13    -9.7694   -2.2100    0.0620 C.ar     1 ZINC000043208634   -0.1500
14     C14    -8.5546   -1.5387    0.0529 C.ar     1 ZINC000043208634    0.0000
15     C15    -8.4986   -0.0584    0.0483 C.ar     1 ZINC000043208634   -0.0500
16     C16    -9.2514    0.6924   -0.8643 C.ar     1 ZINC000043208634   -0.1000
17     C17    -9.1473    2.0712   -0.8073 C.ar     1 ZINC000043208634    0.0500
18     N18    -8.3579    2.6366    0.0866 N.ar     1 ZINC000043208634   -0.2400
19     N19    -7.6661    1.9552    0.9248 N.ar     1 ZINC000043208634   -0.2300
20     C20    -7.6971    0.6380    0.9584 C.ar     1 ZINC000043208634    0.0500
21     C21    -7.3682   -2.3166    0.0486 C.ar     1 ZINC000043208634   -0.0800
22     C22    -6.1058   -1.7141    0.0448 C.ar     1 ZINC000043208634   -0.1100
23     C23    -2.4755   -2.6686    0.0175 C.ar     1 ZINC000043208634   -0.0500
24     C24    -1.2431   -2.0326    0.0030 C.ar     1 ZINC000043208634    0.0700
25     N25    -0.0595   -2.7797   -0.0073 N.am     1 ZINC000043208634   -1.0300
26     S26     0.0052   -4.2172   -0.8268 S.o2     1 ZINC000043208634    2.7000
27     O27     1.3311   -4.7056   -0.6762 O.2      1 ZINC000043208634   -0.9300
28     O28    -1.1441   -4.9550   -0.4342 O.2      1 ZINC000043208634   -0.9400
29     C29    -0.1990   -3.8516   -2.5383 C.ar     1 ZINC000043208634   -0.7300
30     C30     0.8320   -4.0976   -3.4249 C.ar     1 ZINC000043208634    0.0400
31     C31     0.6731   -3.8117   -4.7679 C.ar     1 ZINC000043208634   -0.1800
32     C32    -0.5195   -3.2784   -5.2263 C.ar     1 ZINC000043208634    0.1900
33     F33    -0.6747   -2.9995   -6.5390 F        1 ZINC000043208634   -0.1200
34     C34    -1.5531   -3.0315   -4.3390 C.ar     1 ZINC000043208634   -0.2100
35     C35    -1.3947   -3.3231   -2.9954 C.ar     1 ZINC000043208634    0.2200
36     F36    -2.4025   -3.0827   -2.1283 F        1 ZINC000043208634   -0.1000
37     H37     1.0053    1.8021    0.0021 H        1 ZINC000043208634    0.1000
38     H38    -0.5445    1.7859   -0.8732 H        1 ZINC000043208634    0.0600
39     H39    -0.5275    1.7763    0.9067 H        1 ZINC000043208634    0.0600
40     H40    -4.3878    0.1253    0.0344 H        1 ZINC000043208634    0.1600
41     H41    -4.1926   -4.5145    0.0387 H        1 ZINC000043208634    0.1400
42     H42    -6.3734   -5.5869    0.0534 H        1 ZINC000043208634    0.1400
43     H43   -10.7361   -4.1136    0.0734 H        1 ZINC000043208634    0.1700
44     H44   -10.6964   -1.6558    0.0652 H        1 ZINC000043208634    0.1400
45     H45    -9.8916    0.2109   -1.5886 H        1 ZINC000043208634    0.1600
46     H46    -9.7117    2.6844   -1.4943 H        1 ZINC000043208634    0.1800
47     H47    -7.1001    0.0991    1.6792 H        1 ZINC000043208634    0.1800
48     H48    -6.0162   -0.6378    0.0447 H        1 ZINC000043208634    0.1300
49     H49    -2.5423   -3.7465    0.0171 H        1 ZINC000043208634    0.1900
50     H50     0.7229   -2.4553    0.4656 H        1 ZINC000043208634    0.4400
51     H51     1.7628   -4.5133   -3.0682 H        1 ZINC000043208634    0.1700
52     H52     1.4797   -4.0041   -5.4599 H        1 ZINC000043208634    0.1600
53     H53    -2.4837   -2.6155   -4.6957 H        1 ZINC000043208634    0.1600
@<TRIPOS>BOND
1     1     2     1
2     1     37    1
3     1     38    1
4     1     39    1
5     2     3     1
6     3     24    ar
7     3     4     ar
8     4     5     ar
9     5     6     ar
10    5     40    1
11    6     7     1
12    6     23    ar
13    7     22    ar
14    7     8     ar
15    8     9     ar
16    8     41    1
17    9     10    ar
18    9     42    1
19    10    21    ar
20    10    11    ar
21    11    12    ar
22    12    13    ar
23    12    43    1
24    13    14    ar
25    13    44    1
26    14    15    1
27    14    21    ar
28    15    20    ar
29    15    16    ar
30    16    17    ar
31    16    45    1
32    17    18    ar
33    17    46    1
34    18    19    ar
35    19    20    ar
36    20    47    1
37    21    22    ar
38    22    48    1
39    23    24    ar
40    23    49    1
41    24    25    1
42    25    26    am
43    25    50    1
44    26    27    2
45    26    28    2
46    26    29    1
47    29    35    ar
48    29    30    ar
49    30    31    ar
50    30    51    1
51    31    32    ar
52    31    52    1
53    32    33    1
54    32    34    ar
55    34    35    ar
56    34    53    1
57    35    36    1
@<TRIPOS>SUBSTRUCTURE
1   ZINC000043208634 1     RESIDUE    1   A     ZIN   1
