@<TRIPOS>MOLECULE
ZINC000003943521
  41   44    0    0    0
SMALL
USER_CHARGES
NO_NAME
@<TRIPOS>ATOM
    1 C1        0.0499     1.4620    -0.0280 C.3    1 <0>       0.0800
    2 N2        0.0696    -0.0029    -0.0360 N.am   1 <0>      -0.7300
    3 C3        0.6382    -0.6748     0.9847 C.2    1 <0>       0.5500
    4 O4        1.1348    -0.0653     1.9119 O.2    1 <0>      -0.5300
    5 C5        0.6580    -2.1524     0.9766 C.ar   1 <0>      -0.1200
    6 C6        0.0872    -2.8519    -0.1014 C.ar   1 <0>      -0.0800
    7 C7        0.0930    -4.2091    -0.1317 C.ar   1 <0>      -0.1100
    8 C8        0.6755    -4.9342     0.9237 C.ar   1 <0>      -0.0300
    9 C9        0.6941    -6.3389     0.9143 C.ar   1 <0>      -0.0900
   10 C10       1.2653    -7.0133     1.9497 C.ar   1 <0>      -0.1200
   11 C11       1.2828    -8.5201     1.9341 C.3    1 <0>       0.2500
   12 O12       2.0141    -9.0218     3.0547 O.3    1 <0>      -0.5200
   13 C13      -0.1587    -9.0773     1.9327 C.3    1 <0>      -0.1200
   14 C14      -0.0207   -10.3239     1.0328 C.3    1 <0>       0.1000
   15 N15       1.1202   -10.0504     0.1476 N.pl3  1 <0>      -0.4200
   16 C16       1.7013   -10.4563    -1.0052 C.cat  1 <0>       0.3200
   17 N17       2.7651    -9.7314    -1.2159 N.pl3  1 <0>      -0.4700
   18 H18       3.3633    -9.8193    -1.9744 H      1 <0>       0.4700
   19 C19       2.9007    -8.8447    -0.2188 C.2    1 <0>       0.0400
   20 C20       1.8812    -9.0287     0.6416 C.2    1 <0>       0.0000
   21 C21       1.8346    -6.3316     3.0238 C.ar   1 <0>      -0.1100
   22 C22       1.8358    -4.9715     3.0683 C.ar   1 <0>      -0.0700
   23 C23       1.2548    -4.2401     2.0165 C.ar   1 <0>      -0.0500
   24 C24       1.2438    -2.8376     2.0283 C.ar   1 <0>      -0.0300
   25 H25       1.0724     1.8389    -0.0018 H      1 <0>       0.0600
   26 H26      -0.4476     1.8236    -0.9279 H      1 <0>       0.0800
   27 H27      -0.4895     1.8133     0.8515 H      1 <0>       0.0700
   28 H28      -0.3267    -0.4892    -0.7758 H      1 <0>       0.4000
   29 H29      -0.3620    -2.3025    -0.9155 H      1 <0>       0.1300
   30 H30      -0.3500    -4.7324    -0.9662 H      1 <0>       0.1300
   31 H31       0.2567    -6.8816     0.0893 H      1 <0>       0.1200
   32 H32       2.9341    -8.7259     3.0884 H      1 <0>       0.4000
   33 H33      -0.4691    -9.3566     2.9395 H      1 <0>       0.1400
   34 H34      -0.8534    -8.3585     1.4981 H      1 <0>       0.1200
   35 H35       0.1774   -11.2069     1.6404 H      1 <0>       0.1300
   36 H36      -0.9276   -10.4663     0.4450 H      1 <0>       0.1300
   37 H37       1.3436   -11.2497    -1.6448 H      1 <0>       0.2600
   38 H38       3.6888    -8.1125    -0.1227 H      1 <0>       0.2200
   39 H39       2.2810    -6.8909     3.8327 H      1 <0>       0.1400
   40 H40       2.2809    -4.4562     3.9066 H      1 <0>       0.1400
   41 H41       1.6851    -2.2966     2.8523 H      1 <0>       0.1500
@<TRIPOS>BOND
   1    1    2 1
   2    1   25 1
   3    1   26 1
   4    1   27 1
   5    2    3 am
   6    2   28 1
   7    3    4 2
   8    3    5 1
   9    5   24 ar
  10    5    6 ar
  11    6    7 ar
  12    6   29 1
  13    7    8 ar
  14    7   30 1
  15    8   23 ar
  16    8    9 ar
  17    9   10 ar
  18    9   31 1
  19   10   11 1
  20   10   21 ar
  21   11   20 1
  22   11   12 1
  23   11   13 1
  24   12   32 1
  25   13   14 1
  26   13   33 1
  27   13   34 1
  28   14   15 1
  29   14   35 1
  30   14   36 1
  31   15   20 1
  32   15   16 ar
  33   16   17 ar
  34   16   37 1
  35   17   18 1
  36   17   19 1
  37   19   20 2
  38   19   38 1
  39   21   22 ar
  40   21   39 1
  41   22   23 ar
  42   22   40 1
  43   23   24 ar
  44   24   41 1
