@<TRIPOS>MOLECULE
ZINC000168520308
64    67    1     0     0
SMALL
USER_CHARGES
@<TRIPOS>ATOM
1      C1     -2.0183    0.8403    1.0881 C.3      1 ZINC000168520308    0.0200
2      O2     -1.3099   -0.3488    0.7328 O.3      1 ZINC000168520308   -0.3100
3      C3     -0.6824   -1.0162    1.7365 C.ar     1 ZINC000168520308    0.2100
4      C4     -0.7528   -0.5386    3.0368 C.ar     1 ZINC000168520308   -0.3300
5      C5     -0.1131   -1.2192    4.0621 C.ar     1 ZINC000168520308    0.2100
6      O6     -0.1828   -0.7504    5.3357 O.3      1 ZINC000168520308   -0.3100
7      C7     -0.9317    0.4484    5.5456 C.3      1 ZINC000168520308    0.0200
8      C8      0.5969   -2.3780    3.7882 C.ar     1 ZINC000168520308   -0.2400
9      C9      0.6680   -2.8569    2.4866 C.ar     1 ZINC000168520308    0.2700
10     N10     1.3832   -4.0245    2.2096 N.pl3    1 ZINC000168520308   -0.5700
11     C11     1.3687   -4.5892    0.8579 C.3      1 ZINC000168520308    0.1100
12     C12     2.5208   -3.9955    0.0448 C.3      1 ZINC000168520308   -0.0500
13     N13     2.5062   -4.5617   -1.3107 N.4      1 ZINC000168520308   -0.5000
14     H14     2.6131   -5.5637   -1.2578 H        1 ZINC000168520308    0.4300
15     H15     1.6295   -4.3402   -1.7583 H        1 ZINC000168520308    0.4300
16     C16     3.6124   -3.9918   -2.0913 C.3      1 ZINC000168520308    0.0300
17     C17     3.6738   -4.6718   -3.4605 C.3      1 ZINC000168520308   -0.1800
18     C18     3.3847   -2.4903   -2.2774 C.3      1 ZINC000168520308   -0.1900
19     C19     2.1114   -4.6528    3.2202 C.ar     1 ZINC000168520308    0.1600
20     C20     1.4872   -5.6057    4.0351 C.ar     1 ZINC000168520308   -0.1100
21     C21     2.1736   -6.2327    5.0268 C.ar     1 ZINC000168520308   -0.0500
22     C22     3.5284   -5.9279    5.2451 C.ar     1 ZINC000168520308    0.0700
23     N23     4.2199   -6.5360    6.2168 N.ar     1 ZINC000168520308   -0.4100
24     C24     5.4831   -6.2388    6.4051 C.ar     1 ZINC000168520308    0.0900
25     C25     6.1230   -5.2834    5.5941 C.ar     1 ZINC000168520308    0.2200
26     C26     7.5513   -4.9615    5.8230 C.2      1 ZINC000168520308   -0.2200
27     C27     8.3621   -5.5150    6.7734 C.2      1 ZINC000168520308    0.1000
28     N28     9.5792   -4.9529    6.6478 N.pl3    1 ZINC000168520308   -0.3600
29     C29    10.7536   -5.2565    7.4692 C.3      1 ZINC000168520308    0.0900
30     N30     9.5297   -4.0287    5.5974 N.2      1 ZINC000168520308   -0.2900
31     C31     8.3236   -4.0327    5.0961 C.2      1 ZINC000168520308    0.1000
32     N32     5.4583   -4.6711    4.6287 N.ar     1 ZINC000168520308   -0.4400
33     C33     4.1689   -4.9643    4.4242 C.ar     1 ZINC000168520308    0.1000
34     C34     3.4399   -4.3341    3.4036 C.ar     1 ZINC000168520308   -0.0800
35     C35     0.0231   -2.1774    1.4614 C.ar     1 ZINC000168520308   -0.2600
36     H36    -1.3261    1.5577    1.5289 H        1 ZINC000168520308    0.0600
37     H37    -2.4714    1.2735    0.1964 H        1 ZINC000168520308    0.1100
38     H38    -2.7978    0.5969    1.8100 H        1 ZINC000168520308    0.0600
39     H39    -1.3058    0.3640    3.2509 H        1 ZINC000168520308    0.1400
40     H40    -0.9068    0.7119    6.6030 H        1 ZINC000168520308    0.1100
41     H41    -0.4951    1.2570    4.9593 H        1 ZINC000168520308    0.0600
42     H42    -1.9645    0.2908    5.2347 H        1 ZINC000168520308    0.0600
43     H43     1.0949   -2.9078    4.5867 H        1 ZINC000168520308    0.1300
44     H44     1.4841   -5.6715    0.9150 H        1 ZINC000168520308    0.1000
45     H45     0.4216   -4.3498    0.3743 H        1 ZINC000168520308    0.1100
46     H46     2.4053   -2.9132   -0.0123 H        1 ZINC000168520308    0.1400
47     H47     3.4679   -4.2349    0.5283 H        1 ZINC000168520308    0.1300
48     H48     4.5517   -4.1541   -1.5626 H        1 ZINC000168520308    0.1400
49     H49     2.7345   -4.5095   -3.9892 H        1 ZINC000168520308    0.0800
50     H50     4.4945   -4.2489   -4.0398 H        1 ZINC000168520308    0.1100
51     H51     3.8359   -5.7415   -3.3280 H        1 ZINC000168520308    0.0800
52     H52     3.3410   -2.0058   -1.3020 H        1 ZINC000168520308    0.0800
53     H53     4.2055   -2.0674   -2.8567 H        1 ZINC000168520308    0.1100
54     H54     2.4455   -2.3280   -2.8061 H        1 ZINC000168520308    0.0800
55     H55     0.4466   -5.8453    3.8736 H        1 ZINC000168520308    0.1400
56     H56     1.6780   -6.9647    5.6472 H        1 ZINC000168520308    0.1500
57     H57     6.0374   -6.7317    7.1901 H        1 ZINC000168520308    0.1800
58     H58     8.0780   -6.2666    7.4950 H        1 ZINC000168520308    0.1900
59     H59    11.3171   -6.0693    7.0112 H        1 ZINC000168520308    0.0800
60     H60    11.3856   -4.3713    7.5407 H        1 ZINC000168520308    0.1000
61     H61    10.4318   -5.5547    8.4671 H        1 ZINC000168520308    0.1000
62     H62     7.9766   -3.4254    4.2732 H        1 ZINC000168520308    0.1900
63     H63     3.9155   -3.6010    2.7690 H        1 ZINC000168520308    0.1400
64     H64     0.0776   -2.5494    0.4490 H        1 ZINC000168520308    0.1300
@<TRIPOS>BOND
1     1     2     1
2     1     36    1
3     1     37    1
4     1     38    1
5     2     3     1
6     3     35    ar
7     3     4     ar
8     4     5     ar
9     4     39    1
10    5     6     1
11    5     8     ar
12    6     7     1
13    7     40    1
14    7     41    1
15    7     42    1
16    8     9     ar
17    8     43    1
18    9     10    1
19    9     35    ar
20    10    11    1
21    10    19    1
22    11    12    1
23    11    44    1
24    11    45    1
25    12    13    1
26    12    46    1
27    12    47    1
28    13    14    1
29    13    15    1
30    13    16    1
31    16    17    1
32    16    18    1
33    16    48    1
34    17    49    1
35    17    50    1
36    17    51    1
37    18    52    1
38    18    53    1
39    18    54    1
40    19    34    ar
41    19    20    ar
42    20    21    ar
43    20    55    1
44    21    22    ar
45    21    56    1
46    22    33    ar
47    22    23    ar
48    23    24    ar
49    24    25    ar
50    24    57    1
51    25    26    1
52    25    32    ar
53    26    31    1
54    26    27    2
55    27    28    1
56    27    58    1
57    28    29    1
58    28    30    1
59    29    59    1
60    29    60    1
61    29    61    1
62    30    31    2
63    31    62    1
64    32    33    ar
65    33    34    ar
66    34    63    1
67    35    64    1
@<TRIPOS>SUBSTRUCTURE
1   ZINC000168520308 1     RESIDUE    1   A     ZIN   1
