@<TRIPOS>MOLECULE
ZINC000256418753
52    55    1     0     0
SMALL
USER_CHARGES
@<TRIPOS>ATOM
1      C1      0.5559   -0.2797    1.3725 C.3      1 ZINC000256418753   -0.0700
2      N2     -0.0136   -0.0030    0.0470 N.4      1 ZINC000256418753   -0.3700
3      H3     -0.0897    0.9944   -0.0849 H        1 ZINC000256418753    0.4100
4      C4      0.8606   -0.5687   -0.9893 C.3      1 ZINC000256418753   -0.0500
5      C5     -1.3464   -0.6130   -0.0503 C.3      1 ZINC000256418753    0.0300
6      H6     -1.9567   -0.2675    0.7841 H        1 ZINC000256418753    0.1400
7      C7     -1.2087   -2.1024    0.0292 C.2      1 ZINC000256418753    0.3100
8      O8     -0.2822   -2.6228    0.8475 O.3      1 ZINC000256418753   -0.6100
9      C9     -1.9959   -2.9545   -0.7052 C.2      1 ZINC000256418753   -0.4700
10     C10    -1.8300   -4.4105   -0.5705 C.2      1 ZINC000256418753    0.5900
11     N11    -2.6840   -5.2466   -1.1936 N.am     1 ZINC000256418753   -0.8700
12     O12    -0.9222   -4.8595    0.1031 O.2      1 ZINC000256418753   -0.5600
13     C13    -3.0003   -2.4135   -1.6217 C.2      1 ZINC000256418753    0.3800
14     O14    -3.5589   -3.1318   -2.4249 O.2      1 ZINC000256418753   -0.4600
15     C15    -3.3274   -0.9351   -1.5444 C.3      1 ZINC000256418753    0.0700
16     O16    -4.2458   -0.6551   -0.4860 O.3      1 ZINC000256418753   -0.5300
17     C17    -3.8748   -0.5220   -2.8966 C.2      1 ZINC000256418753    0.3700
18     O18    -4.3991   -1.3388   -3.6290 O.2      1 ZINC000256418753   -0.4600
19     C19    -3.7653    0.8171   -3.2848 C.2      1 ZINC000256418753   -0.4700
20     C20    -4.2874    1.1817   -4.5146 C.2      1 ZINC000256418753    0.3300
21     O21    -4.9264    0.2721   -5.2820 O.3      1 ZINC000256418753   -0.5900
22     C22    -4.1387    2.5702   -4.9757 C.ar     1 ZINC000256418753   -0.0700
23     C23    -4.9088    3.0558   -6.0409 C.ar     1 ZINC000256418753    0.1400
24     O24    -5.7929    2.2422   -6.6715 O.3      1 ZINC000256418753   -0.4700
25     C25    -4.7613    4.3743   -6.4459 C.ar     1 ZINC000256418753   -0.1500
26     C26    -3.8621    5.2009   -5.8015 C.ar     1 ZINC000256418753   -0.1000
27     C27    -3.0942    4.7222   -4.7501 C.ar     1 ZINC000256418753   -0.0500
28     Cl28   -1.9700    5.7749   -3.9491 Cl       1 ZINC000256418753   -0.0800
29     C29    -3.2217    3.4127   -4.3402 C.ar     1 ZINC000256418753   -0.0800
30     C30    -2.3626    2.8751   -3.2264 C.3      1 ZINC000256418753    0.1500
31     H31    -2.0528    3.6964   -2.5802 H        1 ZINC000256418753    0.0600
32     O32    -1.2056    2.2465   -3.7816 O.3      1 ZINC000256418753   -0.5400
33     C33    -3.1471    1.8526   -2.4050 C.3      1 ZINC000256418753    0.0300
34     H34    -3.9742    2.3930   -1.9446 H        1 ZINC000256418753    0.0500
35     C35    -2.2949    1.3214   -1.2778 C.3      1 ZINC000256418753   -0.1000
36     C36    -2.0010   -0.1744   -1.3621 C.3      1 ZINC000256418753   -0.0600
37     H37    -1.3265   -0.3709   -2.1955 H        1 ZINC000256418753    0.1100
38     H38     1.4684    0.3018    1.5045 H        1 ZINC000256418753    0.1000
39     H39    -0.1649   -0.0043    2.1424 H        1 ZINC000256418753    0.1000
40     H40     0.7869   -1.3418    1.4543 H        1 ZINC000256418753    0.1800
41     H41     0.8735   -1.6550   -0.9006 H        1 ZINC000256418753    0.1300
42     H42     0.4853   -0.2889   -1.9737 H        1 ZINC000256418753    0.1200
43     H43     1.8717   -0.1818   -0.8626 H        1 ZINC000256418753    0.1100
44     H44    -3.3647   -4.8913   -1.7863 H        1 ZINC000256418753    0.4000
45     H45    -2.6179   -6.2035   -1.0493 H        1 ZINC000256418753    0.3800
46     H46    -5.0942   -1.1114   -0.5704 H        1 ZINC000256418753    0.3900
47     H47    -6.6799    2.2516   -6.2864 H        1 ZINC000256418753    0.3900
48     H48    -5.3505    4.7551   -7.2671 H        1 ZINC000256418753    0.1300
49     H49    -3.7563    6.2280   -6.1182 H        1 ZINC000256418753    0.1300
50     H50    -0.6522    2.8377   -4.3101 H        1 ZINC000256418753    0.3600
51     H51    -1.3475    1.8605   -1.2769 H        1 ZINC000256418753    0.0500
52     H52    -2.8039    1.5222   -0.3351 H        1 ZINC000256418753    0.0700
@<TRIPOS>BOND
1     1     2     1
2     1     38    1
3     1     39    1
4     1     40    1
5     2     3     1
6     2     4     1
7     2     5     1
8     4     41    1
9     4     42    1
10    4     43    1
11    5     6     1
12    5     36    1
13    5     7     1
14    7     8     1
15    7     9     2
16    9     10    1
17    9     13    1
18    10    11    am
19    10    12    2
20    11    44    1
21    11    45    1
22    13    14    2
23    13    15    1
24    15    36    1
25    15    16    1
26    15    17    1
27    16    46    1
28    17    18    2
29    17    19    1
30    19    33    1
31    19    20    2
32    20    21    1
33    20    22    1
34    22    29    ar
35    22    23    ar
36    23    24    1
37    23    25    ar
38    24    47    1
39    25    26    ar
40    25    48    1
41    26    27    ar
42    26    49    1
43    27    28    1
44    27    29    ar
45    29    30    1
46    30    31    1
47    30    32    1
48    30    33    1
49    32    50    1
50    33    34    1
51    33    35    1
52    35    36    1
53    35    51    1
54    35    52    1
55    36    37    1
@<TRIPOS>SUBSTRUCTURE
1   ZINC000256418753 1     RESIDUE    1   A     ZIN   1
