@<TRIPOS>MOLECULE
ZINC000001997138
  57   59    0    0    0
SMALL
USER_CHARGES
NO_NAME
@<TRIPOS>ATOM
    1 C1        0.3888    -6.8255    -0.3288 C.3    1 <0>      -0.1500
    2 C2        0.7395    -6.8013     1.1603 C.3    1 <0>      -0.1200
    3 C3        1.3682    -5.4522     1.5143 C.3    1 <0>      -0.1200
    4 C4        1.7188    -5.4280     3.0034 C.3    1 <0>      -0.0500
    5 C5        2.3381    -4.0991     3.3522 C.2    1 <0>       0.1000
    6 C6        1.6508    -3.0018     3.7691 C.2    1 <0>      -0.2500
    7 C7        0.1954    -2.8849     3.9628 C.2    1 <0>       0.5100
    8 O8       -0.5043    -2.4385     3.0701 O.2    1 <0>      -0.4400
    9 C9       -0.4097    -3.3039     5.2251 C.2    1 <0>      -0.3200
   10 C10      -1.7536    -3.3395     5.4881 C.2    1 <0>      -0.0100
   11 C11      -2.0484    -3.7733     6.7549 C.2    1 <0>      -0.2100
   12 C12      -0.9791    -4.0857     7.5129 C.2    1 <0>       0.0300
   13 O13      -1.0468    -4.5335     8.7902 O.3    1 <0>      -0.2600
   14 C14       0.1915    -4.8165     9.4448 C.3    1 <0>       0.0500
   15 C15      -0.0842    -5.3070    10.8676 C.3    1 <0>       0.0500
   16 N16      -0.7575    -6.6115    10.8140 N.3    1 <0>      -0.5400
   17 C17      -0.6863    -7.2944    12.1127 C.3    1 <0>       0.0400
   18 C18      -1.0310    -8.7739    11.9305 C.3    1 <0>      -0.1500
   19 C19      -2.1506    -6.4672    10.3708 C.3    1 <0>       0.0400
   20 C20      -2.8691    -5.4573    11.2678 C.3    1 <0>      -0.1900
   21 S21       0.4711    -3.8497     6.6455 S.3    1 <0>       0.1900
   22 C22       2.6660    -1.9526     3.9878 C.ar   1 <0>      -0.1000
   23 C23       2.6175    -0.6273     4.4069 C.ar   1 <0>      -0.0700
   24 C24       3.7853     0.0988     4.5077 C.ar   1 <0>      -0.1300
   25 C25       5.0012    -0.4883     4.1928 C.ar   1 <0>      -0.0900
   26 C26       5.0609    -1.8014     3.7764 C.ar   1 <0>      -0.1000
   27 C27       3.8950    -2.5492     3.6690 C.ar   1 <0>       0.0500
   28 O28       3.6475    -3.8240     3.3033 O.3    1 <0>      -0.1800
   29 H29       1.2946    -6.6810    -0.9177 H      1 <0>       0.0500
   30 H30      -0.0591    -7.7867    -0.5810 H      1 <0>       0.0600
   31 H31      -0.3188    -6.0261    -0.5485 H      1 <0>       0.0600
   32 H32      -0.1663    -6.9458     1.7492 H      1 <0>       0.0600
   33 H33       1.4471    -7.6008     1.3799 H      1 <0>       0.0700
   34 H34       2.2739    -5.3077     0.9254 H      1 <0>       0.0700
   35 H35       0.6606    -4.6527     1.2947 H      1 <0>       0.0700
   36 H36       0.8131    -5.5725     3.5924 H      1 <0>       0.1000
   37 H37       2.4265    -6.2274     3.2231 H      1 <0>       0.1000
   38 H38      -2.5066    -3.0538     4.7686 H      1 <0>       0.1600
   39 H39      -3.0619    -3.8579     7.1181 H      1 <0>       0.1500
   40 H40       0.7268    -5.5884     8.8918 H      1 <0>       0.0800
   41 H41       0.7972    -3.9112     9.4836 H      1 <0>       0.0700
   42 H42       0.8579    -5.4062    11.4067 H      1 <0>       0.1000
   43 H43      -0.7233    -4.5892    11.3819 H      1 <0>       0.0600
   44 H44       0.3222    -7.2034    12.5162 H      1 <0>       0.0700
   45 H45      -1.3962    -6.8382    12.8025 H      1 <0>       0.0400
   46 H46      -2.0049    -8.8634    11.4491 H      1 <0>       0.0600
   47 H47      -0.2730    -9.2497    11.3083 H      1 <0>       0.0600
   48 H48      -1.0609    -9.2626    12.9043 H      1 <0>       0.0600
   49 H49      -2.1691    -6.1148     9.3395 H      1 <0>       0.0900
   50 H50      -2.6538    -7.4320    10.4342 H      1 <0>       0.0700
   51 H51      -3.9264    -5.4254    11.0047 H      1 <0>       0.0600
   52 H52      -2.7630    -5.7573    12.3103 H      1 <0>       0.0500
   53 H53      -2.4298    -4.4696    11.1275 H      1 <0>       0.0600
   54 H54       1.6705    -0.1694     4.6516 H      1 <0>       0.1300
   55 H55       3.7527     1.1283     4.8327 H      1 <0>       0.1300
   56 H56       5.9105     0.0886     4.2742 H      1 <0>       0.1400
   57 H57       6.0137    -2.2485     3.5340 H      1 <0>       0.1400
@<TRIPOS>BOND
   1    1    2 1
   2    1   29 1
   3    1   30 1
   4    1   31 1
   5    2    3 1
   6    2   32 1
   7    2   33 1
   8    3    4 1
   9    3   34 1
  10    3   35 1
  11    4    5 1
  12    4   36 1
  13    4   37 1
  14    5   28 1
  15    5    6 2
  16    6    7 1
  17    6   22 1
  18    7    8 2
  19    7    9 1
  20    9   21 1
  21    9   10 2
  22   10   11 1
  23   10   38 1
  24   11   12 2
  25   11   39 1
  26   12   13 1
  27   12   21 1
  28   13   14 1
  29   14   15 1
  30   14   40 1
  31   14   41 1
  32   15   16 1
  33   15   42 1
  34   15   43 1
  35   16   17 1
  36   16   19 1
  37   17   18 1
  38   17   44 1
  39   17   45 1
  40   18   46 1
  41   18   47 1
  42   18   48 1
  43   19   20 1
  44   19   49 1
  45   19   50 1
  46   20   51 1
  47   20   52 1
  48   20   53 1
  49   22   27 ar
  50   22   23 ar
  51   23   24 ar
  52   23   54 1
  53   24   25 ar
  54   24   55 1
  55   25   26 ar
  56   25   56 1
  57   26   27 ar
  58   26   57 1
  59   27   28 1
