@<TRIPOS>MOLECULE
ZINC000011686745
59    62    1     0     0
SMALL
USER_CHARGES
@<TRIPOS>ATOM
1      C1     -0.0184    1.5028    0.0103 C.3      1 ZINC000011686745   -0.0900
2      C2      0.0021   -0.0041    0.0020 C.2      1 ZINC000011686745    0.0800
3      C3      0.0084   -0.7958   -1.0953 C.2      1 ZINC000011686745   -0.2700
4      C4      0.0287   -2.1267   -0.6656 C.2      1 ZINC000011686745    0.0700
5      C5      0.0426   -3.3426   -1.5559 C.3      1 ZINC000011686745   -0.0700
6      N6      0.0344   -2.1338    0.6427 N.2      1 ZINC000011686745   -0.3000
7      N7      0.0233   -0.8055    1.0876 N.pl3    1 ZINC000011686745   -0.3700
8      C8      0.0249   -0.3643    2.4846 C.3      1 ZINC000011686745    0.1300
9      C9      1.4679   -0.1972    2.9649 C.3      1 ZINC000011686745   -0.1400
10     C10     1.4696    0.2635    4.4239 C.3      1 ZINC000011686745   -0.1100
11     C11     2.9126    0.4306    4.9043 C.3      1 ZINC000011686745   -0.1000
12     C12     2.9144    0.8913    6.3633 C.3      1 ZINC000011686745   -0.4600
13     S13     4.6252    1.0894    6.9328 S.o      1 ZINC000011686745    1.3800
14     O14     5.2043    2.2259    6.3064 O.2      1 ZINC000011686745   -0.8100
15     C15     4.4286    1.6147    8.6031 C.2      1 ZINC000011686745   -0.1300
16     N16     4.3282    2.8540    8.9949 N.2      1 ZINC000011686745   -0.4100
17     C17     4.1892    2.8933   10.3335 C.2      1 ZINC000011686745    0.0500
18     C18     4.0444    4.1106   11.1651 C.ar     1 ZINC000011686745   -0.0100
19     C19     3.2370    4.0898   12.3022 C.ar     1 ZINC000011686745   -0.1000
20     C20     3.1061    5.2268   13.0728 C.ar     1 ZINC000011686745   -0.1200
21     C21     3.7736    6.3859   12.7195 C.ar     1 ZINC000011686745   -0.1200
22     C22     4.5756    6.4129   11.5925 C.ar     1 ZINC000011686745   -0.1200
23     C23     4.7194    5.2805   10.8174 C.ar     1 ZINC000011686745   -0.0900
24     C24     4.2061    1.5877   10.7888 C.2      1 ZINC000011686745    0.0600
25     C25     4.0840    1.1352   12.1892 C.ar     1 ZINC000011686745   -0.0300
26     C26     4.8039    1.7772   13.1991 C.ar     1 ZINC000011686745   -0.0800
27     C27     4.6847    1.3496   14.5051 C.ar     1 ZINC000011686745   -0.1100
28     C28     3.8543    0.2872   14.8156 C.ar     1 ZINC000011686745   -0.1100
29     C29     3.1381   -0.3535   13.8200 C.ar     1 ZINC000011686745   -0.1200
30     C30     3.2437    0.0671   12.5105 C.ar     1 ZINC000011686745   -0.1100
31     N31     4.3529    0.7948    9.6743 N.pl3    1 ZINC000011686745   -0.5200
32     H32     1.0042    1.8801    0.0026 H        1 ZINC000011686745    0.0800
33     H33    -0.5455    1.8639   -0.8728 H        1 ZINC000011686745    0.0900
34     H34    -0.5286    1.8543    0.9071 H        1 ZINC000011686745    0.0700
35     H35    -0.0010   -0.4595   -2.1216 H        1 ZINC000011686745    0.1500
36     H36     1.0735   -3.6213   -1.7743 H        1 ZINC000011686745    0.0800
37     H37    -0.4578   -4.1686   -1.0505 H        1 ZINC000011686745    0.0700
38     H38    -0.4779   -3.1173   -2.4867 H        1 ZINC000011686745    0.0800
39     H39    -0.4976    0.5889    2.5652 H        1 ZINC000011686745    0.0900
40     H40    -0.4794   -1.1084    3.1011 H        1 ZINC000011686745    0.0900
41     H41     1.9904   -1.1504    2.8843 H        1 ZINC000011686745    0.0800
42     H42     1.9722    0.5469    2.3484 H        1 ZINC000011686745    0.0700
43     H43     0.9471    1.2167    4.5046 H        1 ZINC000011686745    0.0700
44     H44     0.9653   -0.4806    5.0405 H        1 ZINC000011686745    0.0700
45     H45     3.4351   -0.5226    4.8236 H        1 ZINC000011686745    0.0800
46     H46     3.4169    1.1747    4.2877 H        1 ZINC000011686745    0.0700
47     H47     2.3919    1.8445    6.4439 H        1 ZINC000011686745    0.1000
48     H48     2.4101    0.1472    6.9798 H        1 ZINC000011686745    0.1200
49     H49     2.7151    3.1856   12.5787 H        1 ZINC000011686745    0.1200
50     H50     2.4809    5.2120   13.9533 H        1 ZINC000011686745    0.1200
51     H51     3.6680    7.2734   13.3258 H        1 ZINC000011686745    0.1200
52     H52     5.0939    7.3208   11.3216 H        1 ZINC000011686745    0.1200
53     H53     5.3457    5.3027    9.9378 H        1 ZINC000011686745    0.1300
54     H54     5.4527    2.6062   12.9580 H        1 ZINC000011686745    0.1300
55     H55     5.2411    1.8449   15.2871 H        1 ZINC000011686745    0.1300
56     H56     3.7650   -0.0437   15.8398 H        1 ZINC000011686745    0.1300
57     H57     2.4918   -1.1820   14.0693 H        1 ZINC000011686745    0.1300
58     H58     2.6839   -0.4336   11.7344 H        1 ZINC000011686745    0.1200
59     H59     4.3999   -0.1740    9.6606 H        1 ZINC000011686745    0.4300
@<TRIPOS>BOND
1     1     2     1
2     1     32    1
3     1     33    1
4     1     34    1
5     2     7     1
6     2     3     2
7     3     4     1
8     3     35    1
9     4     5     1
10    4     6     2
11    5     36    1
12    5     37    1
13    5     38    1
14    6     7     1
15    7     8     1
16    8     9     1
17    8     39    1
18    8     40    1
19    9     10    1
20    9     41    1
21    9     42    1
22    10    11    1
23    10    43    1
24    10    44    1
25    11    12    1
26    11    45    1
27    11    46    1
28    12    13    1
29    12    47    1
30    12    48    1
31    13    14    2
32    13    15    1
33    15    31    1
34    15    16    2
35    16    17    1
36    17    18    1
37    17    24    2
38    18    23    ar
39    18    19    ar
40    19    20    ar
41    19    49    1
42    20    21    ar
43    20    50    1
44    21    22    ar
45    21    51    1
46    22    23    ar
47    22    52    1
48    23    53    1
49    24    25    1
50    24    31    1
51    25    30    ar
52    25    26    ar
53    26    27    ar
54    26    54    1
55    27    28    ar
56    27    55    1
57    28    29    ar
58    28    56    1
59    29    30    ar
60    29    57    1
61    30    58    1
62    31    59    1
@<TRIPOS>SUBSTRUCTURE
1   ZINC000011686745 1     RESIDUE    1   A     ZIN   1
