@<TRIPOS>MOLECULE
ZINC000001563988
45    45    1     0     0
SMALL
USER_CHARGES
@<TRIPOS>ATOM
1      C1     -0.0184    1.5028    0.0103 C.3      1 ZINC000001563988   -0.1300
2      C2      0.0021   -0.0041    0.0020 C.ar     1 ZINC000001563988    0.0200
3      C3      0.0058   -0.6812   -1.1835 C.ar     1 ZINC000001563988   -0.2200
4      C4      0.0251   -2.0744   -1.1923 C.ar     1 ZINC000001563988    0.2500
5      N5      0.0288   -2.7592   -2.4006 N.pl3    1 ZINC000001563988   -0.6100
6      C6      0.0492   -4.2240   -2.4123 C.3      1 ZINC000001563988    0.1200
7      C7     -1.3861   -4.7541   -2.4094 C.3      1 ZINC000001563988    0.0400
8      O8     -2.0362   -4.3753   -3.6243 O.3      1 ZINC000001563988   -0.7300
9      S9     -3.4776   -4.8524   -3.7299 S.o2     1 ZINC000001563988    2.6200
10     C10    -4.4007   -3.7528   -2.6211 C.3      1 ZINC000001563988   -0.7000
11     O11    -3.8302   -4.6055   -5.0841 O.2      1 ZINC000001563988   -0.9300
12     O12    -3.4481   -6.1745   -3.2099 O.2      1 ZINC000001563988   -0.9700
13     C13     0.0124   -2.0168   -3.6634 C.3      1 ZINC000001563988    0.1200
14     C14     1.4490   -1.7382   -4.1100 C.3      1 ZINC000001563988    0.0400
15     O15     2.1037   -2.9734   -4.4062 O.3      1 ZINC000001563988   -0.7300
16     S16     3.5469   -2.8150   -4.8631 S.o2     1 ZINC000001563988    2.6200
17     C17     4.4619   -2.4263   -3.3459 C.3      1 ZINC000001563988   -0.7000
18     O18     3.9051   -4.1028   -5.3453 O.2      1 ZINC000001563988   -0.9300
19     O19     3.5184   -1.6898   -5.7304 O.2      1 ZINC000001563988   -0.9700
20     C20     0.0413   -2.7823    0.0072 C.ar     1 ZINC000001563988   -0.2200
21     C21     0.0373   -2.1130    1.1975 C.ar     1 ZINC000001563988    0.0000
22     C22     0.0232   -0.7122    1.2110 C.ar     1 ZINC000001563988   -0.2600
23     C23     0.0188    0.0114    2.4878 C.2      1 ZINC000001563988    0.3800
24     O24     0.0274   -0.6035    3.5335 O.2      1 ZINC000001563988   -0.4700
25     H25     1.0042    1.8801    0.0026 H        1 ZINC000001563988    0.0800
26     H26    -0.5455    1.8639   -0.8728 H        1 ZINC000001563988    0.0800
27     H27    -0.5286    1.8543    0.9071 H        1 ZINC000001563988    0.0700
28     H28    -0.0067   -0.1362   -2.1158 H        1 ZINC000001563988    0.1300
29     H29     0.5636   -4.5731   -3.3077 H        1 ZINC000001563988    0.1100
30     H30     0.5724   -4.5872   -1.5278 H        1 ZINC000001563988    0.1100
31     H31    -1.3718   -5.8410   -2.3285 H        1 ZINC000001563988    0.1200
32     H32    -1.9269   -4.3337   -1.5616 H        1 ZINC000001563988    0.0900
33     H33    -4.2879   -2.7215   -2.9555 H        1 ZINC000001563988    0.1300
34     H34    -5.4559   -4.0258   -2.6344 H        1 ZINC000001563988    0.1300
35     H35    -4.0130   -3.8505   -1.6070 H        1 ZINC000001563988    0.1300
36     H36    -0.4970   -2.6069   -4.4253 H        1 ZINC000001563988    0.1100
37     H37    -0.5140   -1.0727   -3.5230 H        1 ZINC000001563988    0.1100
38     H38     1.4372   -1.1104   -5.0010 H        1 ZINC000001563988    0.1200
39     H39     1.9848   -1.2253   -3.3113 H        1 ZINC000001563988    0.0900
40     H40     4.3480   -3.2433   -2.6334 H        1 ZINC000001563988    0.1300
41     H41     5.5179   -2.2947   -3.5820 H        1 ZINC000001563988    0.1300
42     H42     4.0698   -1.5071   -2.9105 H        1 ZINC000001563988    0.1300
43     H43     0.0566   -3.8622   -0.0041 H        1 ZINC000001563988    0.1300
44     H44     0.0491   -2.6627    2.1271 H        1 ZINC000001563988    0.1300
45     H45     0.0079    1.0913    2.4964 H        1 ZINC000001563988    0.1000
@<TRIPOS>BOND
1     1     2     1
2     1     25    1
3     1     26    1
4     1     27    1
5     2     22    ar
6     2     3     ar
7     3     4     ar
8     3     28    1
9     4     5     1
10    4     20    ar
11    5     6     1
12    5     13    1
13    6     7     1
14    6     29    1
15    6     30    1
16    7     8     1
17    7     31    1
18    7     32    1
19    8     9     1
20    9     10    1
21    9     11    2
22    9     12    2
23    10    33    1
24    10    34    1
25    10    35    1
26    13    14    1
27    13    36    1
28    13    37    1
29    14    15    1
30    14    38    1
31    14    39    1
32    15    16    1
33    16    17    1
34    16    18    2
35    16    19    2
36    17    40    1
37    17    41    1
38    17    42    1
39    20    21    ar
40    20    43    1
41    21    22    ar
42    21    44    1
43    22    23    1
44    23    24    2
45    23    45    1
@<TRIPOS>SUBSTRUCTURE
1   ZINC000001563988 1     RESIDUE    1   A     ZIN   1
