@<TRIPOS>MOLECULE
ZINC000008214528
107   111   1     0     0
SMALL
USER_CHARGES
@<TRIPOS>ATOM
1      C1      6.5848   -2.3392    2.2806 C.3      1 ZINC000008214528   -0.1600
2      C2      5.1275   -2.6487    1.9323 C.3      1 ZINC000008214528   -0.5800
3      C3      4.8908   -4.1575    2.0229 C.3      1 ZINC000008214528   -0.1600
4      C4      4.2177   -1.9384    2.9012 C.2      1 ZINC000008214528    0.5500
5      O5      3.3914   -1.1509    2.4912 O.2      1 ZINC000008214528   -0.5200
6      N6      4.3221   -2.1783    4.2233 N.am     1 ZINC000008214528   -0.6000
7      C7      5.2374   -3.2103    4.7359 C.3      1 ZINC000008214528    0.0500
8      C8      6.0967   -2.5879    5.8423 C.3      1 ZINC000008214528    0.0400
9      O9      5.2445   -1.9609    6.8037 O.3      1 ZINC000008214528   -0.3700
10     C10     4.4675   -0.8808    6.2808 C.3      1 ZINC000008214528    0.0500
11     C11     3.5289   -1.4118    5.1973 C.3      1 ZINC000008214528    0.0700
12     S12     4.7754   -2.0817    0.2455 S.o2     1 ZINC000008214528    2.4500
13     O13     3.4606   -2.4915   -0.1047 O.2      1 ZINC000008214528   -0.9100
14     O14     5.1228   -0.7072    0.1481 O.2      1 ZINC000008214528   -0.9000
15     C15     5.9610   -3.0480   -0.7298 C.3      1 ZINC000008214528   -0.6100
16     C16     5.8091   -2.6966   -2.2111 C.3      1 ZINC000008214528   -0.0900
17     H17     4.7730   -2.8449   -2.5153 H        1 ZINC000008214528    0.1100
18     C18     6.2009   -1.2340   -2.4311 C.3      1 ZINC000008214528   -0.1000
19     C19     5.9620   -0.8612   -3.8716 C.ar     1 ZINC000008214528   -0.1000
20     C20     6.9824   -0.9851   -4.7959 C.ar     1 ZINC000008214528   -0.1100
21     C21     6.7632   -0.6431   -6.1173 C.ar     1 ZINC000008214528   -0.1000
22     C22     5.5237   -0.1776   -6.5143 C.ar     1 ZINC000008214528   -0.1000
23     C23     4.5030   -0.0546   -5.5901 C.ar     1 ZINC000008214528   -0.1100
24     C24     4.7209   -0.4006   -4.2697 C.ar     1 ZINC000008214528   -0.1100
25     C25     6.7062   -3.5859   -3.0329 C.2      1 ZINC000008214528    0.5300
26     O26     7.7906   -3.9174   -2.6025 O.2      1 ZINC000008214528   -0.5300
27     N27     6.3035   -4.0130   -4.2461 N.am     1 ZINC000008214528   -0.7100
28     C28     7.1307   -4.9565   -5.0023 C.3      1 ZINC000008214528    0.1200
29     H29     8.1783   -4.8152   -4.7366 H        1 ZINC000008214528    0.1300
30     C30     6.7080   -6.3881   -4.6665 C.3      1 ZINC000008214528   -0.0700
31     C31     7.0036   -6.6721   -3.2163 C.2      1 ZINC000008214528    0.0400
32     C32     8.1840   -7.0834   -2.7152 C.2      1 ZINC000008214528    0.0500
33     N33     8.0150   -7.2181   -1.3635 N.pl3    1 ZINC000008214528   -0.5000
34     C34     6.7363   -6.8842   -1.0856 C.cat    1 ZINC000008214528    0.2900
35     N35     6.1389   -6.5540   -2.1978 N.pl3    1 ZINC000008214528   -0.4700
36     H36     5.2139   -6.2727   -2.2763 H        1 ZINC000008214528    0.4600
37     C37     6.9495   -4.7124   -6.4783 C.2      1 ZINC000008214528    0.4900
38     O38     6.1036   -3.9339   -6.8649 O.2      1 ZINC000008214528   -0.4700
39     N39     7.7274   -5.3591   -7.3688 N.am     1 ZINC000008214528   -0.7100
40     C40     7.5512   -5.1218   -8.8037 C.3      1 ZINC000008214528    0.1200
41     H41     7.2808   -4.0789   -8.9690 H        1 ZINC000008214528    0.1100
42     C42     8.8582   -5.4320   -9.5362 C.3      1 ZINC000008214528   -0.1300
43     C43     9.9215   -4.4063   -9.1385 C.3      1 ZINC000008214528   -0.0800
44     C44    10.3045   -4.6112   -7.6715 C.3      1 ZINC000008214528   -0.1300
45     C45    11.3678   -3.5855   -7.2739 C.3      1 ZINC000008214528   -0.1200
46     C46    12.6059   -3.7670   -8.1543 C.3      1 ZINC000008214528   -0.1200
47     C47    12.2229   -3.5620   -9.6214 C.3      1 ZINC000008214528   -0.1200
48     C48    11.1596   -4.5877  -10.0190 C.3      1 ZINC000008214528   -0.1200
49     C49     6.4399   -6.0276   -9.3378 C.3      1 ZINC000008214528    0.0600
50     H50     6.3267   -5.8701  -10.4104 H        1 ZINC000008214528    0.0700
51     O51     6.7784   -7.3936   -9.0901 O.3      1 ZINC000008214528   -0.5500
52     C52     5.1248   -5.6920   -8.6315 C.3      1 ZINC000008214528    0.1600
53     H53     5.2566   -5.7873   -7.5537 H        1 ZINC000008214528    0.1000
54     O54     4.7426   -4.3519   -8.9480 O.3      1 ZINC000008214528   -0.5200
55     C55     4.0338   -6.6574   -9.0993 C.3      1 ZINC000008214528   -0.1900
56     C56     3.5044   -7.6711   -8.0829 C.3      1 ZINC000008214528   -0.1600
57     C57     2.6350   -6.4846   -8.5041 C.3      1 ZINC000008214528   -0.1700
58     H58     7.2416   -3.0034    1.7189 H        1 ZINC000008214528    0.0900
59     H59     6.8081   -1.3040    2.0225 H        1 ZINC000008214528    0.0900
60     H60     6.7429   -2.4896    3.3485 H        1 ZINC000008214528    0.1000
61     H61     4.9285   -4.4692    3.0667 H        1 ZINC000008214528    0.1000
62     H62     3.9122   -4.3975    1.6072 H        1 ZINC000008214528    0.0900
63     H63     5.6632   -4.6810    1.4593 H        1 ZINC000008214528    0.0800
64     H64     4.6621   -4.0422    5.1420 H        1 ZINC000008214528    0.0900
65     H65     5.8785   -3.5658    3.9292 H        1 ZINC000008214528    0.1200
66     H66     6.6836   -3.3669    6.3291 H        1 ZINC000008214528    0.1100
67     H67     6.7657   -1.8444    5.4090 H        1 ZINC000008214528    0.0600
68     H68     3.8822   -0.4316    7.0832 H        1 ZINC000008214528    0.1200
69     H69     5.1305   -0.1310    5.8491 H        1 ZINC000008214528    0.0600
70     H70     3.0367   -0.5778    4.6970 H        1 ZINC000008214528    0.1100
71     H71     2.7804   -2.0641    5.6473 H        1 ZINC000008214528    0.0900
72     H72     6.9747   -2.8157   -0.4033 H        1 ZINC000008214528    0.1500
73     H73     5.7679   -4.1112   -0.5869 H        1 ZINC000008214528    0.1200
74     H74     5.5979   -0.5953   -1.7857 H        1 ZINC000008214528    0.1100
75     H75     7.2558   -1.1004   -2.1913 H        1 ZINC000008214528    0.0900
76     H76     7.9508   -1.3487   -4.4857 H        1 ZINC000008214528    0.1100
77     H77     7.5606   -0.7392   -6.8393 H        1 ZINC000008214528    0.1200
78     H78     5.3527    0.0902   -7.5465 H        1 ZINC000008214528    0.1200
79     H79     3.5347    0.3094   -5.9003 H        1 ZINC000008214528    0.1200
80     H80     3.9235   -0.3045   -3.5476 H        1 ZINC000008214528    0.1200
81     H81     5.4660   -3.6956   -4.6186 H        1 ZINC000008214528    0.4200
82     H82     5.6396   -6.5037   -4.8489 H        1 ZINC000008214528    0.1100
83     H83     7.2613   -7.0869   -5.2938 H        1 ZINC000008214528    0.1300
84     H84     9.0897   -7.2712   -3.2726 H        1 ZINC000008214528    0.2300
85     H85     8.6880   -7.5006   -0.7247 H        1 ZINC000008214528    0.4700
86     H86     6.2842   -6.8862   -0.1048 H        1 ZINC000008214528    0.2600
87     H87     8.4039   -5.9818   -7.0597 H        1 ZINC000008214528    0.4000
88     H88     9.1982   -6.4315   -9.2651 H        1 ZINC000008214528    0.0700
89     H89     8.6917   -5.3843  -10.6123 H        1 ZINC000008214528    0.0800
90     H90     9.5242   -3.4002   -9.2732 H        1 ZINC000008214528    0.0700
91     H91     9.4225   -4.4820   -7.0443 H        1 ZINC000008214528    0.0700
92     H92    10.7018   -5.6173   -7.5369 H        1 ZINC000008214528    0.0600
93     H93    10.9705   -2.5795   -7.4085 H        1 ZINC000008214528    0.0600
94     H94    11.6407   -3.7315   -6.2287 H        1 ZINC000008214528    0.0600
95     H95    13.3634   -3.0362   -7.8711 H        1 ZINC000008214528    0.0600
96     H96    13.0032   -4.7730   -8.0197 H        1 ZINC000008214528    0.0600
97     H97    11.8256   -2.5559   -9.7560 H        1 ZINC000008214528    0.0600
98     H98    13.1049   -3.6912  -10.2486 H        1 ZINC000008214528    0.0600
99     H99    11.5569   -5.5937   -9.8843 H        1 ZINC000008214528    0.0600
100    H100   10.8868   -4.4417  -11.0641 H        1 ZINC000008214528    0.0600
101    H101    7.6030   -7.6766   -9.5086 H        1 ZINC000008214528    0.3800
102    H102    4.6077   -4.1940   -9.8925 H        1 ZINC000008214528    0.3700
103    H103    4.1024   -6.9760  -10.1394 H        1 ZINC000008214528    0.1000
104    H104    3.2246   -8.6569   -8.4543 H        1 ZINC000008214528    0.0900
105    H105    3.9332   -7.6502   -7.0811 H        1 ZINC000008214528    0.0800
106    H106    2.4919   -5.6832   -7.7793 H        1 ZINC000008214528    0.1000
107    H107    1.7833   -6.6899   -9.1525 H        1 ZINC000008214528    0.0900
@<TRIPOS>BOND
1     1     2     1
2     1     58    1
3     1     59    1
4     1     60    1
5     2     3     1
6     2     4     1
7     2     12    1
8     3     61    1
9     3     62    1
10    3     63    1
11    4     5     2
12    4     6     am
13    6     11    1
14    6     7     1
15    7     8     1
16    7     64    1
17    7     65    1
18    8     9     1
19    8     66    1
20    8     67    1
21    9     10    1
22    10    11    1
23    10    68    1
24    10    69    1
25    11    70    1
26    11    71    1
27    12    13    2
28    12    14    2
29    12    15    1
30    15    16    1
31    15    72    1
32    15    73    1
33    16    17    1
34    16    18    1
35    16    25    1
36    18    19    1
37    18    74    1
38    18    75    1
39    19    24    ar
40    19    20    ar
41    20    21    ar
42    20    76    1
43    21    22    ar
44    21    77    1
45    22    23    ar
46    22    78    1
47    23    24    ar
48    23    79    1
49    24    80    1
50    25    26    2
51    25    27    am
52    27    28    1
53    27    81    1
54    28    29    1
55    28    30    1
56    28    37    1
57    30    31    1
58    30    82    1
59    30    83    1
60    31    35    1
61    31    32    2
62    32    33    1
63    32    84    1
64    33    34    ar
65    33    85    1
66    34    35    ar
67    34    86    1
68    35    36    1
69    37    38    2
70    37    39    am
71    39    40    1
72    39    87    1
73    40    41    1
74    40    42    1
75    40    49    1
76    42    43    1
77    42    88    1
78    42    89    1
79    43    48    1
80    43    44    1
81    43    90    1
82    44    45    1
83    44    91    1
84    44    92    1
85    45    46    1
86    45    93    1
87    45    94    1
88    46    47    1
89    46    95    1
90    46    96    1
91    47    48    1
92    47    97    1
93    47    98    1
94    48    99    1
95    48    100   1
96    49    50    1
97    49    51    1
98    49    52    1
99    51    101   1
100   52    53    1
101   52    54    1
102   52    55    1
103   54    102   1
104   55    57    1
105   55    56    1
106   55    103   1
107   56    57    1
108   56    104   1
109   56    105   1
110   57    106   1
111   57    107   1
@<TRIPOS>SUBSTRUCTURE
1   ZINC000008214528 1     RESIDUE    1   A     ZIN   1
