@<TRIPOS>MOLECULE
ZINC000038253214
53    55    1     0     0
SMALL
USER_CHARGES
@<TRIPOS>ATOM
1      C1      0.2281    1.4937    0.0729 C.3      1 ZINC000038253214    0.0600
2      O2      0.2089    0.0419    0.0587 O.3      1 ZINC000038253214   -0.3700
3      C3      0.8238   -0.5875    1.0777 C.2      1 ZINC000038253214    0.6500
4      O4      1.3618    0.0586    1.9549 O.2      1 ZINC000038253214   -0.5700
5      N5      0.8425   -1.9343    1.1248 N.am     1 ZINC000038253214   -0.6000
6      C6      0.2028   -2.7356    0.0703 C.3      1 ZINC000038253214    0.1200
7      C7      1.2129   -3.7714   -0.4345 C.3      1 ZINC000038253214    0.0400
8      N8      1.7294   -4.5423    0.7043 N.3      1 ZINC000038253214   -0.5300
9      C9      2.5692   -5.6577    0.2474 C.3      1 ZINC000038253214    0.1000
10     C10     2.8776   -6.5639    1.4113 C.ar     1 ZINC000038253214   -0.1000
11     C11     4.0955   -6.4667    2.0588 C.ar     1 ZINC000038253214   -0.1100
12     C12     4.3824   -7.2963    3.1272 C.ar     1 ZINC000038253214   -0.1000
13     C13     3.4528   -8.2258    3.5520 C.ar     1 ZINC000038253214   -0.1000
14     C14     2.2288   -8.3273    2.9053 C.ar     1 ZINC000038253214    0.1300
15     N15     1.2843   -9.2685    3.3341 N.am     1 ZINC000038253214   -0.6700
16     C16     1.3070   -9.7149    4.6056 C.2      1 ZINC000038253214    0.7100
17     O17     2.0780   -9.2251    5.4082 O.2      1 ZINC000038253214   -0.5500
18     N18     0.4751  -10.7042    4.9875 N.am     1 ZINC000038253214   -0.6700
19     C19     0.4137  -11.0868    6.3324 C.ar     1 ZINC000038253214    0.1100
20     C20     0.7429  -10.1835    7.3396 C.ar     1 ZINC000038253214   -0.0800
21     C21     0.6667  -10.6090    8.6559 C.ar     1 ZINC000038253214   -0.1500
22     C22     0.2699  -11.9056    8.9245 C.ar     1 ZINC000038253214    0.1100
23     C23     0.1842  -12.3754   10.3538 C.3      1 ZINC000038253214   -0.1000
24     N24    -0.0353  -12.7370    7.9473 N.ar     1 ZINC000038253214   -0.4600
25     C25     0.0181  -12.3713    6.6822 C.ar     1 ZINC000038253214    0.0800
26     C26     1.9401   -7.4883    1.8348 C.ar     1 ZINC000038253214    0.0900
27     F27     0.7501   -7.5834    1.2024 F        1 ZINC000038253214   -0.1300
28     C28     2.4623   -3.6814    1.6422 C.3      1 ZINC000038253214    0.0400
29     C29     1.5086   -2.6419    2.2289 C.3      1 ZINC000038253214    0.1300
30     H30     1.2603    1.8436    0.0531 H        1 ZINC000038253214    0.0600
31     H31    -0.3008    1.8727   -0.8017 H        1 ZINC000038253214    0.1000
32     H32    -0.2606    1.8548    0.9778 H        1 ZINC000038253214    0.0600
33     H33    -0.6714   -3.2444    0.4766 H        1 ZINC000038253214    0.0800
34     H34    -0.0974   -2.0859   -0.7519 H        1 ZINC000038253214    0.1000
35     H35     0.7227   -4.4450   -1.1374 H        1 ZINC000038253214    0.0900
36     H36     2.0377   -3.2622   -0.9331 H        1 ZINC000038253214    0.0400
37     H37     2.0392   -6.2206   -0.5208 H        1 ZINC000038253214    0.0900
38     H38     3.4993   -5.2669   -0.1652 H        1 ZINC000038253214    0.0500
39     H39     4.8246   -5.7413    1.7291 H        1 ZINC000038253214    0.1300
40     H40     5.3348   -7.2178    3.6302 H        1 ZINC000038253214    0.1400
41     H41     3.6785   -8.8734    4.3863 H        1 ZINC000038253214    0.1600
42     H42     0.6138   -9.5991    2.7160 H        1 ZINC000038253214    0.4100
43     H43    -0.0810  -11.1510    4.3303 H        1 ZINC000038253214    0.4100
44     H44     1.0502   -9.1761    7.1006 H        1 ZINC000038253214    0.1600
45     H45     0.9150   -9.9355    9.4629 H        1 ZINC000038253214    0.1400
46     H46    -0.8157  -12.1801   10.7412 H        1 ZINC000038253214    0.0800
47     H47     0.3882  -13.4453   10.3974 H        1 ZINC000038253214    0.0800
48     H48     0.9183  -11.8407   10.9566 H        1 ZINC000038253214    0.0800
49     H49    -0.2392  -13.0805    5.9094 H        1 ZINC000038253214    0.1600
50     H50     2.8781   -4.2897    2.4453 H        1 ZINC000038253214    0.1000
51     H51     3.2697   -3.1734    1.1147 H        1 ZINC000038253214    0.0400
52     H52     2.0698   -1.9312    2.8356 H        1 ZINC000038253214    0.1000
53     H53     0.7578   -3.1391    2.8430 H        1 ZINC000038253214    0.0800
@<TRIPOS>BOND
1     1     2     1
2     1     30    1
3     1     31    1
4     1     32    1
5     2     3     1
6     3     4     2
7     3     5     am
8     5     29    1
9     5     6     1
10    6     7     1
11    6     33    1
12    6     34    1
13    7     8     1
14    7     35    1
15    7     36    1
16    8     9     1
17    8     28    1
18    9     10    1
19    9     37    1
20    9     38    1
21    10    26    ar
22    10    11    ar
23    11    12    ar
24    11    39    1
25    12    13    ar
26    12    40    1
27    13    14    ar
28    13    41    1
29    14    15    1
30    14    26    ar
31    15    16    am
32    15    42    1
33    16    17    2
34    16    18    am
35    18    19    1
36    18    43    1
37    19    25    ar
38    19    20    ar
39    20    21    ar
40    20    44    1
41    21    22    ar
42    21    45    1
43    22    23    1
44    22    24    ar
45    23    46    1
46    23    47    1
47    23    48    1
48    24    25    ar
49    25    49    1
50    26    27    1
51    28    29    1
52    28    50    1
53    28    51    1
54    29    52    1
55    29    53    1
@<TRIPOS>SUBSTRUCTURE
1   ZINC000038253214 1     RESIDUE    1   A     ZIN   1
