@<TRIPOS>MOLECULE
ZINC000000596677
51    55    1     0     0
SMALL
USER_CHARGES
@<TRIPOS>ATOM
1      C1     -2.1994    1.5324    0.0299 C.3      1 ZINC000000596677    0.0200
2      O2     -2.3316    0.0864    0.0233 O.3      1 ZINC000000596677   -0.3500
3      C3     -1.1909   -0.6325    0.0100 C.2      1 ZINC000000596677    0.5500
4      O4     -0.1151   -0.0658    0.0042 O.2      1 ZINC000000596677   -0.5000
5      C5     -1.2478   -2.0988    0.0027 C.2      1 ZINC000000596677   -0.2300
6      C6     -1.1781   -2.9355    1.1051 C.2      1 ZINC000000596677    0.1400
7      C7     -1.1751   -2.3436    2.4865 C.3      1 ZINC000000596677    0.1800
8      H8     -2.2099   -2.3318    2.8289 H        1 ZINC000000596677    0.0800
9      C9     -0.7397   -0.8772    2.3414 C.3      1 ZINC000000596677   -0.0400
10     N10    -0.7882   -0.1984    3.6397 N.4      1 ZINC000000596677   -0.3800
11     H11    -0.5019    0.7631    3.5314 H        1 ZINC000000596677    0.4400
12     C12    -2.1554   -0.2503    4.1745 C.3      1 ZINC000000596677   -0.0600
13     C13     0.1309   -0.8887    4.5585 C.3      1 ZINC000000596677   -0.0100
14     C14    -0.3786   -2.3124    4.7705 C.3      1 ZINC000000596677    0.0200
15     N15    -0.4167   -3.0263    3.4745 N.3      1 ZINC000000596677   -0.5300
16     C16    -0.5780   -4.3703    3.7471 C.ar     1 ZINC000000596677    0.1500
17     C17    -0.5796   -4.6152    5.1393 C.ar     1 ZINC000000596677   -0.2100
18     C18    -0.6307   -5.8831    5.6558 C.ar     1 ZINC000000596677   -0.0700
19     C19    -0.6720   -6.9603    4.7885 C.ar     1 ZINC000000596677   -0.1300
20     C20    -0.7098   -6.7284    3.4371 C.ar     1 ZINC000000596677   -0.0800
21     C21    -0.7134   -5.4303    2.8973 C.ar     1 ZINC000000596677   -0.1100
22     C22    -0.9727   -5.4243    1.4396 C.3      1 ZINC000000596677    0.1400
23     N23    -1.1842   -4.2210    0.7127 N.pl3    1 ZINC000000596677   -0.4300
24     C24    -1.3582   -4.2662   -0.6669 C.ar     1 ZINC000000596677    0.0800
25     C25    -1.4680   -5.3569   -1.5252 C.ar     1 ZINC000000596677   -0.1100
26     C26    -1.6204   -5.0744   -2.8735 C.ar     1 ZINC000000596677   -0.0900
27     C27    -1.6619   -3.7773   -3.3547 C.ar     1 ZINC000000596677   -0.1200
28     C28    -1.5612   -2.6796   -2.5155 C.ar     1 ZINC000000596677   -0.0700
29     C29    -1.3948   -2.9575   -1.1633 C.ar     1 ZINC000000596677   -0.0500
30     H30    -3.1897    1.9877    0.0405 H        1 ZINC000000596677    0.1200
31     H31    -1.6473    1.8427    0.9170 H        1 ZINC000000596677    0.0600
32     H32    -1.6620    1.8522   -0.8629 H        1 ZINC000000596677    0.0800
33     H33     0.2781   -0.8402    1.9530 H        1 ZINC000000596677    0.1600
34     H34    -1.4071   -0.3703    1.6445 H        1 ZINC000000596677    0.1500
35     H35    -2.4576   -1.2901    4.2989 H        1 ZINC000000596677    0.1200
36     H36    -2.1874    0.2553    5.1396 H        1 ZINC000000596677    0.1400
37     H37    -2.8355    0.2454    3.4819 H        1 ZINC000000596677    0.1300
38     H38     1.1305   -0.9173    4.1250 H        1 ZINC000000596677    0.1500
39     H39     0.1591   -0.3630    5.5130 H        1 ZINC000000596677    0.1500
40     H40     0.2901   -2.8377    5.4524 H        1 ZINC000000596677    0.1600
41     H41    -1.3785   -2.2778    5.2030 H        1 ZINC000000596677    0.0900
42     H42    -0.5388   -3.7758    5.8176 H        1 ZINC000000596677    0.1500
43     H43    -0.6382   -6.0395    6.7244 H        1 ZINC000000596677    0.1400
44     H44    -0.6741   -7.9704    5.1706 H        1 ZINC000000596677    0.1400
45     H45    -0.7377   -7.5726    2.7642 H        1 ZINC000000596677    0.1300
46     H46    -0.1496   -5.9623    0.9696 H        1 ZINC000000596677    0.1000
47     H47    -1.8658   -6.0270    1.2746 H        1 ZINC000000596677    0.1000
48     H48    -1.4356   -6.3723   -1.1587 H        1 ZINC000000596677    0.1400
49     H49    -1.7093   -5.8935   -3.5717 H        1 ZINC000000596677    0.1300
50     H50    -1.7760   -3.6161   -4.4165 H        1 ZINC000000596677    0.1300
51     H51    -1.5944   -1.6691   -2.8953 H        1 ZINC000000596677    0.1400
@<TRIPOS>BOND
1     1     2     1
2     1     30    1
3     1     31    1
4     1     32    1
5     2     3     1
6     3     4     2
7     3     5     1
8     5     29    1
9     5     6     2
10    6     23    1
11    6     7     1
12    7     8     1
13    7     15    1
14    7     9     1
15    9     10    1
16    9     33    1
17    9     34    1
18    10    11    1
19    10    12    1
20    10    13    1
21    12    35    1
22    12    36    1
23    12    37    1
24    13    14    1
25    13    38    1
26    13    39    1
27    14    15    1
28    14    40    1
29    14    41    1
30    15    16    1
31    16    21    ar
32    16    17    ar
33    17    18    ar
34    17    42    1
35    18    19    ar
36    18    43    1
37    19    20    ar
38    19    44    1
39    20    21    ar
40    20    45    1
41    21    22    1
42    22    23    1
43    22    46    1
44    22    47    1
45    23    24    1
46    24    29    ar
47    24    25    ar
48    25    26    ar
49    25    48    1
50    26    27    ar
51    26    49    1
52    27    28    ar
53    27    50    1
54    28    29    ar
55    28    51    1
@<TRIPOS>SUBSTRUCTURE
1   ZINC000000596677 1     RESIDUE    1   A     ZIN   1
