@<TRIPOS>MOLECULE
ZINC000100007120
53    54    1     0     0
SMALL
USER_CHARGES
@<TRIPOS>ATOM
1      C1      0.0188    1.3801   -0.0271 C.3      1 ZINC000100007120    0.0200
2      O2      0.0256   -0.0488   -0.0200 O.3      1 ZINC000100007120   -0.3000
3      C3      0.6425   -0.6575    1.0260 C.ar     1 ZINC000100007120    0.1100
4      C4      1.2238    0.1082    2.0273 C.ar     1 ZINC000100007120   -0.1800
5      C5      1.8511   -0.5035    3.0910 C.ar     1 ZINC000100007120   -0.0900
6      C6      1.9028   -1.8997    3.1632 C.ar     1 ZINC000100007120   -0.0700
7      C7      2.5710   -2.5551    4.2972 C.2      1 ZINC000100007120   -0.0300
8      C8      3.1353   -1.8099    5.2700 C.2      1 ZINC000100007120   -0.2200
9      C9      3.8014   -2.4633    6.4006 C.2      1 ZINC000100007120    0.4000
10     O10     3.8456   -3.6819    6.4618 O.2      1 ZINC000100007120   -0.4700
11     C11     4.3909   -1.6849    7.4168 C.2      1 ZINC000100007120   -0.3100
12     C12     5.0171   -2.2991    8.4796 C.2      1 ZINC000100007120    0.2200
13     O13     5.0661   -3.6502    8.5475 O.3      1 ZINC000100007120   -0.4400
14     C14     5.6094   -1.5170    9.5006 C.2      1 ZINC000100007120   -0.1800
15     C15     6.3182   -2.1146   10.4849 C.2      1 ZINC000100007120   -0.0600
16     C16     6.8317   -1.3183   11.6079 C.ar     1 ZINC000100007120   -0.0800
17     C17     6.5834    0.0579   11.6639 C.ar     1 ZINC000100007120   -0.0900
18     C18     7.0658    0.8021   12.7185 C.ar     1 ZINC000100007120   -0.1800
19     C19     7.7981    0.1905   13.7269 C.ar     1 ZINC000100007120    0.1200
20     O20     8.2710    0.9296   14.7639 O.3      1 ZINC000100007120   -0.3000
21     C21     7.9769    2.3279   14.7513 C.3      1 ZINC000100007120    0.0200
22     C22     8.0495   -1.1806   13.6786 C.ar     1 ZINC000100007120    0.1000
23     O23     8.7670   -1.7754   14.6690 O.3      1 ZINC000100007120   -0.3000
24     C24     8.9865   -3.1828   14.5556 C.3      1 ZINC000100007120    0.0200
25     C25     7.5660   -1.9351   12.6284 C.ar     1 ZINC000100007120   -0.1500
26     C26     1.3163   -2.6710    2.1530 C.ar     1 ZINC000100007120   -0.1500
27     C27     0.6849   -2.0499    1.0938 C.ar     1 ZINC000100007120    0.1000
28     O28     0.1140   -2.7960    0.1105 O.3      1 ZINC000100007120   -0.3100
29     C29     0.2053   -4.2164    0.2379 C.3      1 ZINC000100007120    0.0200
30     H30     1.0447    1.7483   -0.0375 H        1 ZINC000100007120    0.0600
31     H31    -0.5042    1.7366   -0.9145 H        1 ZINC000100007120    0.1000
32     H32    -0.4892    1.7454    0.8654 H        1 ZINC000100007120    0.0600
33     H33     1.1848    1.1860    1.9724 H        1 ZINC000100007120    0.1400
34     H34     2.3029    0.0947    3.8685 H        1 ZINC000100007120    0.1300
35     H35     2.6101   -3.6330    4.3514 H        1 ZINC000100007120    0.1300
36     H36     3.0962   -0.7320    5.2158 H        1 ZINC000100007120    0.1300
37     H37     4.3518   -0.6069    7.3626 H        1 ZINC000100007120    0.1500
38     H38     5.5901   -3.9881    9.2866 H        1 ZINC000100007120    0.3900
39     H39     5.4950   -0.4431    9.4932 H        1 ZINC000100007120    0.1500
40     H40     6.5069   -3.1773   10.4456 H        1 ZINC000100007120    0.1300
41     H41     6.0143    0.5365   10.8807 H        1 ZINC000100007120    0.1300
42     H42     6.8740    1.8641   12.7606 H        1 ZINC000100007120    0.1400
43     H43     6.8965    2.4720   14.7576 H        1 ZINC000100007120    0.0600
44     H44     8.4114    2.7985   15.6332 H        1 ZINC000100007120    0.1000
45     H45     8.3985    2.7798   13.8534 H        1 ZINC000100007120    0.0600
46     H46     9.5704   -3.5294   15.4083 H        1 ZINC000100007120    0.1000
47     H47     8.0271   -3.6999   14.5380 H        1 ZINC000100007120    0.0600
48     H48     9.5294   -3.3928   13.6341 H        1 ZINC000100007120    0.0600
49     H49     7.7600   -2.9968   12.5900 H        1 ZINC000100007120    0.1400
50     H50     1.3536   -3.7492    2.2042 H        1 ZINC000100007120    0.1400
51     H51    -0.2892   -4.6898   -0.6103 H        1 ZINC000100007120    0.1000
52     H52     1.2541   -4.5126    0.2588 H        1 ZINC000100007120    0.0600
53     H53    -0.2793   -4.5301    1.1625 H        1 ZINC000100007120    0.0600
@<TRIPOS>BOND
1     1     2     1
2     1     30    1
3     1     31    1
4     1     32    1
5     2     3     1
6     3     27    ar
7     3     4     ar
8     4     5     ar
9     4     33    1
10    5     6     ar
11    5     34    1
12    6     7     1
13    6     26    ar
14    7     8     2
15    7     35    1
16    8     9     1
17    8     36    1
18    9     10    2
19    9     11    1
20    11    12    2
21    11    37    1
22    12    13    1
23    12    14    1
24    13    38    1
25    14    15    2
26    14    39    1
27    15    16    1
28    15    40    1
29    16    25    ar
30    16    17    ar
31    17    18    ar
32    17    41    1
33    18    19    ar
34    18    42    1
35    19    20    1
36    19    22    ar
37    20    21    1
38    21    43    1
39    21    44    1
40    21    45    1
41    22    23    1
42    22    25    ar
43    23    24    1
44    24    46    1
45    24    47    1
46    24    48    1
47    25    49    1
48    26    27    ar
49    26    50    1
50    27    28    1
51    28    29    1
52    29    51    1
53    29    52    1
54    29    53    1
@<TRIPOS>SUBSTRUCTURE
1   ZINC000100007120 1     RESIDUE    1   A     ZIN   1
