@<TRIPOS>MOLECULE
ZINC000001532735
27    26    1     0     0
SMALL
USER_CHARGES
@<TRIPOS>ATOM
1      C1     -0.0187    1.5258    0.0104 C.3      1 ZINC000001532735   -0.1500
2      C2      0.0021   -0.0041    0.0020 C.3      1 ZINC000001532735   -0.1300
3      C3      0.7182   -0.4975   -1.2568 C.3      1 ZINC000001532735   -0.1200
4      C4      0.7390   -2.0273   -1.2652 C.3      1 ZINC000001532735   -0.1200
5      C5      1.4551   -2.5207   -2.5240 C.3      1 ZINC000001532735   -0.1200
6      C6      1.4758   -4.0506   -2.5324 C.3      1 ZINC000001532735   -0.1200
7      C7      2.1920   -4.5440   -3.7912 C.3      1 ZINC000001532735   -0.1200
8      C8      2.2127   -6.0738   -3.7996 C.3      1 ZINC000001532735    0.0700
9      O9      2.8816   -6.5347   -4.9753 O.3      1 ZINC000001532735   -0.5800
10     H10     1.0039    1.9031    0.0027 H        1 ZINC000001532735    0.0500
11     H11    -0.5459    1.8868   -0.8726 H        1 ZINC000001532735    0.0500
12     H12    -0.5289    1.8773    0.9072 H        1 ZINC000001532735    0.0500
13     H13     0.5293   -0.3651    0.8851 H        1 ZINC000001532735    0.0600
14     H14    -1.0205   -0.3814    0.0098 H        1 ZINC000001532735    0.0600
15     H15     0.1910   -0.1364   -2.1398 H        1 ZINC000001532735    0.0600
16     H16     1.7408   -0.1202   -1.2645 H        1 ZINC000001532735    0.0600
17     H17     1.2661   -2.3884   -0.3821 H        1 ZINC000001532735    0.0600
18     H18    -0.2836   -2.4046   -1.2575 H        1 ZINC000001532735    0.0600
19     H19     0.9279   -2.1597   -3.4071 H        1 ZINC000001532735    0.0600
20     H20     2.4777   -2.1435   -2.5317 H        1 ZINC000001532735    0.0600
21     H21     2.0030   -4.4117   -1.6494 H        1 ZINC000001532735    0.0600
22     H22     0.4533   -4.4279   -2.5247 H        1 ZINC000001532735    0.0600
23     H23     1.6648   -4.1829   -4.6743 H        1 ZINC000001532735    0.0700
24     H24     3.2146   -4.1667   -3.7990 H        1 ZINC000001532735    0.0700
25     H25     2.7399   -6.4349   -2.9166 H        1 ZINC000001532735    0.0400
26     H26     1.1901   -6.4511   -3.7919 H        1 ZINC000001532735    0.0400
27     H27     2.9322   -7.4977   -5.0471 H        1 ZINC000001532735    0.3800
@<TRIPOS>BOND
1     1     2     1
2     1     10    1
3     1     11    1
4     1     12    1
5     2     3     1
6     2     13    1
7     2     14    1
8     3     4     1
9     3     15    1
10    3     16    1
11    4     5     1
12    4     17    1
13    4     18    1
14    5     6     1
15    5     19    1
16    5     20    1
17    6     7     1
18    6     21    1
19    6     22    1
20    7     8     1
21    7     23    1
22    7     24    1
23    8     9     1
24    8     25    1
25    8     26    1
26    9     27    1
@<TRIPOS>SUBSTRUCTURE
1   ZINC000001532735 1     RESIDUE    1   A     ZIN   1
