@<TRIPOS>MOLECULE
ZINC000004822136
49    52    1     0     0
SMALL
USER_CHARGES
@<TRIPOS>ATOM
1      C1      2.2309    2.1148    0.0449 C.3      1 ZINC000004822136   -0.1800
2      C2      1.3019    0.9793   -0.3893 C.3      1 ZINC000004822136    0.0800
3      N3      1.8955    0.2702   -1.5255 N.am     1 ZINC000004822136   -0.5500
4      C4      1.6320    0.6330   -2.7688 C.2      1 ZINC000004822136    0.5700
5      O5      0.8876    1.5689   -3.0145 O.2      1 ZINC000004822136   -0.5100
6      C6      2.2420   -0.0998   -3.7898 C.2      1 ZINC000004822136   -0.3800
7      C7      2.1178    0.0937   -5.1570 C.2      1 ZINC000004822136    0.2800
8      S8      1.2978    1.4343   -5.9741 S.3      1 ZINC000004822136    0.2000
9      C9      1.6474    0.8498   -7.6067 C.ar     1 ZINC000004822136   -0.1900
10     C10     1.3365    1.3518   -8.8586 C.ar     1 ZINC000004822136   -0.0400
11     C11     1.7434    0.6764   -9.9932 C.ar     1 ZINC000004822136   -0.1100
12     C12     2.4606   -0.5002   -9.8642 C.ar     1 ZINC000004822136   -0.0700
13     C13     2.7719   -1.0030   -8.6224 C.ar     1 ZINC000004822136   -0.1100
14     C14     2.3695   -0.3347   -7.4554 C.ar     1 ZINC000004822136    0.1200
15     N15     2.6057   -0.7039   -6.1446 N.pl3    1 ZINC000004822136   -0.4900
16     C16     3.3571   -1.9211   -5.8282 C.3      1 ZINC000004822136    0.0500
17     S17     3.2108   -1.3311   -2.9577 S.3      1 ZINC000004822136    0.0900
18     C18     2.7500   -0.7917   -1.3321 C.2      1 ZINC000004822136    0.1800
19     C19     3.1501   -1.3195   -0.1468 C.2      1 ZINC000004822136   -0.2700
20     C20     2.6815   -0.7331    1.1117 C.ar     1 ZINC000004822136    0.2400
21     C21     3.4837    0.1954    1.7891 C.ar     1 ZINC000004822136   -0.1100
22     C22     3.0264    0.7375    2.9731 C.ar     1 ZINC000004822136   -0.0100
23     C23     1.7821    0.3400    3.4507 C.ar     1 ZINC000004822136   -0.1200
24     C24     1.0404   -0.5795    2.7351 C.ar     1 ZINC000004822136    0.1100
25     N25     1.4924   -1.0819    1.6030 N.ar     1 ZINC000004822136   -0.3400
26     C26     0.6743   -2.0547    0.8746 C.3      1 ZINC000004822136    0.0500
27     C27     1.2736   -3.4524    1.0426 C.3      1 ZINC000004822136   -0.1800
28     H28     3.1888    1.7005    0.3594 H        1 ZINC000004822136    0.0700
29     H29     2.3868    2.7965   -0.7912 H        1 ZINC000004822136    0.0800
30     H30     1.7789    2.6564    0.8758 H        1 ZINC000004822136    0.0800
31     H31     1.1640    0.2856    0.4401 H        1 ZINC000004822136    0.0700
32     H32     0.3365    1.3916   -0.6825 H        1 ZINC000004822136    0.1100
33     H33     0.7760    2.2706   -8.9485 H        1 ZINC000004822136    0.1400
34     H34     1.5034    1.0633  -10.9726 H        1 ZINC000004822136    0.1500
35     H35     2.7795   -1.0302  -10.7495 H        1 ZINC000004822136    0.1500
36     H36     3.3326   -1.9228   -8.5442 H        1 ZINC000004822136    0.1400
37     H37     3.5871   -2.4560   -6.7496 H        1 ZINC000004822136    0.1100
38     H38     4.2847   -1.6541   -5.3219 H        1 ZINC000004822136    0.0900
39     H39     2.7586   -2.5588   -5.1776 H        1 ZINC000004822136    0.0900
40     H40     3.8137   -2.1714   -0.1316 H        1 ZINC000004822136    0.1800
41     H41     4.4456    0.4822    1.3905 H        1 ZINC000004822136    0.1800
42     H42     3.6224    1.4550    3.5175 H        1 ZINC000004822136    0.1800
43     H43     1.3987    0.7471    4.3746 H        1 ZINC000004822136    0.1800
44     H44     0.0742   -0.8881    3.1060 H        1 ZINC000004822136    0.2000
45     H45    -0.3411   -2.0447    1.2708 H        1 ZINC000004822136    0.1300
46     H46     0.6542   -1.7928   -0.1833 H        1 ZINC000004822136    0.1200
47     H47     2.3172   -3.4405    0.7281 H        1 ZINC000004822136    0.0800
48     H48     1.2130   -3.7503    2.0894 H        1 ZINC000004822136    0.0800
49     H49     0.7176   -4.1622    0.4301 H        1 ZINC000004822136    0.1000
@<TRIPOS>BOND
1     1     2     1
2     1     28    1
3     1     29    1
4     1     30    1
5     2     3     1
6     2     31    1
7     2     32    1
8     3     18    1
9     3     4     am
10    4     5     2
11    4     6     1
12    6     7     2
13    6     17    1
14    7     15    1
15    7     8     1
16    8     9     1
17    9     14    ar
18    9     10    ar
19    10    11    ar
20    10    33    1
21    11    12    ar
22    11    34    1
23    12    13    ar
24    12    35    1
25    13    14    ar
26    13    36    1
27    14    15    1
28    15    16    1
29    16    37    1
30    16    38    1
31    16    39    1
32    17    18    1
33    18    19    2
34    19    20    1
35    19    40    1
36    20    25    ar
37    20    21    ar
38    21    22    ar
39    21    41    1
40    22    23    ar
41    22    42    1
42    23    24    ar
43    23    43    1
44    24    25    ar
45    24    44    1
46    25    26    1
47    26    27    1
48    26    45    1
49    26    46    1
50    27    47    1
51    27    48    1
52    27    49    1
@<TRIPOS>SUBSTRUCTURE
1   ZINC000004822136 1     RESIDUE    1   A     ZIN   1
