@<TRIPOS>MOLECULE
ZINC000003972069
32    33    1     0     0
SMALL
USER_CHARGES
@<TRIPOS>ATOM
1      O1      0.0021   -0.0041    0.0020 O.co2    1 ZINC000003972069   -0.7000
2      C2     -0.0145    1.2150    0.0087 C.2      1 ZINC000003972069    0.4900
3      O3      1.0330    1.8389    0.0021 O.co2    1 ZINC000003972069   -0.7000
4      C4     -1.3296    1.9507    0.0190 C.3      1 ZINC000003972069   -0.1800
5      C5     -2.4790    0.9408    0.0189 C.3      1 ZINC000003972069   -0.0600
6      C6     -3.7941    1.6764    0.0292 C.ar     1 ZINC000003972069   -0.0500
7      C7     -4.3878    2.0118    1.2320 C.ar     1 ZINC000003972069   -0.0600
8      C8     -5.5937    2.6869    1.2444 C.ar     1 ZINC000003972069   -0.1100
9      I9     -6.4920    3.1951    3.0675 I        1 ZINC000003972069   -0.0200
10     C10    -6.2087    3.0282    0.0480 C.ar     1 ZINC000003972069    0.1200
11     O11    -7.3943    3.6924    0.0572 O.3      1 ZINC000003972069   -0.2400
12     C12    -7.3644    5.0516    0.0587 C.ar     1 ZINC000003972069    0.1200
13     C13    -6.1482    5.7188    0.0451 C.ar     1 ZINC000003972069   -0.1700
14     C14    -6.1179    7.0996    0.0461 C.ar     1 ZINC000003972069   -0.1000
15     C15    -7.3036    7.8193    0.0607 C.ar     1 ZINC000003972069    0.0700
16     O16    -7.2737    9.1788    0.0617 O.3      1 ZINC000003972069   -0.5000
17     C17    -8.5197    7.1524    0.0738 C.ar     1 ZINC000003972069   -0.1100
18     C18    -8.5502    5.7716    0.0680 C.ar     1 ZINC000003972069   -0.1200
19     C19    -5.6105    2.6902   -1.1579 C.ar     1 ZINC000003972069   -0.1100
20     I20    -6.5346    3.2030   -2.9668 I        1 ZINC000003972069   -0.0200
21     C21    -4.4020    2.0198   -1.1643 C.ar     1 ZINC000003972069   -0.0600
22     H22    -1.3917    2.5717    0.9126 H        1 ZINC000003972069    0.0600
23     H23    -1.4001    2.5813   -0.8673 H        1 ZINC000003972069    0.0600
24     H24    -2.4169    0.3198   -0.8748 H        1 ZINC000003972069    0.0800
25     H25    -2.4085    0.3101    0.9052 H        1 ZINC000003972069    0.0800
26     H26    -3.9089    1.7457    2.1627 H        1 ZINC000003972069    0.1400
27     H27    -5.2250    5.1584    0.0340 H        1 ZINC000003972069    0.1300
28     H28    -5.1711    7.6190    0.0358 H        1 ZINC000003972069    0.1300
29     H29    -7.2754    9.5729   -0.8214 H        1 ZINC000003972069    0.3900
30     H30    -9.4428    7.7129    0.0852 H        1 ZINC000003972069    0.1400
31     H31    -9.4972    5.2523    0.0783 H        1 ZINC000003972069    0.1400
32     H32    -3.9360    1.7566   -2.1024 H        1 ZINC000003972069    0.1400
@<TRIPOS>BOND
1     1     2     ar
2     2     3     ar
3     2     4     1
4     4     5     1
5     4     22    1
6     4     23    1
7     5     6     1
8     5     24    1
9     5     25    1
10    6     21    ar
11    6     7     ar
12    7     8     ar
13    7     26    1
14    8     9     1
15    8     10    ar
16    10    11    1
17    10    19    ar
18    11    12    1
19    12    18    ar
20    12    13    ar
21    13    14    ar
22    13    27    1
23    14    15    ar
24    14    28    1
25    15    16    1
26    15    17    ar
27    16    29    1
28    17    18    ar
29    17    30    1
30    18    31    1
31    19    20    1
32    19    21    ar
33    21    32    1
@<TRIPOS>SUBSTRUCTURE
1   ZINC000003972069 1     RESIDUE    1   A     ZIN   1
