@<TRIPOS>MOLECULE
ZINC000000105086
33    35    1     0     0
SMALL
USER_CHARGES
@<TRIPOS>ATOM
1      O1      0.0021   -0.0041    0.0020 O.2      1 ZINC000000105086   -0.4700
2      C2     -0.0144    1.2096    0.0087 C.2      1 ZINC000000105086    0.3800
3      C3      1.2230    1.9976    0.0011 C.ar     1 ZINC000000105086   -0.4000
4      C4      2.4631    1.3859    0.2415 C.ar     1 ZINC000000105086    0.2300
5      O5      2.5307    0.0556    0.4962 O.3      1 ZINC000000105086   -0.5000
6      C6      3.6162    2.1504    0.2172 C.ar     1 ZINC000000105086   -0.3100
7      C7      3.5423    3.5133   -0.0416 C.ar     1 ZINC000000105086    0.3300
8      O8      4.6784    4.2545   -0.0664 O.3      1 ZINC000000105086   -0.6900
9      C9      2.3170    4.1252   -0.2749 C.ar     1 ZINC000000105086   -0.3000
10     C10     1.1516    3.3801   -0.2531 C.ar     1 ZINC000000105086    0.2200
11     O11    -0.0407    3.9837   -0.4692 O.3      1 ZINC000000105086   -0.3000
12     C12    -1.1390    3.1896   -0.9172 C.3      1 ZINC000000105086    0.1500
13     H13    -0.9412    2.8324   -1.9279 H        1 ZINC000000105086    0.0900
14     C14    -2.3955    4.0217   -0.9142 C.ar     1 ZINC000000105086   -0.0700
15     C15    -2.5846    4.9813    0.0622 C.ar     1 ZINC000000105086   -0.0600
16     C16    -3.7359    5.7474    0.0693 C.ar     1 ZINC000000105086   -0.1300
17     C17    -4.7026    5.5538   -0.9037 C.ar     1 ZINC000000105086    0.0800
18     O18    -5.8352    6.3066   -0.8984 O.3      1 ZINC000000105086   -0.4900
19     C19    -4.5121    4.5873   -1.8871 C.ar     1 ZINC000000105086    0.0700
20     O20    -5.4583    4.3935   -2.8445 O.3      1 ZINC000000105086   -0.4900
21     C21    -3.3541    3.8272   -1.8918 C.ar     1 ZINC000000105086   -0.1200
22     C22    -1.3166    1.9899    0.0189 C.3      1 ZINC000000105086    0.0400
23     H23    -2.1305    1.3586   -0.3376 H        1 ZINC000000105086    0.0800
24     O24    -1.5988    2.4484    1.3426 O.3      1 ZINC000000105086   -0.5300
25     H25     2.6384   -0.4911   -0.2941 H        1 ZINC000000105086    0.3800
26     H26     4.5747    1.6870    0.3992 H        1 ZINC000000105086    0.1100
27     H27     2.2742    5.1858   -0.4739 H        1 ZINC000000105086    0.1100
28     H28    -1.8318    5.1330    0.8216 H        1 ZINC000000105086    0.1400
29     H29    -3.8814    6.4964    0.8336 H        1 ZINC000000105086    0.1300
30     H30    -5.7663    7.1243   -1.4101 H        1 ZINC000000105086    0.3900
31     H31    -5.3358    4.9376   -3.6345 H        1 ZINC000000105086    0.3800
32     H32    -3.2018    3.0796   -2.6562 H        1 ZINC000000105086    0.1300
33     H33    -1.6908    1.7390    1.9933 H        1 ZINC000000105086    0.3800
@<TRIPOS>BOND
1     1     2     2
2     2     22    1
3     2     3     1
4     3     10    ar
5     3     4     ar
6     4     5     1
7     4     6     ar
8     5     25    1
9     6     7     ar
10    6     26    1
11    7     8     1
12    7     9     ar
13    9     10    ar
14    9     27    1
15    10    11    1
16    11    12    1
17    12    13    1
18    12    14    1
19    12    22    1
20    14    21    ar
21    14    15    ar
22    15    16    ar
23    15    28    1
24    16    17    ar
25    16    29    1
26    17    18    1
27    17    19    ar
28    18    30    1
29    19    20    1
30    19    21    ar
31    20    31    1
32    21    32    1
33    22    23    1
34    22    24    1
35    24    33    1
@<TRIPOS>SUBSTRUCTURE
1   ZINC000000105086 1     RESIDUE    1   A     ZIN   1
