@<TRIPOS>MOLECULE
ZINC000013676140
  45   48    0    0    0
SMALL
USER_CHARGES
NO_NAME
@<TRIPOS>ATOM
    1 C1       -0.0242     1.4932    -0.0315 C.3    1 <0>       0.1300
    2 N2        0.0015     0.0285    -0.0169 N.pl3  1 <0>      -0.6800
    3 C3        0.0292    -0.6910     1.2589 C.3    1 <0>       0.1200
    4 C4       -0.0002    -0.6773    -1.2116 C.ar   1 <0>       0.2900
    5 C5       -1.2209    -1.0626    -1.8248 C.ar   1 <0>      -0.1300
    6 C6       -1.1704    -1.7688    -3.0217 C.ar   1 <0>       0.0800
    7 N7        0.0116    -2.0719    -3.5722 N.ar   1 <0>      -0.4600
    8 C8        1.1540    -1.7255    -3.0224 C.ar   1 <0>       0.1600
    9 C9        1.1917    -1.0174    -1.8366 C.ar   1 <0>      -0.1900
   10 S10      -2.7953    -2.1328    -3.5848 S.3    1 <0>       0.2600
   11 C11      -3.5437    -1.3362    -2.2123 C.2    1 <0>      -0.3100
   12 C12      -2.5899    -0.8163    -1.3636 C.2    1 <0>       0.2000
   13 N13      -2.9966    -0.1612    -0.2418 N.2    1 <0>      -0.4800
   14 C14      -4.2532    -0.0152     0.0463 C.2    1 <0>       0.3400
   15 N15      -5.2345    -0.5063    -0.7527 N.am   1 <0>      -0.3700
   16 N16      -6.5453    -0.3294    -0.4116 N.3    1 <0>      -0.3100
   17 C17      -6.9298    -1.2273     0.7003 C.3    1 <0>       0.0400
   18 C18      -6.5977    -0.6572     2.0524 C.3    1 <0>      -0.1500
   19 C19      -7.8402     0.0831     2.5902 C.3    1 <0>      -0.1200
   20 C20      -8.0010     1.4008     1.9853 C.3    1 <0>      -0.1300
   21 C21      -8.1903     1.3207     0.4559 C.3    1 <0>      -0.1200
   22 C22      -6.8450     1.1014    -0.1808 C.3    1 <0>       0.0400
   23 C23      -4.9155    -1.1683    -1.8826 C.2    1 <0>       0.5800
   24 O24      -5.7882    -1.6139    -2.6090 O.2    1 <0>      -0.4900
   25 H25       0.9968     1.8744    -0.0472 H      1 <0>       0.0400
   26 H26      -0.5547     1.8385    -0.9189 H      1 <0>       0.0500
   27 H27      -0.5340     1.8565     0.8608 H      1 <0>       0.0600
   28 H28       0.0263     0.0256     2.0803 H      1 <0>       0.0700
   29 H29      -0.8489    -1.3324     1.3334 H      1 <0>       0.0400
   30 H30       0.9307    -1.3013     1.3124 H      1 <0>       0.0400
   31 H31       2.0798    -1.9953    -3.5085 H      1 <0>       0.1700
   32 H32       2.1379    -0.7395    -1.3963 H      1 <0>       0.1500
   33 H33      -4.5264     0.5121     0.9483 H      1 <0>       0.2000
   34 H34      -8.0033    -1.4096     0.6498 H      1 <0>       0.1100
   35 H35      -6.4083    -2.1770     0.5816 H      1 <0>       0.0800
   36 H36      -6.3287    -1.4641     2.7340 H      1 <0>       0.0800
   37 H37      -5.7661     0.0415     1.9611 H      1 <0>       0.0600
   38 H38      -8.7271    -0.5140     2.3782 H      1 <0>       0.0700
   39 H39      -7.7434     0.1988     3.6697 H      1 <0>       0.0700
   40 H40      -8.8716     1.8879     2.4245 H      1 <0>       0.0700
   41 H41      -7.1162     1.9996     2.2013 H      1 <0>       0.0600
   42 H42      -8.8510     0.4888     0.2118 H      1 <0>       0.0800
   43 H43      -8.6206     2.2532     0.0908 H      1 <0>       0.0900
   44 H44      -6.0764     1.5212     0.4682 H      1 <0>       0.0500
   45 H45      -6.8190     1.6246    -1.1367 H      1 <0>       0.0900
@<TRIPOS>BOND
   1    1    2 1
   2    1   25 1
   3    1   26 1
   4    1   27 1
   5    2    3 1
   6    2    4 1
   7    3   28 1
   8    3   29 1
   9    3   30 1
  10    4    9 ar
  11    4    5 ar
  12    5   12 1
  13    5    6 ar
  14    6    7 ar
  15    6   10 1
  16    7    8 ar
  17    8    9 ar
  18    8   31 1
  19    9   32 1
  20   10   11 1
  21   11   23 1
  22   11   12 2
  23   12   13 1
  24   13   14 2
  25   14   15 1
  26   14   33 1
  27   15   16 1
  28   15   23 am
  29   16   22 1
  30   16   17 1
  31   17   18 1
  32   17   34 1
  33   17   35 1
  34   18   19 1
  35   18   36 1
  36   18   37 1
  37   19   20 1
  38   19   38 1
  39   19   39 1
  40   20   21 1
  41   20   40 1
  42   20   41 1
  43   21   22 1
  44   21   42 1
  45   21   43 1
  46   22   44 1
  47   22   45 1
  48   23   24 2
