@<TRIPOS>MOLECULE
ZINC000001915505
  44   45    0    0    0
SMALL
USER_CHARGES
NO_NAME
@<TRIPOS>ATOM
    1 C1       -0.0187     1.5258     0.0104 C.3    1 <0>      -0.1500
    2 C2        0.0021    -0.0041     0.0020 C.3    1 <0>      -0.1400
    3 C3        0.7182    -0.4975    -1.2568 C.3    1 <0>       0.1000
    4 N4        0.7381    -1.9623    -1.2648 N.pl3  1 <0>      -0.4100
    5 C5        1.7322    -2.7529    -0.8155 C.2    1 <0>       0.2700
    6 N6        1.4058    -4.0094    -0.9804 N.2    1 <0>      -0.5000
    7 C7        0.1957    -4.0930    -1.5392 C.2    1 <0>       0.3200
    8 C8       -0.2608    -2.7947    -1.7288 C.2    1 <0>      -0.1500
    9 C9       -1.5306    -2.5902    -2.3105 C.2    1 <0>       0.5900
   10 O10      -1.9527    -1.4615    -2.4874 O.2    1 <0>      -0.5100
   11 N11      -2.2710    -3.6598    -2.6688 N.am   1 <0>      -0.5500
   12 C12      -3.5895    -3.4546    -3.2735 C.3    1 <0>       0.1100
   13 C13      -3.4445    -3.3626    -4.7939 C.3    1 <0>      -0.1300
   14 C14      -4.8215    -3.1483    -5.4254 C.3    1 <0>      -0.1100
   15 C15      -4.6766    -3.0562    -6.9458 C.3    1 <0>      -0.1700
   16 C16      -6.0329    -2.8452    -7.5679 C.2    1 <0>       0.3500
   17 C17      -6.1646    -2.7210    -9.0639 C.3    1 <0>      -0.2100
   18 O18      -7.0142    -2.7756    -6.8675 O.2    1 <0>      -0.4600
   19 C19      -1.8169    -4.9107    -2.4796 C.2    1 <0>       0.7100
   20 O20      -2.5117    -5.8505    -2.8152 O.2    1 <0>      -0.5300
   21 N21      -0.6137    -5.1494    -1.9244 N.am   1 <0>      -0.5100
   22 C22      -0.1557    -6.5282    -1.7362 C.3    1 <0>       0.0900
   23 H23       1.0039     1.9031     0.0027 H      1 <0>       0.0600
   24 H24      -0.5459     1.8868    -0.8726 H      1 <0>       0.0600
   25 H25      -0.5289     1.8773     0.9072 H      1 <0>       0.0600
   26 H26       0.5293    -0.3651     0.8851 H      1 <0>       0.0700
   27 H27      -1.0205    -0.3814     0.0098 H      1 <0>       0.0700
   28 H28       0.1910    -0.1364    -2.1398 H      1 <0>       0.1000
   29 H29       1.7408    -0.1202    -1.2645 H      1 <0>       0.1000
   30 H30       2.6587    -2.4026    -0.3850 H      1 <0>       0.2300
   31 H31      -4.2396    -4.2922    -3.0206 H      1 <0>       0.1000
   32 H32      -4.0237    -2.5300    -2.8933 H      1 <0>       0.1000
   33 H33      -2.7945    -2.5250    -5.0468 H      1 <0>       0.0700
   34 H34      -3.0103    -4.2872    -5.1741 H      1 <0>       0.0700
   35 H35      -5.4716    -3.9859    -5.1725 H      1 <0>       0.0700
   36 H36      -5.2558    -2.2237    -5.0452 H      1 <0>       0.0700
   37 H37      -4.0265    -2.2186    -7.1987 H      1 <0>       0.1000
   38 H38      -4.2423    -3.9809    -7.3260 H      1 <0>       0.1000
   39 H39      -6.3209    -3.7085    -9.4981 H      1 <0>       0.1000
   40 H40      -7.0140    -2.0808    -9.3020 H      1 <0>       0.0800
   41 H41      -5.2540    -2.2839    -9.4738 H      1 <0>       0.0800
   42 H42      -0.9169    -7.2171    -2.1024 H      1 <0>       0.1000
   43 H43       0.7704    -6.6822    -2.2899 H      1 <0>       0.0800
   44 H44       0.0201    -6.7111    -0.6761 H      1 <0>       0.0800
@<TRIPOS>BOND
   1    1    2 1
   2    1   23 1
   3    1   24 1
   4    1   25 1
   5    2    3 1
   6    2   26 1
   7    2   27 1
   8    3    4 1
   9    3   28 1
  10    3   29 1
  11    4    8 1
  12    4    5 1
  13    5    6 2
  14    5   30 1
  15    6    7 1
  16    7   21 1
  17    7    8 2
  18    8    9 1
  19    9   10 2
  20    9   11 am
  21   11   12 1
  22   11   19 am
  23   12   13 1
  24   12   31 1
  25   12   32 1
  26   13   14 1
  27   13   33 1
  28   13   34 1
  29   14   15 1
  30   14   35 1
  31   14   36 1
  32   15   16 1
  33   15   37 1
  34   15   38 1
  35   16   17 1
  36   16   18 2
  37   17   39 1
  38   17   40 1
  39   17   41 1
  40   19   20 2
  41   19   21 am
  42   21   22 1
  43   22   42 1
  44   22   43 1
  45   22   44 1
