@<TRIPOS>MOLECULE
ZINC000002161992
23    24    1     0     0
SMALL
USER_CHARGES
@<TRIPOS>ATOM
1      Cl1    -0.0005   -0.0042    0.0492 Cl       1 ZINC000002161992   -0.0500
2      C2     -0.0236    1.7317    0.0459 C.ar     1 ZINC000002161992    0.0000
3      C3     -0.0206    2.4246    1.2440 C.ar     1 ZINC000002161992   -0.1200
4      C4     -0.0389    3.8053    1.2447 C.ar     1 ZINC000002161992   -0.0500
5      C5     -0.0600    4.4990    0.0408 C.ar     1 ZINC000002161992   -0.1600
6      S6     -0.0829    6.2609    0.0375 S.3      1 ZINC000002161992    0.0600
7      C7      1.6238    6.6797    0.1653 C.ar     1 ZINC000002161992   -0.0900
8      C8      2.5898    5.6827    0.1242 C.ar     1 ZINC000002161992   -0.1000
9      C9      3.9281    6.0143    0.2248 C.ar     1 ZINC000002161992   -0.0100
10     Cl10    5.1363    4.7689    0.1735 Cl       1 ZINC000002161992   -0.0300
11     C11     4.3058    7.3391    0.3659 C.ar     1 ZINC000002161992   -0.0300
12     Cl12    5.9873    7.7520    0.4908 Cl       1 ZINC000002161992   -0.0300
13     C13     3.3452    8.3347    0.4072 C.ar     1 ZINC000002161992   -0.0700
14     C14     2.0065    8.0098    0.3019 C.ar     1 ZINC000002161992   -0.0100
15     Cl15    0.8024    9.2593    0.3537 Cl       1 ZINC000002161992   -0.0300
16     C16    -0.0625    3.8005   -1.1605 C.ar     1 ZINC000002161992   -0.0500
17     C17    -0.0392    2.4199   -1.1547 C.ar     1 ZINC000002161992   -0.1200
18     H18    -0.0042    1.8849    2.1793 H        1 ZINC000002161992    0.1400
19     H19    -0.0373    4.3455    2.1799 H        1 ZINC000002161992    0.1400
20     H20     2.2958    4.6494    0.0141 H        1 ZINC000002161992    0.1500
21     H21     3.6426    9.3671    0.5174 H        1 ZINC000002161992    0.1600
22     H22    -0.0793    4.3370   -2.0977 H        1 ZINC000002161992    0.1500
23     H23    -0.0408    1.8764   -2.0880 H        1 ZINC000002161992    0.1400
@<TRIPOS>BOND
1     1     2     1
2     2     17    ar
3     2     3     ar
4     3     4     ar
5     3     18    1
6     4     5     ar
7     4     19    1
8     5     6     1
9     5     16    ar
10    6     7     1
11    7     14    ar
12    7     8     ar
13    8     9     ar
14    8     20    1
15    9     10    1
16    9     11    ar
17    11    12    1
18    11    13    ar
19    13    14    ar
20    13    21    1
21    14    15    1
22    16    17    ar
23    16    22    1
24    17    23    1
@<TRIPOS>SUBSTRUCTURE
1   ZINC000002161992 1     RESIDUE    1   A     ZIN   1
