@<TRIPOS>MOLECULE
ZINC000013986815
77    81    1     0     0
SMALL
USER_CHARGES
@<TRIPOS>ATOM
1      C1      0.8455   -0.2548    1.1556 C.3      1 ZINC000013986815   -0.1500
2      C2      0.0942   -0.0506   -0.1615 C.3      1 ZINC000013986815   -0.1500
3      C3     -1.3023   -0.6662   -0.0527 C.3      1 ZINC000013986815    0.0700
4      H4     -1.8158   -0.2456    0.8119 H        1 ZINC000013986815    0.1400
5      C5     -1.1780   -2.1585    0.1178 C.2      1 ZINC000013986815    0.5300
6      O6     -1.2189   -2.6537    1.2244 O.2      1 ZINC000013986815   -0.5000
7      N7     -1.0202   -2.9396   -0.9733 N.am     1 ZINC000013986815   -0.5400
8      C8     -0.7710   -4.3767   -0.8356 C.3      1 ZINC000013986815    0.0700
9      C9     -1.1007   -2.3445   -2.2404 C.ar     1 ZINC000013986815   -0.0300
10     C10    -0.6912   -3.0205   -3.3748 C.ar     1 ZINC000013986815    0.1800
11     N11    -0.7710   -2.4070   -4.5492 N.ar     1 ZINC000013986815   -0.5500
12     C12    -1.2316   -1.1694   -4.6408 C.ar     1 ZINC000013986815    0.5700
13     N13    -1.2885   -0.5636   -5.8873 N.pl3    1 ZINC000013986815   -0.6200
14     C14    -0.9744   -1.2943   -7.0325 C.ar     1 ZINC000013986815    0.1700
15     C15    -1.1089   -2.6778   -7.0313 C.ar     1 ZINC000013986815   -0.1000
16     C16    -0.7993   -3.4036   -8.1605 C.ar     1 ZINC000013986815   -0.0900
17     C17    -0.3495   -2.7496   -9.3103 C.ar     1 ZINC000013986815   -0.1300
18     C18    -0.0182   -3.5262  -10.5202 C.2      1 ZINC000013986815    0.5600
19     O19     0.3731   -2.9561  -11.5204 O.2      1 ZINC000013986815   -0.5400
20     N20    -0.1493   -4.8676  -10.5169 N.am     1 ZINC000013986815   -0.7200
21     C21     0.1797   -5.6387  -11.7183 C.3      1 ZINC000013986815    0.1400
22     C22     1.6809   -5.9400  -11.7379 C.3      1 ZINC000013986815   -0.1300
23     C23     2.0083   -6.7970  -12.9627 C.3      1 ZINC000013986815    0.0600
24     N24     1.2406   -8.0475  -12.9062 N.3      1 ZINC000013986815   -0.5400
25     C25     1.6321   -8.9552  -13.9928 C.3      1 ZINC000013986815    0.0200
26     C26    -0.2040   -7.7854  -12.9342 C.3      1 ZINC000013986815    0.0600
27     C27    -0.5975   -6.9579  -11.7085 C.3      1 ZINC000013986815   -0.1200
28     C28    -0.2144   -1.3579   -9.3126 C.ar     1 ZINC000013986815   -0.1200
29     C29    -0.5309   -0.6346   -8.1804 C.ar     1 ZINC000013986815    0.0800
30     O30    -0.4009    0.7192   -8.1796 O.3      1 ZINC000013986815   -0.3200
31     C31     0.0684    1.3265   -9.3849 C.3      1 ZINC000013986815    0.0300
32     N32    -1.6406   -0.4914   -3.5777 N.ar     1 ZINC000013986815   -0.5600
33     C33    -1.5986   -1.0435   -2.3705 C.ar     1 ZINC000013986815    0.3900
34     N34    -2.0640   -0.3588   -1.2665 N.3      1 ZINC000013986815   -0.4600
35     C35    -2.0880    1.0886   -1.5163 C.3      1 ZINC000013986815    0.0900
36     C36    -3.2606    1.4566   -2.4590 C.3      1 ZINC000013986815   -0.1100
37     C37    -3.5093    2.9492   -2.1286 C.3      1 ZINC000013986815   -0.1300
38     C38    -3.2983    3.0392   -0.6031 C.3      1 ZINC000013986815   -0.1200
39     C39    -2.3946    1.8562   -0.2138 C.3      1 ZINC000013986815   -0.1300
40     H40     1.8640    0.1202    1.0549 H        1 ZINC000013986815    0.0600
41     H41     0.3360    0.2871    1.9524 H        1 ZINC000013986815    0.0600
42     H42     0.8719   -1.3172    1.3980 H        1 ZINC000013986815    0.0600
43     H43     0.0060    1.0160   -0.3679 H        1 ZINC000013986815    0.0900
44     H44     0.6420   -0.5333   -0.9708 H        1 ZINC000013986815    0.0700
45     H45    -0.7449   -4.6413    0.2214 H        1 ZINC000013986815    0.1000
46     H46    -1.5678   -4.9326   -1.3297 H        1 ZINC000013986815    0.0700
47     H47     0.1851   -4.6254   -1.2962 H        1 ZINC000013986815    0.0700
48     H48    -0.3128   -4.0298   -3.3065 H        1 ZINC000013986815    0.1800
49     H49    -1.5467    0.3684   -5.9623 H        1 ZINC000013986815    0.4300
50     H50    -1.4564   -3.1847   -6.1433 H        1 ZINC000013986815    0.1600
51     H51    -0.9039   -4.4785   -8.1568 H        1 ZINC000013986815    0.1300
52     H52    -0.4614   -5.3224   -9.7191 H        1 ZINC000013986815    0.4000
53     H53    -0.0890   -5.0642  -12.6048 H        1 ZINC000013986815    0.0900
54     H54     2.2390   -5.0051  -11.7881 H        1 ZINC000013986815    0.0700
55     H55     1.9554   -6.4802  -10.8318 H        1 ZINC000013986815    0.0700
56     H56     1.7463   -6.2506  -13.8688 H        1 ZINC000013986815    0.0400
57     H57     3.0741   -7.0252  -12.9719 H        1 ZINC000013986815    0.0800
58     H58     2.6925   -9.1918  -13.9044 H        1 ZINC000013986815    0.0700
59     H59     1.0483   -9.8734  -13.9274 H        1 ZINC000013986815    0.0700
60     H60     1.4461   -8.4740  -14.9530 H        1 ZINC000013986815    0.0300
61     H61    -0.4557   -7.2344  -13.8404 H        1 ZINC000013986815    0.0400
62     H62    -0.7451   -8.7316  -12.9226 H        1 ZINC000013986815    0.0800
63     H63    -0.3588   -7.5141  -10.8020 H        1 ZINC000013986815    0.0800
64     H64    -1.6672   -6.7503  -11.7377 H        1 ZINC000013986815    0.0800
65     H65     0.1330   -0.8494  -10.1999 H        1 ZINC000013986815    0.1500
66     H66    -0.6202    1.0989  -10.1986 H        1 ZINC000013986815    0.0600
67     H67     0.1260    2.4065   -9.2491 H        1 ZINC000013986815    0.1000
68     H68     1.0576    0.9375   -9.6265 H        1 ZINC000013986815    0.0600
69     H69    -1.1386    1.4177   -1.9386 H        1 ZINC000013986815    0.0700
70     H70    -2.9700    1.3352   -3.5026 H        1 ZINC000013986815    0.0900
71     H71    -4.1425    0.8582   -2.2304 H        1 ZINC000013986815    0.0700
72     H72    -2.7905    3.5805   -2.6510 H        1 ZINC000013986815    0.0700
73     H73    -4.5287    3.2331   -2.3901 H        1 ZINC000013986815    0.0700
74     H74    -2.8114    3.9806   -0.3484 H        1 ZINC000013986815    0.0700
75     H75    -4.2561    2.9626   -0.0885 H        1 ZINC000013986815    0.0700
76     H76    -2.9139    1.2054    0.4898 H        1 ZINC000013986815    0.0800
77     H77    -1.4692    2.2234    0.2298 H        1 ZINC000013986815    0.0700
@<TRIPOS>BOND
1     1     2     1
2     1     40    1
3     1     41    1
4     1     42    1
5     2     3     1
6     2     43    1
7     2     44    1
8     3     4     1
9     3     34    1
10    3     5     1
11    5     6     2
12    5     7     am
13    7     8     1
14    7     9     1
15    8     45    1
16    8     46    1
17    8     47    1
18    9     33    ar
19    9     10    ar
20    10    11    ar
21    10    48    1
22    11    12    ar
23    12    13    1
24    12    32    ar
25    13    14    1
26    13    49    1
27    14    29    ar
28    14    15    ar
29    15    16    ar
30    15    50    1
31    16    17    ar
32    16    51    1
33    17    18    1
34    17    28    ar
35    18    19    2
36    18    20    am
37    20    21    1
38    20    52    1
39    21    27    1
40    21    22    1
41    21    53    1
42    22    23    1
43    22    54    1
44    22    55    1
45    23    24    1
46    23    56    1
47    23    57    1
48    24    25    1
49    24    26    1
50    25    58    1
51    25    59    1
52    25    60    1
53    26    27    1
54    26    61    1
55    26    62    1
56    27    63    1
57    27    64    1
58    28    29    ar
59    28    65    1
60    29    30    1
61    30    31    1
62    31    66    1
63    31    67    1
64    31    68    1
65    32    33    ar
66    33    34    1
67    34    35    1
68    35    39    1
69    35    36    1
70    35    69    1
71    36    37    1
72    36    70    1
73    36    71    1
74    37    38    1
75    37    72    1
76    37    73    1
77    38    39    1
78    38    74    1
79    38    75    1
80    39    76    1
81    39    77    1
@<TRIPOS>SUBSTRUCTURE
1   ZINC000013986815 1     RESIDUE    1   A     ZIN   1
