@<TRIPOS>MOLECULE
ZINC000003784073
  42   45    0    0    0
SMALL
USER_CHARGES
NO_NAME
@<TRIPOS>ATOM
    1 C1        0.0101     1.1048    -0.7359 C.3    1 <0>      -0.1900
    2 C2        0.2057    -0.4033    -0.5682 C.3    1 <0>       0.1200
    3 H3       -0.7443    -0.9130    -0.7289 H      1 <0>       0.0700
    4 O4        1.1630    -0.8684    -1.5217 O.3    1 <0>      -0.5600
    5 C5        0.7098    -0.6981     0.8460 C.3    1 <0>      -0.1600
    6 H6        1.5669    -0.0862     1.1271 H      1 <0>       0.1400
    7 C7       -0.3875    -0.7253     1.8901 C.2    1 <0>       0.5200
    8 O8       -1.1719     0.0982     2.3124 O.2    1 <0>      -0.4100
    9 N9       -0.1483    -2.0373     2.1685 N.am   1 <0>      -0.4800
   10 C10       0.4005    -2.3621     3.4205 C.2    1 <0>       0.1900
   11 C11      -0.3468    -2.3917     4.6158 C.2    1 <0>       0.4400
   12 O12       0.2215    -2.8092     5.7469 O.co2  1 <0>      -0.6500
   13 O13      -1.6216    -2.0022     4.6146 O.co2  1 <0>      -0.6500
   14 C14       1.7193    -2.6429     3.3571 C.2    1 <0>      -0.2500
   15 S15       2.7444    -3.0689     4.7255 S.3    1 <0>       0.0400
   16 C16       3.1552    -4.7772     4.2906 C.3    1 <0>      -0.1500
   17 C17       4.2413    -4.8185     3.1938 C.3    1 <0>       0.0900
   18 N18       5.5154    -4.8963     3.9211 N.pl3  1 <0>      -0.3400
   19 C19       6.8216    -4.7327     3.7943 C.2    1 <0>       0.3900
   20 N20       7.3909    -5.0005     4.9546 N.2    1 <0>      -0.5000
   21 C21       6.4694    -5.3374     5.8375 C.2    1 <0>       0.3900
   22 N22       5.2868    -5.2890     5.2477 N.2    1 <0>      -0.3400
   23 C23       3.8489    -5.4923     5.4703 C.3    1 <0>       0.1200
   24 C24       2.1721    -2.5323     1.9195 C.3    1 <0>      -0.0500
   25 H25       2.5875    -3.4804     1.5779 H      1 <0>       0.0900
   26 C26       3.2054    -1.4139     1.7703 C.3    1 <0>      -0.1500
   27 C27       0.8984    -2.1933     1.1342 C.3    1 <0>       0.0800
   28 H28       0.6707    -2.8768     0.3162 H      1 <0>       0.1400
   29 H29       0.9602     1.6145    -0.5752 H      1 <0>       0.0700
   30 H30      -0.3490     1.3149    -1.7434 H      1 <0>       0.0700
   31 H31      -0.7201     1.4596    -0.0085 H      1 <0>       0.0800
   32 H32       0.9086    -0.7143    -2.4418 H      1 <0>       0.3800
   33 H33       2.2637    -5.3209     3.9781 H      1 <0>       0.1600
   34 H34       4.1104    -5.6986     2.5642 H      1 <0>       0.1300
   35 H35       4.2046    -3.9115     2.5904 H      1 <0>       0.1400
   36 H36       7.3356    -4.4313     2.8936 H      1 <0>       0.2700
   37 H37       6.6507    -5.6073     6.8674 H      1 <0>       0.2700
   38 H38       3.5452    -5.0440     6.4163 H      1 <0>       0.1500
   39 H39       3.6111    -6.5560     5.4609 H      1 <0>       0.1400
   40 H40       4.1237    -1.6966     2.2849 H      1 <0>       0.0600
   41 H41       3.4162    -1.2527     0.7131 H      1 <0>       0.0800
   42 H42       2.8123    -0.4955     2.2065 H      1 <0>       0.0600
@<TRIPOS>BOND
   1    1    2 1
   2    1   29 1
   3    1   30 1
   4    1   31 1
   5    2    3 1
   6    2    4 1
   7    2    5 1
   8    4   32 1
   9    5    6 1
  10    5   27 1
  11    5    7 1
  12    7    8 2
  13    7    9 am
  14    9   27 1
  15    9   10 1
  16   10   11 1
  17   10   14 2
  18   11   12 ar
  19   11   13 ar
  20   14   15 1
  21   14   24 1
  22   15   16 1
  23   16   23 1
  24   16   17 1
  25   16   33 1
  26   17   18 1
  27   17   34 1
  28   17   35 1
  29   18   22 1
  30   18   19 1
  31   19   20 2
  32   19   36 1
  33   20   21 1
  34   21   22 2
  35   21   37 1
  36   22   23 1
  37   23   38 1
  38   23   39 1
  39   24   25 1
  40   24   26 1
  41   24   27 1
  42   26   40 1
  43   26   41 1
  44   26   42 1
  45   27   28 1
