@<TRIPOS>MOLECULE
ZINC000252286769
51    55    1     0     0
SMALL
USER_CHARGES
@<TRIPOS>ATOM
1      C1      0.2332    1.4645   -0.7291 C.3      1 ZINC000252286769    0.0300
2      O2      0.2256    0.0387   -0.6329 O.3      1 ZINC000252286769   -0.3300
3      C3     -0.9853   -0.5642   -0.4954 C.ar     1 ZINC000252286769    0.1200
4      C4     -1.0683   -1.9523   -0.3898 C.ar     1 ZINC000252286769    0.0800
5      N5     -0.1240   -2.9588   -0.3924 N.pl3    1 ZINC000252286769   -0.5900
6      C6     -0.7453   -4.1792   -0.2569 C.2      1 ZINC000252286769    0.1500
7      C7     -0.0590   -5.4839   -0.2177 C.2      1 ZINC000252286769    0.1400
8      C8      1.1268   -5.7760    0.4490 C.2      1 ZINC000252286769   -0.1400
9      C9      2.0292   -5.0454    1.2461 C.2      1 ZINC000252286769    0.5400
10     N10     1.8051   -3.7095    1.5110 N.pl3    1 ZINC000252286769   -0.8100
11     N11     3.0956   -5.6576    1.7387 N.2      1 ZINC000252286769   -0.6200
12     C12     3.3340   -6.9453    1.4983 C.2      1 ZINC000252286769    0.3300
13     N13     2.5375   -7.6782    0.7678 N.2      1 ZINC000252286769   -0.3400
14     N14     1.3865   -7.1126    0.2072 N.pl3    1 ZINC000252286769   -0.2500
15     C15     0.3938   -7.5769   -0.5668 C.2      1 ZINC000252286769    0.2900
16     C16     0.2781   -8.9924   -1.0708 C.3      1 ZINC000252286769    0.0000
17     H17     1.1240   -9.5771   -0.7093 H        1 ZINC000252286769    0.1000
18     C18    -1.0248   -9.6108   -0.5600 C.3      1 ZINC000252286769   -0.1000
19     C19    -1.1423  -11.0479   -1.0718 C.3      1 ZINC000252286769   -0.0900
20     C20    -1.1441  -11.0459   -2.6018 C.3      1 ZINC000252286769   -0.1500
21     H21    -1.9900  -10.4612   -2.9633 H        1 ZINC000252286769    0.0600
22     C22    -1.2598  -12.4614   -3.1058 C.2      1 ZINC000252286769    0.5000
23     O23    -1.9622  -12.7093   -4.0711 O.co2    1 ZINC000252286769   -0.7100
24     O24    -0.6511  -13.3586   -2.5483 O.co2    1 ZINC000252286769   -0.7000
25     C25     0.1588  -10.4275   -3.1125 C.3      1 ZINC000252286769   -0.0900
26     C26     0.2763   -8.9904   -2.6008 C.3      1 ZINC000252286769   -0.1000
27     N27    -0.4629   -6.6175   -0.8137 N.2      1 ZINC000252286769   -0.4300
28     C28    -2.0887   -3.9964   -0.1643 C.2      1 ZINC000252286769   -0.1400
29     C29    -2.3302   -2.5576   -0.2475 C.ar     1 ZINC000252286769   -0.0700
30     C30    -3.4838   -1.7664   -0.2131 C.ar     1 ZINC000252286769   -0.1000
31     C31    -3.3806   -0.4082   -0.3177 C.ar     1 ZINC000252286769   -0.1100
32     C32    -2.1392    0.1970   -0.4538 C.ar     1 ZINC000252286769   -0.1900
33     H33     1.2595    1.8160   -0.8350 H        1 ZINC000252286769    0.1000
34     H34    -0.3481    1.7731   -1.5980 H        1 ZINC000252286769    0.0600
35     H35    -0.2060    1.8918    0.1723 H        1 ZINC000252286769    0.0600
36     H36     0.8331   -2.8260   -0.4774 H        1 ZINC000252286769    0.4200
37     H37     0.9532   -3.3059    1.2823 H        1 ZINC000252286769    0.4100
38     H38     2.4996   -3.1741    1.9258 H        1 ZINC000252286769    0.4200
39     H39     4.2175   -7.3996    1.9220 H        1 ZINC000252286769    0.2200
40     H40    -1.0235   -9.6122    0.5300 H        1 ZINC000252286769    0.0500
41     H41    -1.8707   -9.0261   -0.9216 H        1 ZINC000252286769    0.0700
42     H42    -0.2964  -11.6326   -0.7102 H        1 ZINC000252286769    0.0700
43     H43    -2.0705  -11.4884   -0.7079 H        1 ZINC000252286769    0.0600
44     H44     1.0047  -11.0122   -2.7510 H        1 ZINC000252286769    0.0600
45     H45     0.1575  -10.4261   -4.2025 H        1 ZINC000252286769    0.0600
46     H46    -0.5696   -8.4057   -2.9624 H        1 ZINC000252286769    0.0700
47     H47     1.2045   -8.5499   -2.9647 H        1 ZINC000252286769    0.0500
48     H48    -2.8359   -4.7680   -0.0507 H        1 ZINC000252286769    0.1600
49     H49    -4.4539   -2.2286   -0.1043 H        1 ZINC000252286769    0.1300
50     H50    -4.2727    0.2001   -0.2912 H        1 ZINC000252286769    0.1300
51     H51    -2.0742    1.2719   -0.5351 H        1 ZINC000252286769    0.1300
@<TRIPOS>BOND
1     1     2     1
2     1     33    1
3     1     34    1
4     1     35    1
5     2     3     1
6     3     32    ar
7     3     4     ar
8     4     29    ar
9     4     5     1
10    5     6     1
11    5     36    1
12    6     7     1
13    6     28    2
14    7     27    1
15    7     8     2
16    8     14    1
17    8     9     1
18    9     10    1
19    9     11    2
20    10    37    1
21    10    38    1
22    11    12    1
23    12    13    2
24    12    39    1
25    13    14    1
26    14    15    1
27    15    16    1
28    15    27    2
29    16    17    1
30    16    26    1
31    16    18    1
32    18    19    1
33    18    40    1
34    18    41    1
35    19    20    1
36    19    42    1
37    19    43    1
38    20    21    1
39    20    22    1
40    20    25    1
41    22    23    ar
42    22    24    ar
43    25    26    1
44    25    44    1
45    25    45    1
46    26    46    1
47    26    47    1
48    28    29    1
49    28    48    1
50    29    30    ar
51    30    31    ar
52    30    49    1
53    31    32    ar
54    31    50    1
55    32    51    1
@<TRIPOS>SUBSTRUCTURE
1   ZINC000252286769 1     RESIDUE    1   A     ZIN   1
