@<TRIPOS>MOLECULE
ZINC000037866151
44    47    1     0     0
SMALL
USER_CHARGES
@<TRIPOS>ATOM
1      O1      0.0023   -0.0042    0.0048 O.2      1 ZINC000037866151   -0.4900
2      C2     -0.0143    1.2096    0.0070 C.2      1 ZINC000037866151    0.4900
3      N3      1.1435    1.8995    0.0013 N.am     1 ZINC000037866151   -0.6500
4      C4      2.3587    1.2224    0.0913 C.ar     1 ZINC000037866151    0.1800
5      C5      2.5289   -0.0245   -0.5091 C.ar     1 ZINC000037866151   -0.1700
6      C6      3.7472   -0.6618   -0.3967 C.ar     1 ZINC000037866151    0.1200
7      N7      4.7425   -0.1063    0.2683 N.ar     1 ZINC000037866151   -0.4900
8      C8      4.6209    1.0719    0.8502 C.ar     1 ZINC000037866151    0.1200
9      C9      3.4373    1.7769    0.7792 C.ar     1 ZINC000037866151   -0.2000
10     C10    -1.3157    1.9374    0.0099 C.2      1 ZINC000037866151    0.4200
11     O11    -1.3323    3.1528    0.0121 O.2      1 ZINC000037866151   -0.4300
12     C12    -2.5719    1.1890    0.0100 C.2      1 ZINC000037866151   -0.2800
13     C13    -2.7198   -0.1852    0.0137 C.2      1 ZINC000037866151    0.1700
14     N14    -4.0282   -0.4980    0.0125 N.pl3    1 ZINC000037866151   -0.4500
15     C15    -4.5576   -1.8640    0.0160 C.3      1 ZINC000037866151    0.1400
16     C16    -4.8527   -2.2920   -1.3985 C.ar     1 ZINC000037866151   -0.1200
17     C17    -6.0986   -2.0518   -1.9474 C.ar     1 ZINC000037866151   -0.0800
18     C18    -6.3698   -2.4441   -3.2446 C.ar     1 ZINC000037866151   -0.1100
19     C19    -5.3942   -3.0773   -3.9939 C.ar     1 ZINC000037866151   -0.0200
20     Cl20   -5.7340   -3.5698   -5.6235 Cl       1 ZINC000037866151   -0.0600
21     C21    -4.1476   -3.3174   -3.4441 C.ar     1 ZINC000037866151   -0.1100
22     C22    -3.8757   -2.9196   -2.1486 C.ar     1 ZINC000037866151   -0.0800
23     C23    -4.8042    0.6444    0.0079 C.ar     1 ZINC000037866151    0.0800
24     C24    -6.1784    0.8576    0.0054 C.ar     1 ZINC000037866151   -0.1200
25     C25    -6.6754    2.1436    0.0013 C.ar     1 ZINC000037866151   -0.1000
26     C26    -5.8174    3.2327   -0.0009 C.ar     1 ZINC000037866151   -0.1300
27     C27    -4.4519    3.0415    0.0015 C.ar     1 ZINC000037866151   -0.0800
28     C28    -3.9374    1.7487    0.0126 C.ar     1 ZINC000037866151   -0.0500
29     H29     1.1313    2.8671   -0.0654 H        1 ZINC000037866151    0.4300
30     H30     1.7183   -0.4851   -1.0542 H        1 ZINC000037866151    0.1500
31     H31     3.8881   -1.6279   -0.8585 H        1 ZINC000037866151    0.1600
32     H32     5.4600    1.4914    1.3853 H        1 ZINC000037866151    0.1600
33     H33     3.3446    2.7408    1.2574 H        1 ZINC000037866151    0.1400
34     H34    -1.9090   -0.8987    0.0168 H        1 ZINC000037866151    0.2000
35     H35    -3.8211   -2.5380    0.4533 H        1 ZINC000037866151    0.1100
36     H36    -5.4746   -1.8968    0.6043 H        1 ZINC000037866151    0.1100
37     H37    -6.8602   -1.5578   -1.3623 H        1 ZINC000037866151    0.1300
38     H38    -7.3433   -2.2567   -3.6732 H        1 ZINC000037866151    0.1400
39     H39    -3.3857   -3.8119   -4.0284 H        1 ZINC000037866151    0.1400
40     H40    -2.9025   -3.1066   -1.7194 H        1 ZINC000037866151    0.1400
41     H41    -6.8558    0.0165    0.0064 H        1 ZINC000037866151    0.1200
42     H42    -7.7434    2.3041   -0.0006 H        1 ZINC000037866151    0.1300
43     H43    -6.2202    4.2347   -0.0048 H        1 ZINC000037866151    0.1300
44     H44    -3.7850    3.8910   -0.0005 H        1 ZINC000037866151    0.1300
@<TRIPOS>BOND
1     1     2     2
2     2     3     am
3     2     10    1
4     3     4     1
5     3     29    1
6     4     9     ar
7     4     5     ar
8     5     6     ar
9     5     30    1
10    6     7     ar
11    6     31    1
12    7     8     ar
13    8     9     ar
14    8     32    1
15    9     33    1
16    10    11    2
17    10    12    1
18    12    28    1
19    12    13    2
20    13    14    1
21    13    34    1
22    14    15    1
23    14    23    1
24    15    16    1
25    15    35    1
26    15    36    1
27    16    22    ar
28    16    17    ar
29    17    18    ar
30    17    37    1
31    18    19    ar
32    18    38    1
33    19    20    1
34    19    21    ar
35    21    22    ar
36    21    39    1
37    22    40    1
38    23    28    ar
39    23    24    ar
40    24    25    ar
41    24    41    1
42    25    26    ar
43    25    42    1
44    26    27    ar
45    26    43    1
46    27    28    ar
47    27    44    1
@<TRIPOS>SUBSTRUCTURE
1   ZINC000037866151 1     RESIDUE    1   A     ZIN   1
