@<TRIPOS>MOLECULE
ZINC000043204002
73    78    1     0     0
SMALL
USER_CHARGES
@<TRIPOS>ATOM
1      C1      7.1035   -6.7400   -6.6777 C.3      1 ZINC000043204002   -0.1400
2      C2      6.2065   -6.0474   -7.7056 C.3      1 ZINC000043204002    0.0100
3      C3      7.0759   -5.3656   -8.7640 C.3      1 ZINC000043204002   -0.1400
4      C4      5.3051   -7.0853   -8.3774 C.3      1 ZINC000043204002   -0.1500
5      C5      5.3545   -5.0146   -7.0139 C.2      1 ZINC000043204002   -0.0100
6      C6      5.7920   -3.9403   -6.3185 C.2      1 ZINC000043204002   -0.2200
7      C7      4.5987   -3.3055   -5.8823 C.2      1 ZINC000043204002    0.2600
8      N8      4.4999   -2.1418   -5.1198 N.am     1 ZINC000043204002   -0.6400
9      C9      5.6163   -1.5008   -4.7208 C.2      1 ZINC000043204002    0.7200
10     O10     6.7095   -1.9370   -5.0254 O.2      1 ZINC000043204002   -0.5500
11     N11     5.5208   -0.3763   -3.9840 N.am     1 ZINC000043204002   -0.6800
12     C12     6.6774    0.2357   -3.4882 C.ar     1 ZINC000043204002    0.1700
13     C13     6.6565    0.8530   -2.2436 C.ar     1 ZINC000043204002   -0.1400
14     C14     7.7950    1.4567   -1.7529 C.ar     1 ZINC000043204002   -0.0700
15     C15     8.9676    1.4475   -2.5067 C.ar     1 ZINC000043204002   -0.0300
16     C16    10.1939    2.0958   -1.9809 C.2      1 ZINC000043204002    0.0900
17     C17    11.3909    2.1626   -2.6106 C.2      1 ZINC000043204002   -0.0300
18     N18    12.2585    2.8529   -1.7711 N.pl3    1 ZINC000043204002   -0.4200
19     C19    13.5954    3.2650   -1.7933 C.ar     1 ZINC000043204002    0.0900
20     C20    14.5272    3.0519   -2.8202 C.ar     1 ZINC000043204002   -0.0500
21     C21    15.8165    3.5161   -2.7063 C.ar     1 ZINC000043204002   -0.1700
22     C22    16.2252    4.2063   -1.5723 C.ar     1 ZINC000043204002    0.1300
23     O23    17.5021    4.6613   -1.4690 O.3      1 ZINC000043204002   -0.3200
24     C24    18.3766    4.3948   -2.5673 C.3      1 ZINC000043204002    0.0200
25     C25    19.7596    4.9787   -2.2713 C.3      1 ZINC000043204002    0.0000
26     N26    20.3517    4.2778   -1.1241 N.4      1 ZINC000043204002   -0.3900
27     H27    19.7194    4.3234   -0.3391 H        1 ZINC000043204002    0.4300
28     C28    21.6258    4.9156   -0.7647 C.3      1 ZINC000043204002   -0.0400
29     C29    22.2406    4.1837    0.4309 C.3      1 ZINC000043204002    0.0400
30     O30    22.4191    2.8041    0.0983 O.3      1 ZINC000043204002   -0.3600
31     C31    21.2084    2.1443   -0.2823 C.3      1 ZINC000043204002    0.0400
32     C32    20.5915    2.8723   -1.4792 C.3      1 ZINC000043204002   -0.0500
33     C33    15.3191    4.4270   -0.5475 C.ar     1 ZINC000043204002   -0.0800
34     C34    14.0208    3.9587   -0.6640 C.ar     1 ZINC000043204002   -0.1100
35     S35    12.6245    4.0520    0.4166 S.3      1 ZINC000043204002    0.2100
36     C36    11.5389    3.1715   -0.6682 C.2      1 ZINC000043204002    0.1700
37     N37    10.3101    2.7269   -0.7948 N.2      1 ZINC000043204002   -0.4200
38     C38     8.9861    0.8275   -3.7551 C.ar     1 ZINC000043204002   -0.0800
39     C39     7.8466    0.2202   -4.2390 C.ar     1 ZINC000043204002   -0.1200
40     N40     3.6116   -4.0305   -6.3394 N.2      1 ZINC000043204002   -0.3900
41     O41     4.0148   -4.9782   -6.9728 O.3      1 ZINC000043204002    0.1000
42     H42     7.7457   -6.0007   -6.1991 H        1 ZINC000043204002    0.0600
43     H43     6.4841   -7.2258   -5.9237 H        1 ZINC000043204002    0.0600
44     H44     7.7197   -7.4871   -7.1780 H        1 ZINC000043204002    0.0700
45     H45     7.6921   -6.1126   -9.2643 H        1 ZINC000043204002    0.0700
46     H46     6.4368   -4.8722   -9.4963 H        1 ZINC000043204002    0.0600
47     H47     7.7181   -4.6263   -8.2854 H        1 ZINC000043204002    0.0600
48     H48     4.6857   -7.5710   -7.6234 H        1 ZINC000043204002    0.0600
49     H49     4.6660   -6.5918   -9.1097 H        1 ZINC000043204002    0.0600
50     H50     5.9213   -7.8323   -8.8777 H        1 ZINC000043204002    0.0700
51     H51     6.8121   -3.6359   -6.1368 H        1 ZINC000043204002    0.1900
52     H52     3.6277   -1.7938   -4.8768 H        1 ZINC000043204002    0.4200
53     H53     4.6503    0.0088   -3.7974 H        1 ZINC000043204002    0.4100
54     H54     5.7477    0.8602   -1.6601 H        1 ZINC000043204002    0.1300
55     H55     7.7781    1.9367   -0.7856 H        1 ZINC000043204002    0.1400
56     H56    11.6276    1.7555   -3.5826 H        1 ZINC000043204002    0.1900
57     H57    14.2287    2.5171   -3.7098 H        1 ZINC000043204002    0.1400
58     H58    16.5195    3.3419   -3.5075 H        1 ZINC000043204002    0.1400
59     H59    18.4604    3.3177   -2.7120 H        1 ZINC000043204002    0.0900
60     H60    17.9748    4.8527   -3.4711 H        1 ZINC000043204002    0.1100
61     H61    20.4009    4.8540   -3.1438 H        1 ZINC000043204002    0.1500
62     H62    19.6640    6.0394   -2.0393 H        1 ZINC000043204002    0.1500
63     H63    22.3093    4.8655   -1.6124 H        1 ZINC000043204002    0.1400
64     H64    21.4488    5.9583   -0.5010 H        1 ZINC000043204002    0.1400
65     H65    23.2063    4.6279    0.6722 H        1 ZINC000043204002    0.1400
66     H66    21.5756    4.2678    1.2904 H        1 ZINC000043204002    0.0800
67     H67    21.4272    1.1124   -0.5571 H        1 ZINC000043204002    0.1400
68     H68    20.5081    2.1586    0.5528 H        1 ZINC000043204002    0.0800
69     H69    19.6469    2.3981   -1.7457 H        1 ZINC000043204002    0.1400
70     H70    21.2753    2.8231   -2.3266 H        1 ZINC000043204002    0.1400
71     H71    15.6243    4.9622    0.3395 H        1 ZINC000043204002    0.1500
72     H72     9.8933    0.8193   -4.3411 H        1 ZINC000043204002    0.1300
73     H73     7.8605   -0.2606   -5.2060 H        1 ZINC000043204002    0.1500
@<TRIPOS>BOND
1     1     2     1
2     1     42    1
3     1     43    1
4     1     44    1
5     2     3     1
6     2     4     1
7     2     5     1
8     3     45    1
9     3     46    1
10    3     47    1
11    4     48    1
12    4     49    1
13    4     50    1
14    5     41    1
15    5     6     2
16    6     7     1
17    6     51    1
18    7     8     1
19    7     40    2
20    8     9     am
21    8     52    1
22    9     10    2
23    9     11    am
24    11    12    1
25    11    53    1
26    12    39    ar
27    12    13    ar
28    13    14    ar
29    13    54    1
30    14    15    ar
31    14    55    1
32    15    16    1
33    15    38    ar
34    16    37    1
35    16    17    2
36    17    18    1
37    17    56    1
38    18    36    1
39    18    19    1
40    19    34    ar
41    19    20    ar
42    20    21    ar
43    20    57    1
44    21    22    ar
45    21    58    1
46    22    23    1
47    22    33    ar
48    23    24    1
49    24    25    1
50    24    59    1
51    24    60    1
52    25    26    1
53    25    61    1
54    25    62    1
55    26    27    1
56    26    32    1
57    26    28    1
58    28    29    1
59    28    63    1
60    28    64    1
61    29    30    1
62    29    65    1
63    29    66    1
64    30    31    1
65    31    32    1
66    31    67    1
67    31    68    1
68    32    69    1
69    32    70    1
70    33    34    ar
71    33    71    1
72    34    35    1
73    35    36    1
74    36    37    2
75    38    39    ar
76    38    72    1
77    39    73    1
78    40    41    1
@<TRIPOS>SUBSTRUCTURE
1   ZINC000043204002 1     RESIDUE    1   A     ZIN   1
