@<TRIPOS>MOLECULE
ZINC000026577491
45    48    1     0     0
SMALL
USER_CHARGES
@<TRIPOS>ATOM
1      O1     -0.0173    1.4248    0.0099 O.3      1 ZINC000026577491   -0.5600
2      C2      0.0021   -0.0041    0.0020 C.3      1 ZINC000026577491    0.0800
3      C3     -1.4333   -0.5336    0.0129 C.3      1 ZINC000026577491    0.0500
4      H4     -1.9871   -0.1096    0.8505 H        1 ZINC000026577491    0.1000
5      O5     -2.0929   -0.2241   -1.2341 O.3      1 ZINC000026577491   -0.3500
6      C6     -3.1943   -1.1540   -1.3231 C.3      1 ZINC000026577491    0.3100
7      H7     -4.0192   -0.8268   -0.6902 H        1 ZINC000026577491    0.1200
8      N8     -3.6398   -1.2855   -2.7125 N.pl3    1 ZINC000026577491   -0.4500
9      C9     -2.8939   -1.0351   -3.8260 C.2      1 ZINC000026577491    0.3000
10     N10    -3.6032   -1.2545   -4.8947 N.2      1 ZINC000026577491   -0.4700
11     C11    -4.8458   -1.6585   -4.5362 C.ar     1 ZINC000026577491   -0.1000
12     C12    -6.0060   -2.0262   -5.2385 C.ar     1 ZINC000026577491    0.5200
13     N13    -6.0271   -2.0213   -6.6222 N.pl3    1 ZINC000026577491   -0.6800
14     C14    -7.2458   -2.4077   -7.3375 C.3      1 ZINC000026577491    0.1400
15     C15    -8.1547   -1.1771   -7.5361 C.3      1 ZINC000026577491   -0.1300
16     C16    -7.8046   -0.6717   -8.9577 C.3      1 ZINC000026577491   -0.1300
17     C17    -7.5964   -1.9881   -9.7468 C.3      1 ZINC000026577491   -0.1200
18     C18    -6.8908   -2.9233   -8.7432 C.3      1 ZINC000026577491   -0.1300
19     N19    -7.0823   -2.3792   -4.5435 N.ar     1 ZINC000026577491   -0.5700
20     C20    -7.0712   -2.3872   -3.2220 C.ar     1 ZINC000026577491    0.4300
21     Cl21   -8.5122   -2.8590   -2.3766 Cl       1 ZINC000026577491    0.0300
22     N22    -6.0065   -2.0508   -2.5223 N.ar     1 ZINC000026577491   -0.5500
23     C23    -4.8822   -1.6889   -3.1319 C.ar     1 ZINC000026577491    0.3200
24     C24    -2.6218   -2.4941   -0.8103 C.3      1 ZINC000026577491    0.0800
25     H25    -3.3710   -3.0321   -0.2294 H        1 ZINC000026577491    0.1000
26     O26    -2.1671   -3.2951   -1.9028 O.3      1 ZINC000026577491   -0.5300
27     C27    -1.4367   -2.0764    0.0918 C.3      1 ZINC000026577491    0.0500
28     H28    -1.6013   -2.4088    1.1167 H        1 ZINC000026577491    0.0900
29     O29    -0.2105   -2.6074   -0.4147 O.3      1 ZINC000026577491   -0.5400
30     H30     0.8606    1.8301    0.0037 H        1 ZINC000026577491    0.3900
31     H31     0.5123   -0.3556   -0.8948 H        1 ZINC000026577491    0.0700
32     H32     0.5293   -0.3651    0.8851 H        1 ZINC000026577491    0.0600
33     H33    -1.8662   -0.7032   -3.8216 H        1 ZINC000026577491    0.2200
34     H34    -5.2350   -1.7620   -7.1184 H        1 ZINC000026577491    0.4200
35     H35    -7.7770   -3.1790   -6.7800 H        1 ZINC000026577491    0.1000
36     H36    -9.2044   -1.4654   -7.4815 H        1 ZINC000026577491    0.0800
37     H37    -7.9290   -0.4123   -6.7930 H        1 ZINC000026577491    0.0700
38     H38    -8.6297   -0.0962   -9.3772 H        1 ZINC000026577491    0.0700
39     H39    -6.8885   -0.0812   -8.9430 H        1 ZINC000026577491    0.0700
40     H40    -8.5560   -2.4074  -10.0493 H        1 ZINC000026577491    0.0700
41     H41    -6.9633   -1.8152  -10.6171 H        1 ZINC000026577491    0.0700
42     H42    -5.8118   -2.8861   -8.8931 H        1 ZINC000026577491    0.0700
43     H43    -7.2505   -3.9447   -8.8681 H        1 ZINC000026577491    0.0800
44     H44    -1.7976   -4.1485   -1.6378 H        1 ZINC000026577491    0.3900
45     H45     0.5660   -2.3760    0.1131 H        1 ZINC000026577491    0.3800
@<TRIPOS>BOND
1     1     2     1
2     1     30    1
3     2     3     1
4     2     31    1
5     2     32    1
6     3     4     1
7     3     27    1
8     3     5     1
9     5     6     1
10    6     7     1
11    6     8     1
12    6     24    1
13    8     23    1
14    8     9     1
15    9     10    2
16    9     33    1
17    10    11    1
18    11    23    ar
19    11    12    ar
20    12    13    1
21    12    19    ar
22    13    14    1
23    13    34    1
24    14    18    1
25    14    15    1
26    14    35    1
27    15    16    1
28    15    36    1
29    15    37    1
30    16    17    1
31    16    38    1
32    16    39    1
33    17    18    1
34    17    40    1
35    17    41    1
36    18    42    1
37    18    43    1
38    19    20    ar
39    20    21    1
40    20    22    ar
41    22    23    ar
42    24    25    1
43    24    26    1
44    24    27    1
45    26    44    1
46    27    28    1
47    27    29    1
48    29    45    1
@<TRIPOS>SUBSTRUCTURE
1   ZINC000026577491 1     RESIDUE    1   A     ZIN   1
