@<TRIPOS>MOLECULE
ZINC000002015955
58    63    1     0     0
SMALL
USER_CHARGES
@<TRIPOS>ATOM
1      C1      0.3561    1.4677    0.2448 C.3      1 ZINC000002015955    0.0600
2      N2      0.2489    0.0100    0.1453 N.am     1 ZINC000002015955   -0.5500
3      C3     -0.9792   -0.5619    0.4392 C.ar     1 ZINC000002015955    0.1700
4      C4     -2.1203    0.0981   -0.0203 C.ar     1 ZINC000002015955   -0.1400
5      C5     -3.3757   -0.4087    0.2351 C.ar     1 ZINC000002015955   -0.0700
6      C6     -3.5176   -1.5838    0.9538 C.ar     1 ZINC000002015955   -0.1300
7      C7     -2.4043   -2.2482    1.4143 C.ar     1 ZINC000002015955   -0.0600
8      C8     -1.1190   -1.7455    1.1617 C.ar     1 ZINC000002015955   -0.1400
9      C9      0.0265   -2.5098    1.6798 C.2      1 ZINC000002015955    0.2900
10     C10    -0.0977   -3.0970    3.0343 C.ar     1 ZINC000002015955   -0.0700
11     C11     0.6887   -4.1897    3.3984 C.ar     1 ZINC000002015955   -0.0700
12     C12     0.5689   -4.7320    4.6615 C.ar     1 ZINC000002015955   -0.1300
13     C13    -0.3291   -4.1939    5.5660 C.ar     1 ZINC000002015955   -0.1000
14     C14    -1.1123   -3.1103    5.2105 C.ar     1 ZINC000002015955   -0.1300
15     C15    -0.9974   -2.5557    3.9523 C.ar     1 ZINC000002015955   -0.0900
16     N16     1.1271   -2.7065    1.0448 N.2      1 ZINC000002015955   -0.5100
17     C17     1.3531   -2.1648   -0.2947 C.3      1 ZINC000002015955    0.2900
18     H18     0.5634   -2.5055   -0.9642 H        1 ZINC000002015955    0.1300
19     N19     2.6519   -2.6211   -0.7957 N.am     1 ZINC000002015955   -0.7000
20     C20     2.7108   -3.5872   -1.7336 C.2      1 ZINC000002015955    0.6000
21     O21     1.6868   -4.0125   -2.2339 O.2      1 ZINC000002015955   -0.5200
22     C22     4.0131   -4.1271   -2.1523 C.2      1 ZINC000002015955    0.0200
23     C23     4.2087   -5.0218   -3.1712 C.2      1 ZINC000002015955   -0.1000
24     C24     5.5943   -5.2914   -3.2610 C.ar     1 ZINC000002015955   -0.1100
25     C25     6.4365   -6.0858   -4.0510 C.ar     1 ZINC000002015955   -0.0600
26     C26     7.7851   -6.0753   -3.8214 C.ar     1 ZINC000002015955   -0.1400
27     C27     8.3631   -5.2949   -2.8191 C.ar     1 ZINC000002015955   -0.0900
28     C28     7.5651   -4.5108   -2.0335 C.ar     1 ZINC000002015955   -0.1000
29     C29     6.1914   -4.5216   -2.2647 C.ar     1 ZINC000002015955    0.0900
30     N30     5.2174   -3.8102   -1.5896 N.pl3    1 ZINC000002015955   -0.4700
31     C31     5.6120   -2.9285   -0.4859 C.3      1 ZINC000002015955    0.1000
32     C32     6.9168   -3.4616    0.1195 C.3      1 ZINC000002015955   -0.1300
33     C33     8.0298   -3.6129   -0.9180 C.3      1 ZINC000002015955   -0.0800
34     C34     1.3370   -0.6613   -0.2255 C.2      1 ZINC000002015955    0.5100
35     O35     2.3431   -0.0461   -0.5088 O.2      1 ZINC000002015955   -0.5100
36     H36     1.3682    1.7763   -0.0169 H        1 ZINC000002015955    0.1000
37     H37    -0.3537    1.9317   -0.4400 H        1 ZINC000002015955    0.0800
38     H38     0.1334    1.7796    1.2652 H        1 ZINC000002015955    0.0700
39     H39    -2.0180    1.0153   -0.5814 H        1 ZINC000002015955    0.1400
40     H40    -4.2507    0.1116   -0.1256 H        1 ZINC000002015955    0.1400
41     H41    -4.5028   -1.9789    1.1532 H        1 ZINC000002015955    0.1400
42     H42    -2.5206   -3.1638    1.9751 H        1 ZINC000002015955    0.1400
43     H43     1.3899   -4.6108    2.6930 H        1 ZINC000002015955    0.1300
44     H44     1.1771   -5.5784    4.9446 H        1 ZINC000002015955    0.1300
45     H45    -0.4194   -4.6218    6.5535 H        1 ZINC000002015955    0.1300
46     H46    -1.8118   -2.6948    5.9208 H        1 ZINC000002015955    0.1300
47     H47    -1.6090   -1.7096    3.6760 H        1 ZINC000002015955    0.1300
48     H48     3.4695   -2.2279   -0.4524 H        1 ZINC000002015955    0.4100
49     H49     3.4385   -5.4474   -3.7973 H        1 ZINC000002015955    0.1600
50     H50     6.0235   -6.7024   -4.8357 H        1 ZINC000002015955    0.1300
51     H51     8.4239   -6.6919   -4.4362 H        1 ZINC000002015955    0.1200
52     H52     9.4320   -5.3105   -2.6651 H        1 ZINC000002015955    0.1300
53     H53     5.7691   -1.9179   -0.8627 H        1 ZINC000002015955    0.0900
54     H54     4.8313   -2.9218    0.2747 H        1 ZINC000002015955    0.0900
55     H55     7.2504   -2.7756    0.8980 H        1 ZINC000002015955    0.0900
56     H56     6.7246   -4.4357    0.5693 H        1 ZINC000002015955    0.0800
57     H57     8.9121   -4.0430   -0.4440 H        1 ZINC000002015955    0.0900
58     H58     8.2790   -2.6344   -1.3286 H        1 ZINC000002015955    0.0800
@<TRIPOS>BOND
1     1     2     1
2     1     36    1
3     1     37    1
4     1     38    1
5     2     34    am
6     2     3     1
7     3     8     ar
8     3     4     ar
9     4     5     ar
10    4     39    1
11    5     6     ar
12    5     40    1
13    6     7     ar
14    6     41    1
15    7     8     ar
16    7     42    1
17    8     9     1
18    9     10    1
19    9     16    2
20    10    15    ar
21    10    11    ar
22    11    12    ar
23    11    43    1
24    12    13    ar
25    12    44    1
26    13    14    ar
27    13    45    1
28    14    15    ar
29    14    46    1
30    15    47    1
31    16    17    1
32    17    18    1
33    17    19    1
34    17    34    1
35    19    20    am
36    19    48    1
37    20    21    2
38    20    22    1
39    22    30    1
40    22    23    2
41    23    24    1
42    23    49    1
43    24    29    ar
44    24    25    ar
45    25    26    ar
46    25    50    1
47    26    27    ar
48    26    51    1
49    27    28    ar
50    27    52    1
51    28    33    1
52    28    29    ar
53    29    30    1
54    30    31    1
55    31    32    1
56    31    53    1
57    31    54    1
58    32    33    1
59    32    55    1
60    32    56    1
61    33    57    1
62    33    58    1
63    34    35    2
@<TRIPOS>SUBSTRUCTURE
1   ZINC000002015955 1     RESIDUE    1   A     ZIN   1
