@<TRIPOS>MOLECULE
ZINC000003790681
  49   53    0    0    0
SMALL
USER_CHARGES
NO_NAME
@<TRIPOS>ATOM
    1 C1       -0.6684     0.3535     0.8249 C.3    1 <0>      -0.1100
    2 C2       -0.3758    -1.1247     0.8473 C.ar   1 <0>       0.0100
    3 C3       -0.4155    -1.8827    -0.3266 C.ar   1 <0>       0.0000
    4 N4       -0.6810    -1.5925    -1.6250 N.2    1 <0>      -0.4900
    5 C5       -0.5840    -2.6747    -2.3406 C.2    1 <0>       0.3300
    6 C6       -0.8078    -2.7486    -3.8290 C.3    1 <0>      -0.1000
    7 C7       -1.3719    -1.5061    -4.5211 C.3    1 <0>      -0.1500
    8 C8        0.0942    -1.8946    -4.7223 C.3    1 <0>      -0.1500
    9 N9       -0.2500    -3.7304    -1.5488 N.pl3  1 <0>      -0.4700
   10 C10      -0.0496    -5.1137    -1.9877 C.3    1 <0>       0.1600
   11 C11       1.3964    -5.3183    -2.3594 C.ar   1 <0>      -0.1300
   12 C12       1.8140    -5.0835    -3.6572 C.ar   1 <0>      -0.1000
   13 C13       3.1367    -5.2691    -4.0036 C.ar   1 <0>      -0.1100
   14 C14       4.0534    -5.6937    -3.0423 C.ar   1 <0>       0.0000
   15 C15       5.4751    -5.8943    -3.4076 C.ar   1 <0>      -0.0500
   16 C16       5.8163    -6.7550    -4.4464 C.ar   1 <0>      -0.1100
   17 C17       7.1425    -6.9390    -4.7841 C.ar   1 <0>      -0.1400
   18 C18       8.1417    -6.2718    -4.0949 C.ar   1 <0>      -0.1300
   19 C19       7.8250    -5.4143    -3.0622 C.ar   1 <0>      -0.1000
   20 C20       6.4892    -5.2108    -2.7097 C.ar   1 <0>      -0.1000
   21 C21       6.1441    -4.2961    -1.6081 C.2    1 <0>       0.5200
   22 O22       5.3512    -3.3838    -1.7963 O.co2  1 <0>      -0.6700
   23 O23       6.6503    -4.4488    -0.5050 O.co2  1 <0>      -0.6900
   24 C24       3.6265    -5.9283    -1.7355 C.ar   1 <0>      -0.0900
   25 C25       2.3021    -5.7346    -1.4001 C.ar   1 <0>      -0.0900
   26 C26      -0.1350    -3.2594    -0.2587 C.ar   1 <0>       0.2500
   27 N27       0.1620    -3.8252     0.9000 N.ar   1 <0>      -0.4800
   28 C28       0.2049    -3.1284     2.0169 C.ar   1 <0>       0.1400
   29 C29      -0.0552    -1.7673     2.0282 C.ar   1 <0>      -0.1900
   30 H30       0.2566     0.9044     0.6550 H      1 <0>       0.0800
   31 H31      -1.3740     0.5721     0.0233 H      1 <0>       0.0700
   32 H32      -1.0996     0.6531     1.7801 H      1 <0>       0.0700
   33 H33      -1.1176    -3.7216    -4.2101 H      1 <0>       0.1200
   34 H34      -2.0531    -1.6616    -5.3577 H      1 <0>       0.1000
   35 H35      -1.5811    -0.6353    -3.8998 H      1 <0>       0.1100
   36 H36       0.8495    -1.2793    -4.2334 H      1 <0>       0.1000
   37 H37       0.3775    -2.3056    -5.6913 H      1 <0>       0.1100
   38 H38      -0.3165    -5.7938    -1.1787 H      1 <0>       0.1000
   39 H39      -0.6795    -5.3149    -2.8542 H      1 <0>       0.1000
   40 H40       1.1032    -4.7547    -4.4009 H      1 <0>       0.1200
   41 H41       3.4614    -5.0862    -5.0173 H      1 <0>       0.1200
   42 H42       5.0435    -7.2797    -4.9885 H      1 <0>       0.1200
   43 H43       7.4025    -7.6080    -5.5911 H      1 <0>       0.1200
   44 H44       9.1755    -6.4243    -4.3678 H      1 <0>       0.1200
   45 H45       8.6093    -4.8975    -2.5291 H      1 <0>       0.1200
   46 H46       4.3318    -6.2576    -0.9868 H      1 <0>       0.1200
   47 H47       1.9704    -5.9156    -0.3883 H      1 <0>       0.1200
   48 H48       0.4513    -3.6274     2.9424 H      1 <0>       0.1600
   49 H49      -0.0148    -1.2138     2.9547 H      1 <0>       0.1400
@<TRIPOS>BOND
   1    1    2 1
   2    1   30 1
   3    1   31 1
   4    1   32 1
   5    2   29 ar
   6    2    3 ar
   7    3   26 ar
   8    3    4 1
   9    4    5 2
  10    5    6 1
  11    5    9 1
  12    6    8 1
  13    6    7 1
  14    6   33 1
  15    7    8 1
  16    7   34 1
  17    7   35 1
  18    8   36 1
  19    8   37 1
  20    9   10 1
  21    9   26 1
  22   10   11 1
  23   10   38 1
  24   10   39 1
  25   11   25 ar
  26   11   12 ar
  27   12   13 ar
  28   12   40 1
  29   13   14 ar
  30   13   41 1
  31   14   15 1
  32   14   24 ar
  33   15   20 ar
  34   15   16 ar
  35   16   17 ar
  36   16   42 1
  37   17   18 ar
  38   17   43 1
  39   18   19 ar
  40   18   44 1
  41   19   20 ar
  42   19   45 1
  43   20   21 1
  44   21   22 ar
  45   21   23 ar
  46   24   25 ar
  47   24   46 1
  48   25   47 1
  49   26   27 ar
  50   27   28 ar
  51   28   29 ar
  52   28   48 1
  53   29   49 1
