@<TRIPOS>MOLECULE
ZINC000002022686
54    56    1     0     0
SMALL
USER_CHARGES
@<TRIPOS>ATOM
1      C1     -0.0184    1.5028    0.0103 C.3      1 ZINC000002022686   -0.1100
2      C2      0.0021   -0.0041    0.0020 C.ar     1 ZINC000002022686    0.1300
3      C3      0.0056   -0.6804   -1.2030 C.ar     1 ZINC000002022686   -0.1800
4      C4      0.0249   -2.0669   -1.1996 C.ar     1 ZINC000002022686   -0.0700
5      C5      0.0400   -2.7236    0.0212 C.ar     1 ZINC000002022686   -0.1800
6      C6      0.0354   -1.9798    1.1862 C.ar     1 ZINC000002022686    0.1400
7      C7      0.0522   -2.6830    2.5189 C.3      1 ZINC000002022686   -0.0700
8      C8      1.2309   -2.1725    3.3501 C.3      1 ZINC000002022686    0.0700
9      N9      1.2472   -2.8581    4.6493 N.3      1 ZINC000002022686   -0.5400
10     C10    -0.0961   -2.8959    5.2413 C.3      1 ZINC000002022686    0.0500
11     C11    -0.0689   -3.7400    6.5175 C.3      1 ZINC000002022686   -0.1000
12     C12     0.9280   -3.1294    7.5064 C.3      1 ZINC000002022686   -0.1300
13     C13     1.0035   -3.9897    8.7413 C.2      1 ZINC000002022686    0.4100
14     O14     0.8092   -5.1845    8.6610 O.2      1 ZINC000002022686   -0.4900
15     C15     1.3122   -3.3823   10.0411 C.ar     1 ZINC000002022686   -0.3000
16     C16     1.5313   -2.0017   10.1371 C.ar     1 ZINC000002022686   -0.0300
17     C17     1.8182   -1.4406   11.3484 C.ar     1 ZINC000002022686   -0.2000
18     C18     1.8932   -2.2387   12.4878 C.ar     1 ZINC000002022686    0.3200
19     N19     2.1854   -1.6638   13.7179 N.pl3    1 ZINC000002022686   -1.0900
20     S20     2.2751   -2.6102   15.0738 S.o2     1 ZINC000002022686    2.5300
21     C21     2.6713   -1.4497   16.4105 C.3      1 ZINC000002022686   -0.6400
22     O22     0.9589   -3.1221   15.2317 O.2      1 ZINC000002022686   -1.0200
23     O23     3.3731   -3.4770   14.8242 O.2      1 ZINC000002022686   -1.0200
24     C24     1.6756   -3.6118   12.3970 C.ar     1 ZINC000002022686   -0.2800
25     C25     1.3829   -4.1803   11.1905 C.ar     1 ZINC000002022686    0.0000
26     C26     2.3085   -3.0569    6.8480 C.3      1 ZINC000002022686   -0.1000
27     C27     2.2125   -2.2326    5.5622 C.3      1 ZINC000002022686    0.0600
28     N28     0.0219   -0.6619    1.1449 N.ar     1 ZINC000002022686   -0.4800
29     H29     1.0042    1.8801    0.0026 H        1 ZINC000002022686    0.0800
30     H30    -0.5455    1.8639   -0.8728 H        1 ZINC000002022686    0.0700
31     H31    -0.5286    1.8543    0.9071 H        1 ZINC000002022686    0.0800
32     H32    -0.0069   -0.1359   -2.1356 H        1 ZINC000002022686    0.1300
33     H33     0.0278   -2.6220   -2.1261 H        1 ZINC000002022686    0.1300
34     H34     0.0549   -3.8028    0.0614 H        1 ZINC000002022686    0.1400
35     H35    -0.8795   -2.4818    3.0477 H        1 ZINC000002022686    0.0900
36     H36     0.1562   -3.7566    2.3619 H        1 ZINC000002022686    0.0900
37     H37     2.1625   -2.3738    2.8214 H        1 ZINC000002022686    0.0700
38     H38     1.1268   -1.0989    3.5071 H        1 ZINC000002022686    0.0500
39     H39    -0.4150   -1.8820    5.4832 H        1 ZINC000002022686    0.0300
40     H40    -0.7944   -3.3361    4.5295 H        1 ZINC000002022686    0.0800
41     H41    -1.0627   -3.7550    6.9652 H        1 ZINC000002022686    0.0700
42     H42     0.2367   -4.7576    6.2743 H        1 ZINC000002022686    0.0800
43     H43     0.6011   -2.1264    7.7807 H        1 ZINC000002022686    0.0900
44     H44     1.4737   -1.3824    9.2542 H        1 ZINC000002022686    0.1100
45     H45     1.9876   -0.3766   11.4232 H        1 ZINC000002022686    0.1200
46     H46     1.8823   -0.7016   16.4879 H        1 ZINC000002022686    0.1200
47     H47     2.7503   -1.9932   17.3520 H        1 ZINC000002022686    0.1000
48     H48     3.6193   -0.9569   16.1947 H        1 ZINC000002022686    0.1200
49     H49     1.7347   -4.2268   13.2828 H        1 ZINC000002022686    0.1100
50     H50     1.2143   -5.2448   11.1210 H        1 ZINC000002022686    0.1100
51     H51     3.0134   -2.5838    7.5318 H        1 ZINC000002022686    0.0800
52     H52     2.6515   -4.0638    6.6100 H        1 ZINC000002022686    0.0700
53     H53     3.1908   -2.1910    5.0835 H        1 ZINC000002022686    0.0800
54     H54     1.8827   -1.2218    5.8026 H        1 ZINC000002022686    0.0400
@<TRIPOS>BOND
1     1     2     1
2     1     29    1
3     1     30    1
4     1     31    1
5     2     28    ar
6     2     3     ar
7     3     4     ar
8     3     32    1
9     4     5     ar
10    4     33    1
11    5     6     ar
12    5     34    1
13    6     7     1
14    6     28    ar
15    7     8     1
16    7     35    1
17    7     36    1
18    8     9     1
19    8     37    1
20    8     38    1
21    9     27    1
22    9     10    1
23    10    11    1
24    10    39    1
25    10    40    1
26    11    12    1
27    11    41    1
28    11    42    1
29    12    13    1
30    12    26    1
31    12    43    1
32    13    14    2
33    13    15    1
34    15    25    ar
35    15    16    ar
36    16    17    ar
37    16    44    1
38    17    18    ar
39    17    45    1
40    18    19    1
41    18    24    ar
42    19    20    1
43    20    21    1
44    20    22    2
45    20    23    2
46    21    46    1
47    21    47    1
48    21    48    1
49    24    25    ar
50    24    49    1
51    25    50    1
52    26    27    1
53    26    51    1
54    26    52    1
55    27    53    1
56    27    54    1
@<TRIPOS>SUBSTRUCTURE
1   ZINC000002022686 1     RESIDUE    1   A     ZIN   1
