@<TRIPOS>MOLECULE
ZINC000001914437
  62   66    0    0    0
SMALL
USER_CHARGES
NO_NAME
@<TRIPOS>ATOM
    1 C1       -0.0823     1.1720     0.1383 C.3    1 <0>       0.0600
    2 N2       -0.0900    -0.2855    -0.0094 N.am   1 <0>      -0.6400
    3 C3       -0.0713    -1.0738     1.0836 C.2    1 <0>       0.5200
    4 O4       -0.0777    -2.2804     0.9612 O.2    1 <0>      -0.5100
    5 C5       -0.0425    -0.4559     2.4578 C.3    1 <0>      -0.1000
    6 C6       -0.0258    -1.5458     3.4984 C.ar   1 <0>      -0.0400
    7 C7        1.1806    -2.1254     3.8874 C.ar   1 <0>      -0.1100
    8 C8        2.5841    -1.9278     3.5053 C.2    1 <0>      -0.2300
    9 C9        3.2961    -2.7949     4.2376 C.2    1 <0>       0.0200
   10 O10       2.4806    -3.5088     5.0332 O.3    1 <0>      -0.1900
   11 C11       1.1952    -3.1412     4.8581 C.ar   1 <0>       0.0500
   12 C12      -0.0027    -3.5592     5.4230 C.ar   1 <0>      -0.1000
   13 C13      -1.1893    -2.9779     5.0296 C.ar   1 <0>      -0.0900
   14 C14      -1.2023    -1.9714     4.0750 C.ar   1 <0>      -0.1200
   15 C15      -0.1180    -0.8862    -1.3454 C.3    1 <0>       0.1200
   16 H16      -0.1156    -1.9724    -1.2552 H      1 <0>       0.1300
   17 C17      -1.3836    -0.4384    -2.0791 C.3    1 <0>      -0.1200
   18 C18      -1.4156    -1.0704    -3.4725 C.3    1 <0>      -0.1300
   19 C19      -0.1797    -0.6336    -4.2580 C.3    1 <0>       0.1200
   20 C20      -0.1831     0.9015    -4.4070 C.3    1 <0>      -0.1500
   21 C21       0.3380     1.0915    -5.8580 C.3    1 <0>      -0.1600
   22 C22      -0.2681    -0.1533    -6.5540 C.3    1 <0>       0.0500
   23 O23      -0.2069    -1.2000    -5.5712 O.3    1 <0>      -0.3600
   24 C24       1.0886    -1.0696    -3.5254 C.3    1 <0>      -0.1400
   25 C25       1.1150    -0.4372    -2.1320 C.3    1 <0>       0.0200
   26 H26       1.1111     0.6487    -2.2257 H      1 <0>       0.1400
   27 N27       2.3294    -0.8633    -1.4237 N.4    1 <0>      -0.3900
   28 H28       2.3196    -0.5169    -0.4761 H      1 <0>       0.4200
   29 C29       2.4304    -2.3452    -1.4262 C.3    1 <0>      -0.0200
   30 C30       3.9399    -2.5980    -1.1849 C.3    1 <0>      -0.1400
   31 C31       4.6135    -1.4622    -1.9887 C.3    1 <0>      -0.1400
   32 C32       3.5316    -0.3745    -2.1330 C.3    1 <0>      -0.0200
   33 H33       0.9437     1.5196     0.2589 H      1 <0>       0.0600
   34 H34      -0.5190     1.6295    -0.7494 H      1 <0>       0.0900
   35 H35      -0.6659     1.4513     1.0155 H      1 <0>       0.0900
   36 H36       0.8517     0.1588     2.5611 H      1 <0>       0.1100
   37 H37      -0.9279     0.1647     2.5958 H      1 <0>       0.1100
   38 H38       2.9659    -1.2250     2.7795 H      1 <0>       0.1500
   39 H39       4.3697    -2.9046     4.1950 H      1 <0>       0.2100
   40 H40      -0.0048    -4.3394     6.1698 H      1 <0>       0.1400
   41 H41      -2.1179    -3.3067     5.4721 H      1 <0>       0.1400
   42 H42      -2.1396    -1.5254     3.7766 H      1 <0>       0.1300
   43 H43      -2.2615    -0.7555    -1.5160 H      1 <0>       0.0900
   44 H44      -1.3846     0.6475    -2.1725 H      1 <0>       0.0800
   45 H45      -1.4217    -2.1564    -3.3790 H      1 <0>       0.0800
   46 H46      -2.3136    -0.7459    -3.9982 H      1 <0>       0.0900
   47 H47      -1.1924     1.2994    -4.3019 H      1 <0>       0.0900
   48 H48       0.4939     1.3627    -3.6879 H      1 <0>       0.0800
   49 H49      -0.0465     2.0126    -6.2960 H      1 <0>       0.0900
   50 H50       1.4273     1.0682    -5.8903 H      1 <0>       0.0800
   51 H51      -1.3027     0.0385    -6.8385 H      1 <0>       0.0700
   52 H52       0.3223    -0.4220    -7.4300 H      1 <0>       0.0900
   53 H53       1.0993    -2.1556    -3.4321 H      1 <0>       0.1000
   54 H54       1.9635    -0.7447    -4.0886 H      1 <0>       0.1000
   55 H55       1.8350    -2.7728    -0.6196 H      1 <0>       0.1400
   56 H56       2.1218    -2.7502    -2.3900 H      1 <0>       0.1400
   57 H57       4.1802    -2.5153    -0.1249 H      1 <0>       0.1000
   58 H58       4.2347    -3.5728    -1.5734 H      1 <0>       0.1200
   59 H59       5.4721    -1.0705    -1.4434 H      1 <0>       0.1100
   60 H60       4.9205    -1.8239    -2.9700 H      1 <0>       0.1100
   61 H61       3.3016    -0.2170    -3.1868 H      1 <0>       0.1300
   62 H62       3.8780     0.5558    -1.6828 H      1 <0>       0.1300
@<TRIPOS>BOND
   1    1    2 1
   2    1   33 1
   3    1   34 1
   4    1   35 1
   5    2    3 am
   6    2   15 1
   7    3    4 2
   8    3    5 1
   9    5    6 1
  10    5   36 1
  11    5   37 1
  12    6   14 ar
  13    6    7 ar
  14    7   11 ar
  15    7    8 1
  16    8    9 2
  17    8   38 1
  18    9   10 1
  19    9   39 1
  20   10   11 1
  21   11   12 ar
  22   12   13 ar
  23   12   40 1
  24   13   14 ar
  25   13   41 1
  26   14   42 1
  27   15   16 1
  28   15   25 1
  29   15   17 1
  30   17   18 1
  31   17   43 1
  32   17   44 1
  33   18   19 1
  34   18   45 1
  35   18   46 1
  36   19   23 1
  37   19   20 1
  38   19   24 1
  39   20   21 1
  40   20   47 1
  41   20   48 1
  42   21   22 1
  43   21   49 1
  44   21   50 1
  45   22   23 1
  46   22   51 1
  47   22   52 1
  48   24   25 1
  49   24   53 1
  50   24   54 1
  51   25   26 1
  52   25   27 1
  53   27   28 1
  54   27   32 1
  55   27   29 1
  56   29   30 1
  57   29   55 1
  58   29   56 1
  59   30   31 1
  60   30   57 1
  61   30   58 1
  62   31   32 1
  63   31   59 1
  64   31   60 1
  65   32   61 1
  66   32   62 1
