@<TRIPOS>MOLECULE
ZINC000028815574
78    82    1     0     0
SMALL
USER_CHARGES
@<TRIPOS>ATOM
1      C1     -5.7267   -5.5005    5.0842 C.3      1 ZINC000028815574    0.1000
2      N2     -5.6090   -5.1433    3.6683 N.am     1 ZINC000028815574   -0.6400
3      C3     -5.1104   -3.8199    3.2857 C.3      1 ZINC000028815574    0.0700
4      C4     -5.9595   -6.0320    2.7177 C.2      1 ZINC000028815574    0.7100
5      O5     -6.5046   -7.0731    3.0301 O.2      1 ZINC000028815574   -0.5800
6      N6     -5.7059   -5.7669    1.4209 N.am     1 ZINC000028815574   -0.6400
7      C7     -4.6141   -4.8597    1.0419 C.3      1 ZINC000028815574    0.0900
8      C8     -3.7008   -5.5774    0.0432 C.3      1 ZINC000028815574   -0.1200
9      C9     -4.5368   -6.0815   -1.1354 C.3      1 ZINC000028815574   -0.1300
10     C10    -3.6227   -6.7687   -2.1518 C.3      1 ZINC000028815574    0.1300
11     N11    -4.4159   -7.2103   -3.3017 N.am     1 ZINC000028815574   -0.9900
12     C12    -4.5864   -8.6407   -3.5680 C.3      1 ZINC000028815574    0.1500
13     H13    -5.1583   -8.7792   -4.4855 H        1 ZINC000028815574    0.1200
14     C14    -5.3178   -9.3017   -2.3973 C.3      1 ZINC000028815574   -0.1100
15     C15    -5.2091  -10.8016   -2.5133 C.ar     1 ZINC000028815574   -0.1100
16     C16    -6.0653  -11.5746   -1.7534 C.ar     1 ZINC000028815574   -0.0400
17     C17    -6.0031  -12.9678   -1.8174 C.ar     1 ZINC000028815574   -0.0300
18     C18    -6.8929  -13.7658   -1.0286 C.1      1 ZINC000028815574    0.2400
19     N19    -7.5987  -14.3989   -0.4029 N.1      1 ZINC000028815574   -0.4000
20     C20    -5.0670  -13.5787   -2.6568 C.ar     1 ZINC000028815574   -0.0400
21     C21    -4.2201  -12.8049   -3.4123 C.ar     1 ZINC000028815574   -0.1600
22     C22    -4.2844  -11.4089   -3.3503 C.ar     1 ZINC000028815574    0.1300
23     N23    -3.4080  -10.6902   -4.1545 N.3      1 ZINC000028815574   -0.4800
24     C24    -2.1217  -11.3875   -4.2857 C.3      1 ZINC000028815574    0.1100
25     C25    -1.0979  -10.4476   -4.8684 C.2      1 ZINC000028815574    0.0500
26     C26    -0.2400   -9.6692   -4.1816 C.2      1 ZINC000028815574    0.0100
27     N27     0.5003   -8.9859   -5.0671 N.pl3    1 ZINC000028815574   -0.4700
28     H28     1.1982   -8.3504   -4.8438 H        1 ZINC000028815574    0.4700
29     C29     0.1337   -9.3113   -6.2766 C.cat    1 ZINC000028815574    0.2900
30     N30    -0.8573  -10.2254   -6.1974 N.pl3    1 ZINC000028815574   -0.3900
31     C31    -1.5518  -10.8543   -7.3237 C.3      1 ZINC000028815574    0.0500
32     C32    -3.2134   -9.3101   -3.7062 C.3      1 ZINC000028815574    0.0400
33     S33    -5.1196   -6.0924   -4.3004 S.o2     1 ZINC000028815574    2.6900
34     O34    -6.3080   -6.6913   -4.7987 O.2      1 ZINC000028815574   -0.9200
35     O35    -5.1077   -4.8594   -3.5941 O.2      1 ZINC000028815574   -0.9300
36     C36    -4.0497   -5.8831   -5.6847 C.ar     1 ZINC000028815574   -0.4500
37     C37    -2.9897   -5.0006   -5.6014 C.ar     1 ZINC000028815574   -0.0800
38     C38    -2.1534   -4.8436   -6.6963 C.ar     1 ZINC000028815574   -0.0900
39     C39    -2.4162   -5.5835   -7.8387 C.ar     1 ZINC000028815574   -0.1200
40     C40    -3.4955   -6.4471   -7.8484 C.ar     1 ZINC000028815574    0.0800
41     N41    -4.2667   -6.5746   -6.7866 N.ar     1 ZINC000028815574   -0.3900
42     C42    -5.5813   -7.0803   -0.6319 C.3      1 ZINC000028815574   -0.1400
43     C43    -6.5121   -6.3843    0.3590 C.3      1 ZINC000028815574    0.1300
44     H44    -6.7162   -5.2236    5.4478 H        1 ZINC000028815574    0.0600
45     H45    -5.5842   -6.5748    5.2010 H        1 ZINC000028815574    0.0800
46     H46    -4.9671   -4.9688    5.6574 H        1 ZINC000028815574    0.0700
47     H47    -5.4138   -3.0872    4.0335 H        1 ZINC000028815574    0.0700
48     H48    -4.0225   -3.8458    3.2229 H        1 ZINC000028815574    0.0600
49     H49    -5.5238   -3.5422    2.3162 H        1 ZINC000028815574    0.0800
50     H50    -5.0276   -3.9632    0.5800 H        1 ZINC000028815574    0.0700
51     H51    -4.0422   -4.5858    1.9285 H        1 ZINC000028815574    0.1000
52     H52    -2.9420   -4.8839   -0.3193 H        1 ZINC000028815574    0.0800
53     H53    -3.2176   -6.4221    0.5341 H        1 ZINC000028815574    0.0700
54     H54    -5.0396   -5.2391   -1.6106 H        1 ZINC000028815574    0.1100
55     H55    -2.8582   -6.0671   -2.4856 H        1 ZINC000028815574    0.0800
56     H56    -3.1459   -7.6314   -1.6865 H        1 ZINC000028815574    0.0900
57     H57    -4.8684   -8.9768   -1.4589 H        1 ZINC000028815574    0.1000
58     H58    -6.3683   -9.0116   -2.4155 H        1 ZINC000028815574    0.1000
59     H59    -6.7866  -11.0985   -1.1058 H        1 ZINC000028815574    0.1400
60     H60    -5.0096  -14.6559   -2.7108 H        1 ZINC000028815574    0.1400
61     H61    -3.4974  -13.2788   -4.0600 H        1 ZINC000028815574    0.1400
62     H62    -1.7889  -11.7238   -3.3038 H        1 ZINC000028815574    0.1000
63     H63    -2.2406  -12.2484   -4.9436 H        1 ZINC000028815574    0.1200
64     H64    -0.1617   -9.6062   -3.1063 H        1 ZINC000028815574    0.2200
65     H65     0.5556   -8.9178   -7.1895 H        1 ZINC000028815574    0.2600
66     H66    -1.0806  -11.8101   -7.5530 H        1 ZINC000028815574    0.1100
67     H67    -2.5967  -11.0182   -7.0604 H        1 ZINC000028815574    0.1200
68     H68    -1.4946  -10.2026   -8.1955 H        1 ZINC000028815574    0.1200
69     H69    -2.6139   -8.7689   -4.4382 H        1 ZINC000028815574    0.0800
70     H70    -2.7069   -9.3071   -2.7411 H        1 ZINC000028815574    0.0700
71     H71    -2.8150   -4.4399   -4.6950 H        1 ZINC000028815574    0.1500
72     H72    -1.3174   -4.1608   -6.6600 H        1 ZINC000028815574    0.1500
73     H73    -1.7859   -5.4862   -8.7103 H        1 ZINC000028815574    0.1500
74     H74    -3.7072   -7.0269   -8.7347 H        1 ZINC000028815574    0.1700
75     H75    -6.1610   -7.4565   -1.4749 H        1 ZINC000028815574    0.0800
76     H76    -5.0804   -7.9109   -0.1346 H        1 ZINC000028815574    0.0700
77     H77    -7.1944   -7.1145    0.7942 H        1 ZINC000028815574    0.0900
78     H78    -7.0815   -5.6106   -0.1561 H        1 ZINC000028815574    0.0700
@<TRIPOS>BOND
1     1     2     1
2     1     44    1
3     1     45    1
4     1     46    1
5     2     3     1
6     2     4     am
7     3     47    1
8     3     48    1
9     3     49    1
10    4     5     2
11    4     6     am
12    6     43    1
13    6     7     1
14    7     8     1
15    7     50    1
16    7     51    1
17    8     9     1
18    8     52    1
19    8     53    1
20    9     10    1
21    9     42    1
22    9     54    1
23    10    11    1
24    10    55    1
25    10    56    1
26    11    12    1
27    11    33    am
28    12    13    1
29    12    32    1
30    12    14    1
31    14    15    1
32    14    57    1
33    14    58    1
34    15    22    ar
35    15    16    ar
36    16    17    ar
37    16    59    1
38    17    18    1
39    17    20    ar
40    18    19    3
41    20    21    ar
42    20    60    1
43    21    22    ar
44    21    61    1
45    22    23    1
46    23    24    1
47    23    32    1
48    24    25    1
49    24    62    1
50    24    63    1
51    25    30    1
52    25    26    2
53    26    27    1
54    26    64    1
55    27    28    1
56    27    29    ar
57    29    30    ar
58    29    65    1
59    30    31    1
60    31    66    1
61    31    67    1
62    31    68    1
63    32    69    1
64    32    70    1
65    33    34    2
66    33    35    2
67    33    36    1
68    36    41    ar
69    36    37    ar
70    37    38    ar
71    37    71    1
72    38    39    ar
73    38    72    1
74    39    40    ar
75    39    73    1
76    40    41    ar
77    40    74    1
78    42    43    1
79    42    75    1
80    42    76    1
81    43    77    1
82    43    78    1
@<TRIPOS>SUBSTRUCTURE
1   ZINC000028815574 1     RESIDUE    1   A     ZIN   1
