@<TRIPOS>MOLECULE
ZINC000068203220
51    55    1     0     0
SMALL
USER_CHARGES
@<TRIPOS>ATOM
1      C1      0.4969    1.4607    0.5970 C.3      1 ZINC000068203220    0.0300
2      O2      0.4396    0.0353    0.5138 O.3      1 ZINC000068203220   -0.3300
3      C3      0.9350   -0.5375   -0.6154 C.ar     1 ZINC000068203220    0.1200
4      C4      0.9066   -1.9234   -0.7678 C.ar     1 ZINC000068203220    0.0800
5      N5      0.4527   -2.9533    0.0310 N.pl3    1 ZINC000068203220   -0.5900
6      C6      0.6648   -4.1582   -0.5991 C.2      1 ZINC000068203220    0.1400
7      C7      0.3082   -5.4799   -0.0506 C.2      1 ZINC000068203220    0.1400
8      C8     -0.8572   -5.8040    0.6370 C.2      1 ZINC000068203220   -0.1500
9      C9     -2.0099   -5.0990    1.0343 C.2      1 ZINC000068203220    0.5500
10     N10    -2.1480   -3.7588    0.7347 N.pl3    1 ZINC000068203220   -0.8100
11     N11    -2.9598   -5.7395    1.6992 N.2      1 ZINC000068203220   -0.6200
12     C12    -2.8507   -7.0320    2.0001 C.2      1 ZINC000068203220    0.3300
13     N13    -1.8086   -7.7421    1.6609 N.2      1 ZINC000068203220   -0.3400
14     N14    -0.7568   -7.1458    0.9560 N.pl3    1 ZINC000068203220   -0.2500
15     C15     0.4169   -7.5823    0.4742 C.2      1 ZINC000068203220    0.3000
16     C16     0.9333   -8.9927    0.5977 C.3      1 ZINC000068203220    0.0000
17     C17     1.1516   -9.5799   -0.7981 C.3      1 ZINC000068203220   -0.1000
18     C18     1.6759  -11.0118   -0.6727 C.3      1 ZINC000068203220   -0.0900
19     C19     3.0018  -11.0045    0.0906 C.3      1 ZINC000068203220   -0.1700
20     C20     4.0066  -10.1652   -0.6559 C.2      1 ZINC000068203220    0.5000
21     O21     4.8811   -9.5744   -0.0453 O.co2    1 ZINC000068203220   -0.7000
22     O22     3.9449  -10.0770   -1.8703 O.co2    1 ZINC000068203220   -0.7000
23     C23     2.7835  -10.4172    1.4865 C.3      1 ZINC000068203220   -0.0900
24     C24     2.2592   -8.9853    1.3611 C.3      1 ZINC000068203220   -0.1000
25     N25     1.0439   -6.6008   -0.1249 N.2      1 ZINC000068203220   -0.4200
26     C26     1.2531   -3.9421   -1.8049 C.2      1 ZINC000068203220   -0.1400
27     C27     1.4235   -2.4973   -1.9436 C.ar     1 ZINC000068203220   -0.0700
28     C28     1.9578   -1.6776   -2.9439 C.ar     1 ZINC000068203220   -0.1000
29     C29     1.9757   -0.3220   -2.7750 C.ar     1 ZINC000068203220   -0.1100
30     C30     1.4638    0.2522   -1.6201 C.ar     1 ZINC000068203220   -0.1900
31     H31     1.5351    1.7869    0.5343 H        1 ZINC000068203220    0.0600
32     H32    -0.0709    1.8958   -0.2254 H        1 ZINC000068203220    0.0600
33     H33     0.0703    1.7868    1.5456 H        1 ZINC000068203220    0.1000
34     H34     0.0459   -2.8443    0.9048 H        1 ZINC000068203220    0.4200
35     H35    -1.5305   -3.3332    0.1195 H        1 ZINC000068203220    0.4100
36     H36    -2.8627   -3.2425    1.1392 H        1 ZINC000068203220    0.4200
37     H37    -3.6521   -7.5097    2.5441 H        1 ZINC000068203220    0.2200
38     H38     0.2065   -9.5997    1.1376 H        1 ZINC000068203220    0.0900
39     H39     0.2070   -9.5852   -1.3420 H        1 ZINC000068203220    0.0500
40     H40     1.8783   -8.9729   -1.3381 H        1 ZINC000068203220    0.0900
41     H41     0.9492  -11.6188   -0.1328 H        1 ZINC000068203220    0.0400
42     H42     1.8315  -11.4302   -1.6671 H        1 ZINC000068203220    0.0700
43     H43     3.3753  -12.0246    0.1800 H        1 ZINC000068203220    0.0600
44     H44     2.0568  -11.0242    2.0264 H        1 ZINC000068203220    0.0400
45     H45     3.7281  -10.4119    2.0303 H        1 ZINC000068203220    0.0700
46     H46     2.9859   -8.3783    0.8211 H        1 ZINC000068203220    0.0900
47     H47     2.1036   -8.5669    2.3555 H        1 ZINC000068203220    0.0500
48     H48     1.5401   -4.6950   -2.5240 H        1 ZINC000068203220    0.1600
49     H49     2.3556   -2.1156   -3.8473 H        1 ZINC000068203220    0.1300
50     H50     2.3890    0.3083   -3.5485 H        1 ZINC000068203220    0.1300
51     H51     1.4849    1.3255   -1.5016 H        1 ZINC000068203220    0.1300
@<TRIPOS>BOND
1     1     2     1
2     1     31    1
3     1     32    1
4     1     33    1
5     2     3     1
6     3     30    ar
7     3     4     ar
8     4     27    ar
9     4     5     1
10    5     6     1
11    5     34    1
12    6     7     1
13    6     26    2
14    7     25    1
15    7     8     2
16    8     14    1
17    8     9     1
18    9     10    1
19    9     11    2
20    10    35    1
21    10    36    1
22    11    12    1
23    12    13    2
24    12    37    1
25    13    14    1
26    14    15    1
27    15    16    1
28    15    25    2
29    16    24    1
30    16    17    1
31    16    38    1
32    17    18    1
33    17    39    1
34    17    40    1
35    18    19    1
36    18    41    1
37    18    42    1
38    19    20    1
39    19    23    1
40    19    43    1
41    20    21    ar
42    20    22    ar
43    23    24    1
44    23    44    1
45    23    45    1
46    24    46    1
47    24    47    1
48    26    27    1
49    26    48    1
50    27    28    ar
51    28    29    ar
52    28    49    1
53    29    30    ar
54    29    50    1
55    30    51    1
@<TRIPOS>SUBSTRUCTURE
1   ZINC000068203220 1     RESIDUE    1   A     ZIN   1
