@<TRIPOS>MOLECULE
ZINC000024447427
97    102   1     0     0
SMALL
USER_CHARGES
@<TRIPOS>ATOM
1      C1      2.0926   -2.3918   -6.1931 C.3      1 ZINC000024447427   -0.1700
2      C2      3.3334   -3.1881   -5.7843 C.3      1 ZINC000024447427    0.1700
3      C3      2.9559   -4.1998   -4.7004 C.3      1 ZINC000024447427   -0.1700
4      C4      3.8881   -3.9291   -7.0026 C.3      1 ZINC000024447427   -0.1600
5      N5      4.3519   -2.2724   -5.2642 N.am     1 ZINC000024447427   -0.7100
6      C6      4.0846   -1.5096   -4.1857 C.2      1 ZINC000024447427    0.4600
7      O7      3.0010   -1.5812   -3.6458 O.2      1 ZINC000024447427   -0.5100
8      C8      5.1323   -0.5677   -3.6508 C.3      1 ZINC000024447427    0.0400
9      H9      5.4750    0.0878   -4.4514 H        1 ZINC000024447427    0.1500
10     C10     6.3151   -1.3738   -3.1094 C.3      1 ZINC000024447427    0.0100
11     N11     5.8568   -2.2427   -2.0175 N.4      1 ZINC000024447427   -0.3900
12     H12     5.1418   -2.8660   -2.3615 H        1 ZINC000024447427    0.4200
13     C13     6.9889   -3.0293   -1.5100 C.3      1 ZINC000024447427    0.0800
14     C14     6.4968   -4.0079   -0.4750 C.2      1 ZINC000024447427   -0.0600
15     C15     6.0843   -5.2561   -0.7346 C.2      1 ZINC000024447427   -0.1200
16     C16     5.7005   -5.8372    0.5575 C.ar     1 ZINC000024447427   -0.1500
17     C17     5.2012   -7.0749    0.9593 C.ar     1 ZINC000024447427   -0.0600
18     C18     4.9379   -7.3023    2.2923 C.ar     1 ZINC000024447427   -0.1300
19     C19     5.1674   -6.3063    3.2303 C.ar     1 ZINC000024447427   -0.0700
20     C20     5.6605   -5.0777    2.8458 C.ar     1 ZINC000024447427   -0.1100
21     C21     5.9335   -4.8280    1.5071 C.ar     1 ZINC000024447427    0.0700
22     O22     6.4136   -3.7571    0.8432 O.3      1 ZINC000024447427   -0.1900
23     C23     5.3075   -1.4196   -0.9320 C.3      1 ZINC000024447427    0.0000
24     C24     4.1164   -0.6139   -1.4552 C.3      1 ZINC000024447427    0.0000
25     N25     4.5569    0.2414   -2.5670 N.3      1 ZINC000024447427   -0.4900
26     C26     3.4519    1.0741   -3.0605 C.3      1 ZINC000024447427    0.0100
27     C27     3.0408    2.0713   -1.9754 C.3      1 ZINC000024447427    0.1200
28     H28     2.6439    1.5304   -1.1164 H        1 ZINC000024447427    0.1000
29     O29     4.1803    2.8340   -1.5731 O.3      1 ZINC000024447427   -0.5400
30     C30     1.9669    3.0112   -2.5269 C.3      1 ZINC000024447427   -0.1300
31     C31     1.4692    3.9290   -1.4086 C.3      1 ZINC000024447427   -0.0900
32     H32     1.1417    3.3255   -0.5620 H        1 ZINC000024447427    0.0900
33     C33     2.6037    4.8552   -0.9661 C.3      1 ZINC000024447427   -0.0900
34     C34     2.1168    5.7515    0.1433 C.ar     1 ZINC000024447427   -0.1000
35     C35     1.6537    7.0212   -0.1468 C.ar     1 ZINC000024447427   -0.1100
36     C36     1.2071    7.8433    0.8708 C.ar     1 ZINC000024447427   -0.1100
37     C37     1.2232    7.3955    2.1785 C.ar     1 ZINC000024447427   -0.1100
38     C38     1.6854    6.1254    2.4685 C.ar     1 ZINC000024447427   -0.1200
39     C39     2.1281    5.3017    1.4504 C.ar     1 ZINC000024447427   -0.1200
40     C40     0.3142    4.7550   -1.9132 C.2      1 ZINC000024447427    0.5200
41     O41     0.1682    4.9294   -3.1045 O.2      1 ZINC000024447427   -0.5500
42     N42    -0.5565    5.3001   -1.0407 N.am     1 ZINC000024447427   -0.7000
43     C43    -1.7469    5.9978   -1.5330 C.3      1 ZINC000024447427    0.1900
44     H44    -1.5342    6.4805   -2.4869 H        1 ZINC000024447427    0.1100
45     C45    -2.9004    5.0288   -1.6804 C.ar     1 ZINC000024447427   -0.1100
46     C46    -2.9363    3.7507   -2.2115 C.ar     1 ZINC000024447427   -0.0900
47     C47    -4.1226    3.0436   -2.2420 C.ar     1 ZINC000024447427   -0.1200
48     C48    -5.2779    3.6128   -1.7404 C.ar     1 ZINC000024447427   -0.1100
49     C49    -5.2440    4.8878   -1.2097 C.ar     1 ZINC000024447427   -0.1100
50     C50    -4.0561    5.5983   -1.1787 C.ar     1 ZINC000024447427   -0.0900
51     C51    -3.7577    6.9885   -0.6597 C.3      1 ZINC000024447427   -0.1200
52     C52    -2.2222    7.0408   -0.4993 C.3      1 ZINC000024447427    0.1000
53     H53    -1.8408    8.0326   -0.7421 H        1 ZINC000024447427    0.0800
54     O54    -1.8363    6.6602    0.8230 O.3      1 ZINC000024447427   -0.5500
55     H55     1.6974   -1.8639   -5.3252 H        1 ZINC000024447427    0.0800
56     H56     2.3616   -1.6711   -6.9653 H        1 ZINC000024447427    0.0600
57     H57     1.3348   -3.0731   -6.5801 H        1 ZINC000024447427    0.0700
58     H58     2.1981   -4.8811   -5.0873 H        1 ZINC000024447427    0.0700
59     H59     3.8399   -4.7671   -4.4091 H        1 ZINC000024447427    0.0500
60     H60     2.5607   -3.6719   -3.8325 H        1 ZINC000024447427    0.0700
61     H61     4.1571   -3.2084   -7.7748 H        1 ZINC000024447427    0.0700
62     H62     4.7721   -4.4964   -6.7113 H        1 ZINC000024447427    0.0600
63     H63     3.1303   -4.6104   -7.3895 H        1 ZINC000024447427    0.0800
64     H64     5.2186   -2.2152   -5.6961 H        1 ZINC000024447427    0.4000
65     H65     6.7343   -1.9850   -3.9086 H        1 ZINC000024447427    0.1400
66     H66     7.0785   -0.6918   -2.7350 H        1 ZINC000024447427    0.1600
67     H67     7.4516   -3.5732   -2.3334 H        1 ZINC000024447427    0.1600
68     H68     7.7222   -2.3610   -1.0585 H        1 ZINC000024447427    0.1500
69     H69     6.0424   -5.7376   -1.7004 H        1 ZINC000024447427    0.1700
70     H70     5.0214   -7.8509    0.2300 H        1 ZINC000024447427    0.1400
71     H71     4.5510   -8.2598    2.6083 H        1 ZINC000024447427    0.1400
72     H72     4.9571   -6.4953    4.2726 H        1 ZINC000024447427    0.1500
73     H73     5.8344   -4.3098    3.5850 H        1 ZINC000024447427    0.1400
74     H74     4.9798   -2.0648   -0.1169 H        1 ZINC000024447427    0.1300
75     H75     6.0761   -0.7374   -0.5688 H        1 ZINC000024447427    0.1400
76     H76     3.3419   -1.2959   -1.8060 H        1 ZINC000024447427    0.1000
77     H77     3.7179    0.0082   -0.6538 H        1 ZINC000024447427    0.1300
78     H78     3.7746    1.6166   -3.9491 H        1 ZINC000024447427    0.0900
79     H79     2.6022    0.4390   -3.3111 H        1 ZINC000024447427    0.0800
80     H80     4.5861    3.3422   -2.2887 H        1 ZINC000024447427    0.3800
81     H81     2.3896    3.6140   -3.3306 H        1 ZINC000024447427    0.0800
82     H82     1.1336    2.4240   -2.9129 H        1 ZINC000024447427    0.0800
83     H83     3.4423    4.2575   -0.6088 H        1 ZINC000024447427    0.1200
84     H84     2.9256    5.4645   -1.8106 H        1 ZINC000024447427    0.0700
85     H85     1.6412    7.3711   -1.1685 H        1 ZINC000024447427    0.1100
86     H86     0.8460    8.8356    0.6442 H        1 ZINC000024447427    0.1200
87     H87     0.8749    8.0380    2.9736 H        1 ZINC000024447427    0.1200
88     H88     1.6983    5.7757    3.4903 H        1 ZINC000024447427    0.1200
89     H89     2.4892    4.3095    1.6770 H        1 ZINC000024447427    0.1200
90     H90    -0.3950    5.2303   -0.0868 H        1 ZINC000024447427    0.4100
91     H91    -2.0339    3.3052   -2.6036 H        1 ZINC000024447427    0.1100
92     H92    -4.1474    2.0471   -2.6576 H        1 ZINC000024447427    0.1200
93     H93    -6.2063    3.0616   -1.7638 H        1 ZINC000024447427    0.1300
94     H94    -6.1472    5.3320   -0.8180 H        1 ZINC000024447427    0.1200
95     H95    -4.0873    7.7392   -1.3780 H        1 ZINC000024447427    0.0900
96     H96    -4.2445    7.1454    0.3029 H        1 ZINC000024447427    0.0900
97     H97    -2.1847    7.2378    1.5159 H        1 ZINC000024447427    0.3900
@<TRIPOS>BOND
1     1     2     1
2     1     55    1
3     1     56    1
4     1     57    1
5     2     3     1
6     2     4     1
7     2     5     1
8     3     58    1
9     3     59    1
10    3     60    1
11    4     61    1
12    4     62    1
13    4     63    1
14    5     6     am
15    5     64    1
16    6     7     2
17    6     8     1
18    8     9     1
19    8     25    1
20    8     10    1
21    10    11    1
22    10    65    1
23    10    66    1
24    11    12    1
25    11    13    1
26    11    23    1
27    13    14    1
28    13    67    1
29    13    68    1
30    14    22    1
31    14    15    2
32    15    16    1
33    15    69    1
34    16    21    ar
35    16    17    ar
36    17    18    ar
37    17    70    1
38    18    19    ar
39    18    71    1
40    19    20    ar
41    19    72    1
42    20    21    ar
43    20    73    1
44    21    22    1
45    23    24    1
46    23    74    1
47    23    75    1
48    24    25    1
49    24    76    1
50    24    77    1
51    25    26    1
52    26    27    1
53    26    78    1
54    26    79    1
55    27    28    1
56    27    29    1
57    27    30    1
58    29    80    1
59    30    31    1
60    30    81    1
61    30    82    1
62    31    32    1
63    31    33    1
64    31    40    1
65    33    34    1
66    33    83    1
67    33    84    1
68    34    39    ar
69    34    35    ar
70    35    36    ar
71    35    85    1
72    36    37    ar
73    36    86    1
74    37    38    ar
75    37    87    1
76    38    39    ar
77    38    88    1
78    39    89    1
79    40    41    2
80    40    42    am
81    42    43    1
82    42    90    1
83    43    44    1
84    43    52    1
85    43    45    1
86    45    50    ar
87    45    46    ar
88    46    47    ar
89    46    91    1
90    47    48    ar
91    47    92    1
92    48    49    ar
93    48    93    1
94    49    50    ar
95    49    94    1
96    50    51    1
97    51    52    1
98    51    95    1
99    51    96    1
100   52    53    1
101   52    54    1
102   54    97    1
@<TRIPOS>SUBSTRUCTURE
1   ZINC000024447427 1     RESIDUE    1   A     ZIN   1
