@<TRIPOS>MOLECULE
ZINC000085540154
71    74    1     0     0
SMALL
USER_CHARGES
@<TRIPOS>ATOM
1      N1     -0.0166    1.3714    0.0096 N.pl3    1 ZINC000085540154   -0.8200
2      C2      0.0021   -0.0041    0.0020 C.2      1 ZINC000085540154    0.5000
3      N3     -1.1354   -0.6867    0.0037 N.2      1 ZINC000085540154   -0.6100
4      C4     -1.1293   -2.0185   -0.0041 C.2      1 ZINC000085540154    0.6500
5      O5     -2.1886   -2.6233   -0.0028 O.2      1 ZINC000085540154   -0.5000
6      N6      0.0264   -2.7078   -0.0137 N.am     1 ZINC000085540154   -0.5300
7      C7      0.0011   -4.1726   -0.0226 C.3      1 ZINC000085540154    0.2800
8      H8      1.0109   -4.5681   -0.1313 H        1 ZINC000085540154    0.1100
9      C9     -0.6493   -4.7070    1.2727 C.3      1 ZINC000085540154   -0.1800
10     C10    -1.4548   -5.9405    0.8071 C.3      1 ZINC000085540154    0.0800
11     H11    -2.5170   -5.8011    1.0081 H        1 ZINC000085540154    0.0900
12     O12    -0.9758   -7.1233    1.4501 O.3      1 ZINC000085540154   -0.5500
13     C13    -1.1959   -6.0054   -0.7145 C.3      1 ZINC000085540154    0.0900
14     H14    -0.3703   -6.6836   -0.9303 H        1 ZINC000085540154    0.0900
15     C15    -2.4594   -6.4546   -1.4511 C.3      1 ZINC000085540154    0.1400
16     O16    -2.1675   -6.6203   -2.8401 O.3      1 ZINC000085540154   -0.7600
17     P17    -3.2686   -7.0871   -3.9180 P.3      1 ZINC000085540154    2.2900
18     O18    -3.9048   -8.4187   -3.4606 O.co2    1 ZINC000085540154   -1.1000
19     O19    -4.3657   -6.0055   -4.0349 O.co2    1 ZINC000085540154   -1.1100
20     O20    -2.5635   -7.2934   -5.3506 O.3      1 ZINC000085540154   -1.1000
21     P21    -3.0037   -8.0168   -6.7199 P.3      1 ZINC000085540154    2.3500
22     O22    -3.7399   -9.3350   -6.3924 O.co2    1 ZINC000085540154   -1.1000
23     O23    -3.9451   -7.0849   -7.5151 O.co2    1 ZINC000085540154   -1.1200
24     O24    -1.6955   -8.3375   -7.6020 O.3      1 ZINC000085540154   -1.1100
25     P25    -1.4082   -9.2820   -8.8738 P.3      1 ZINC000085540154    2.3500
26     O26    -2.1708  -10.6153   -8.7079 O.co2    1 ZINC000085540154   -1.1000
27     O27    -1.8854   -8.5723  -10.1605 O.co2    1 ZINC000085540154   -1.1200
28     O28     0.1713   -9.5765   -8.9776 O.3      1 ZINC000085540154   -1.1000
29     P29     1.0583  -10.6474   -9.7890 P.3      1 ZINC000085540154    2.2900
30     O30     0.3498  -12.0203   -9.7732 O.co2    1 ZINC000085540154   -1.1000
31     O31     1.2299  -10.1732  -11.2493 O.co2    1 ZINC000085540154   -1.1100
32     O32     2.5048  -10.7820   -9.0949 O.3      1 ZINC000085540154   -0.7600
33     C33     3.4860  -11.7306   -9.5184 C.3      1 ZINC000085540154    0.1400
34     C34     4.7382  -11.5911   -8.6504 C.3      1 ZINC000085540154    0.0800
35     H35     5.0941  -10.5609   -8.6619 H        1 ZINC000085540154    0.1000
36     O36     4.4614  -12.0123   -7.2970 O.3      1 ZINC000085540154   -0.3300
37     C37     5.7510  -12.3144   -6.7212 C.3      1 ZINC000085540154    0.2900
38     H38     6.2640  -11.3957   -6.4366 H        1 ZINC000085540154    0.1400
39     N39     5.5973  -13.1926   -5.5587 N.am     1 ZINC000085540154   -0.5200
40     C40     4.9054  -14.3666   -5.6830 C.2      1 ZINC000085540154    0.1900
41     C41     4.7642  -15.1762   -4.6117 C.2      1 ZINC000085540154   -0.3000
42     C42     5.3385  -14.7906   -3.3764 C.2      1 ZINC000085540154    0.5600
43     O43     5.2248  -15.5044   -2.3964 O.2      1 ZINC000085540154   -0.5300
44     N44     6.0128  -13.6258   -3.2953 N.am     1 ZINC000085540154   -0.6600
45     C45     6.1427  -12.8401   -4.3804 C.2      1 ZINC000085540154    0.7100
46     O46     6.7539  -11.7927   -4.2924 O.2      1 ZINC000085540154   -0.5300
47     C47     6.5257  -13.0369   -7.8454 C.3      1 ZINC000085540154    0.0400
48     H48     6.4265  -14.1176   -7.7440 H        1 ZINC000085540154    0.0900
49     O49     7.9035  -12.6580   -7.8275 O.3      1 ZINC000085540154   -0.5400
50     C50     5.8452  -12.5480   -9.1457 C.3      1 ZINC000085540154    0.0500
51     H51     5.4086  -13.3872   -9.6871 H        1 ZINC000085540154    0.1000
52     O52     6.7829  -11.8545   -9.9713 O.3      1 ZINC000085540154   -0.5300
53     O53    -0.8451   -4.6544   -1.0892 O.3      1 ZINC000085540154   -0.3300
54     C54     1.2200   -2.0505   -0.0158 C.2      1 ZINC000085540154    0.2100
55     C55     1.2303   -0.6965   -0.0134 C.2      1 ZINC000085540154   -0.3200
56     H56     0.8168    1.8678    0.0043 H        1 ZINC000085540154    0.4100
57     H57    -0.8631    1.8449    0.0162 H        1 ZINC000085540154    0.4100
58     H58     0.1160   -4.9998    1.9916 H        1 ZINC000085540154    0.0900
59     H59    -1.3132   -3.9578    1.7040 H        1 ZINC000085540154    0.0900
60     H60    -1.0604   -7.1091    2.4133 H        1 ZINC000085540154    0.3700
61     H61    -2.8041   -7.4021   -1.0368 H        1 ZINC000085540154    0.0700
62     H62    -3.2375   -5.7009   -1.3307 H        1 ZINC000085540154    0.0600
63     H63     3.0842  -12.7388   -9.4171 H        1 ZINC000085540154    0.0600
64     H64     3.7442  -11.5454  -10.5610 H        1 ZINC000085540154    0.0700
65     H65     4.4739  -14.6440   -6.6334 H        1 ZINC000085540154    0.1800
66     H66     4.2202  -16.1054   -4.6959 H        1 ZINC000085540154    0.1800
67     H67     6.4091  -13.3547   -2.4524 H        1 ZINC000085540154    0.4300
68     H68     8.4371  -13.0825   -8.5131 H        1 ZINC000085540154    0.3800
69     H69     7.5296  -12.3970  -10.2597 H        1 ZINC000085540154    0.3700
70     H70     2.1477   -2.6035   -0.0235 H        1 ZINC000085540154    0.1700
71     H71     2.1649   -0.1552   -0.0154 H        1 ZINC000085540154    0.1500
@<TRIPOS>BOND
1     1     2     1
2     1     56    1
3     1     57    1
4     2     55    1
5     2     3     2
6     3     4     1
7     4     5     2
8     4     6     am
9     6     7     1
10    6     54    1
11    7     8     1
12    7     53    1
13    7     9     1
14    9     10    1
15    9     58    1
16    9     59    1
17    10    11    1
18    10    12    1
19    10    13    1
20    12    60    1
21    13    14    1
22    13    15    1
23    13    53    1
24    15    16    1
25    15    61    1
26    15    62    1
27    16    17    1
28    17    18    ar
29    17    19    ar
30    17    20    1
31    20    21    1
32    21    22    ar
33    21    23    ar
34    21    24    1
35    24    25    1
36    25    26    ar
37    25    27    ar
38    25    28    1
39    28    29    1
40    29    30    ar
41    29    31    ar
42    29    32    1
43    32    33    1
44    33    34    1
45    33    63    1
46    33    64    1
47    34    35    1
48    34    50    1
49    34    36    1
50    36    37    1
51    37    38    1
52    37    39    1
53    37    47    1
54    39    45    am
55    39    40    1
56    40    41    2
57    40    65    1
58    41    42    1
59    41    66    1
60    42    43    2
61    42    44    am
62    44    45    am
63    44    67    1
64    45    46    2
65    47    48    1
66    47    49    1
67    47    50    1
68    49    68    1
69    50    51    1
70    50    52    1
71    52    69    1
72    54    55    2
73    54    70    1
74    55    71    1
@<TRIPOS>SUBSTRUCTURE
1   ZINC000085540154 1     RESIDUE    1   A     ZIN   1
