@<TRIPOS>MOLECULE
ZINC000044305871
67    71    1     0     0
SMALL
USER_CHARGES
@<TRIPOS>ATOM
1      C1     -0.2151    1.4128   -0.0269 C.3      1 ZINC000044305871   -0.1700
2      C2     -0.0086   -0.1032   -0.0281 C.3      1 ZINC000044305871    0.1300
3      H3      0.4954   -0.4005   -0.9477 H        1 ZINC000044305871    0.0800
4      O4      0.7917   -0.4758    1.0956 O.3      1 ZINC000044305871   -0.3600
5      C5      2.1915   -0.5417    0.8159 C.3      1 ZINC000044305871    0.1000
6      H6      2.3345   -0.6488   -0.2594 H        1 ZINC000044305871    0.0700
7      C7      2.8532    0.7520    1.2795 C.3      1 ZINC000044305871   -0.1400
8      C8      4.3829    0.6941    1.1295 C.3      1 ZINC000044305871   -0.1000
9      C9      4.8629   -0.4983    1.9335 C.3      1 ZINC000044305871   -0.1100
10     H10     4.5191   -0.4265    2.9654 H        1 ZINC000044305871    0.0900
11     C11     6.3628   -0.7999    1.8865 C.3      1 ZINC000044305871    0.1100
12     N12     6.4344   -2.2488    2.2111 N.pl3    1 ZINC000044305871   -0.6000
13     C13     7.5098   -2.8937    2.7443 C.2      1 ZINC000044305871    0.2700
14     C14     7.5633   -4.2090    3.0288 C.2      1 ZINC000044305871   -0.4000
15     C15     8.7883   -4.6046    3.5672 C.2      1 ZINC000044305871    0.4000
16     O16     9.0836   -5.7341    3.9049 O.2      1 ZINC000044305871   -0.4900
17     C17     9.6871   -3.3913    3.6599 C.3      1 ZINC000044305871   -0.1800
18     C18     8.8261   -2.2434    3.1005 C.3      1 ZINC000044305871   -0.1000
19     C19     5.1376   -2.8732    1.8564 C.3      1 ZINC000044305871    0.1200
20     C20     4.2761   -1.7647    1.2454 C.3      1 ZINC000044305871   -0.1000
21     H21     4.4631   -1.6981    0.1736 H        1 ZINC000044305871    0.0900
22     C22     2.7881   -1.7690    1.5263 C.3      1 ZINC000044305871   -0.0300
23     H23     2.6122   -1.7024    2.5999 H        1 ZINC000044305871    0.1000
24     C24     2.1658   -3.0286    0.9810 C.ar     1 ZINC000044305871   -0.0800
25     C25     2.2496   -3.3118   -0.3695 C.ar     1 ZINC000044305871   -0.0900
26     C26     1.6793   -4.4666   -0.8706 C.ar     1 ZINC000044305871   -0.1500
27     C27     1.0243   -5.3403   -0.0194 C.ar     1 ZINC000044305871    0.1000
28     F28     0.4668   -6.4697   -0.5081 F        1 ZINC000044305871   -0.1400
29     C29     0.9414   -5.0559    1.3331 C.ar     1 ZINC000044305871   -0.1500
30     C30     1.5166   -3.9029    1.8327 C.ar     1 ZINC000044305871   -0.0800
31     C31    -1.3460   -0.7924    0.0572 C.ar     1 ZINC000044305871   -0.0900
32     C32    -1.9865   -0.9100    1.2765 C.ar     1 ZINC000044305871   -0.0100
33     C33    -3.2134   -1.5422    1.3547 C.ar     1 ZINC000044305871   -0.1800
34     C34    -3.9114   -1.6708    2.6841 C.3      1 ZINC000044305871    0.5100
35     F35    -4.7345   -0.5581    2.8882 F        1 ZINC000044305871   -0.1700
36     F36    -4.6889   -2.8338    2.6920 F        1 ZINC000044305871   -0.1700
37     F37    -2.9587   -1.7398    3.7063 F        1 ZINC000044305871   -0.1700
38     C38    -3.8001   -2.0561    0.2134 C.ar     1 ZINC000044305871   -0.0200
39     C39    -3.1598   -1.9381   -1.0060 C.ar     1 ZINC000044305871   -0.1800
40     C40    -3.7992   -2.4988   -2.2501 C.3      1 ZINC000044305871    0.5100
41     F41    -5.0256   -3.0855   -1.9203 F        1 ZINC000044305871   -0.1700
42     F42    -4.0086   -1.4675   -3.1721 F        1 ZINC000044305871   -0.1700
43     F43    -2.9570   -3.4637   -2.8130 F        1 ZINC000044305871   -0.1700
44     C44    -1.9350   -1.3021   -1.0849 C.ar     1 ZINC000044305871   -0.0300
45     H45     0.7384    1.9095   -0.2060 H        1 ZINC000044305871    0.0700
46     H46    -0.9195    1.6841   -0.8133 H        1 ZINC000044305871    0.0700
47     H47    -0.6115    1.7248    0.9394 H        1 ZINC000044305871    0.0700
48     H48     2.4688    1.5807    0.6849 H        1 ZINC000044305871    0.0700
49     H49     2.6049    0.9227    2.3270 H        1 ZINC000044305871    0.0800
50     H50     4.6490    0.5665    0.0802 H        1 ZINC000044305871    0.0700
51     H51     4.8295    1.6091    1.5187 H        1 ZINC000044305871    0.0800
52     H52     6.7617   -0.6094    0.8902 H        1 ZINC000044305871    0.0800
53     H53     6.8962   -0.2122    2.6337 H        1 ZINC000044305871    0.0800
54     H54     6.7415   -4.8885    2.8576 H        1 ZINC000044305871    0.1300
55     H55     9.9609   -3.1973    4.6970 H        1 ZINC000044305871    0.1000
56     H56    10.5786   -3.5289    3.0479 H        1 ZINC000044305871    0.1000
57     H57     9.2949   -1.8130    2.2156 H        1 ZINC000044305871    0.1000
58     H58     8.6727   -1.4778    3.8610 H        1 ZINC000044305871    0.1000
59     H59     5.2923   -3.6799    1.1399 H        1 ZINC000044305871    0.0800
60     H60     4.6463   -3.2541    2.7518 H        1 ZINC000044305871    0.0700
61     H61     2.7606   -2.6301   -1.0333 H        1 ZINC000044305871    0.1300
62     H62     1.7443   -4.6872   -1.9258 H        1 ZINC000044305871    0.1300
63     H63     0.4304   -5.7366    1.9980 H        1 ZINC000044305871    0.1400
64     H64     1.4523   -3.6810    2.8877 H        1 ZINC000044305871    0.1300
65     H65    -1.5283   -0.5082    2.1682 H        1 ZINC000044305871    0.1500
66     H66    -4.7586   -2.5500    0.2745 H        1 ZINC000044305871    0.1500
67     H67    -1.4347   -1.2100   -2.0376 H        1 ZINC000044305871    0.1400
@<TRIPOS>BOND
1     1     2     1
2     1     45    1
3     1     46    1
4     1     47    1
5     2     3     1
6     2     4     1
7     2     31    1
8     4     5     1
9     5     6     1
10    5     22    1
11    5     7     1
12    7     8     1
13    7     48    1
14    7     49    1
15    8     9     1
16    8     50    1
17    8     51    1
18    9     10    1
19    9     20    1
20    9     11    1
21    11    12    1
22    11    52    1
23    11    53    1
24    12    13    1
25    12    19    1
26    13    18    1
27    13    14    2
28    14    15    1
29    14    54    1
30    15    16    2
31    15    17    1
32    17    18    1
33    17    55    1
34    17    56    1
35    18    57    1
36    18    58    1
37    19    20    1
38    19    59    1
39    19    60    1
40    20    21    1
41    20    22    1
42    22    23    1
43    22    24    1
44    24    30    ar
45    24    25    ar
46    25    26    ar
47    25    61    1
48    26    27    ar
49    26    62    1
50    27    28    1
51    27    29    ar
52    29    30    ar
53    29    63    1
54    30    64    1
55    31    44    ar
56    31    32    ar
57    32    33    ar
58    32    65    1
59    33    34    1
60    33    38    ar
61    34    35    1
62    34    36    1
63    34    37    1
64    38    39    ar
65    38    66    1
66    39    40    1
67    39    44    ar
68    40    41    1
69    40    42    1
70    40    43    1
71    44    67    1
@<TRIPOS>SUBSTRUCTURE
1   ZINC000044305871 1     RESIDUE    1   A     ZIN   1
