@<TRIPOS>MOLECULE
ZINC000003800839
23    24    1     0     0
SMALL
USER_CHARGES
@<TRIPOS>ATOM
1      C1     -0.0187    1.5258    0.0104 C.3      1 ZINC000003800839   -0.2000
2      C2      0.0021   -0.0041    0.0020 C.3      1 ZINC000003800839    0.3700
3      H3     -1.0197   -0.3836    0.0097 H        1 ZINC000003800839    0.1300
4      N4      0.6920   -0.4782   -1.1952 N.pl3    1 ZINC000003800839   -0.7500
5      C5      2.0632   -0.3361   -1.3953 C.ar     1 ZINC000003800839    0.3000
6      C6      2.5606   -0.3834   -2.6963 C.ar     1 ZINC000003800839   -0.1800
7      C7      3.9153   -0.2625   -2.9269 C.ar     1 ZINC000003800839   -0.0200
8      C8      4.7906   -0.0948   -1.8685 C.ar     1 ZINC000003800839   -0.1000
9      Cl9     6.4954    0.0477   -2.1633 Cl       1 ZINC000003800839   -0.0600
10     C10     4.3031   -0.0405   -0.5738 C.ar     1 ZINC000003800839    0.0300
11     C11     2.9486   -0.1526   -0.3415 C.ar     1 ZINC000003800839   -0.7100
12     S12     2.3268   -0.0428    1.3095 S.o2     1 ZINC000003800839    2.6900
13     O13     2.9842   -1.0520    2.0634 O.2      1 ZINC000003800839   -0.9500
14     O14     2.3402    1.3337    1.6622 O.2      1 ZINC000003800839   -0.9400
15     N15     0.7225   -0.4964    1.1937 N.am     1 ZINC000003800839   -1.1200
16     H16     1.0039    1.9031    0.0027 H        1 ZINC000003800839    0.0800
17     H17    -0.5459    1.8868   -0.8726 H        1 ZINC000003800839    0.0800
18     H18    -0.5289    1.8773    0.9072 H        1 ZINC000003800839    0.0900
19     H19     0.1688   -0.9145   -1.8857 H        1 ZINC000003800839    0.4100
20     H20     1.8831   -0.5156   -3.5269 H        1 ZINC000003800839    0.1400
21     H21     4.2942   -0.2992   -3.9375 H        1 ZINC000003800839    0.1400
22     H22     4.9840    0.0893    0.2544 H        1 ZINC000003800839    0.1400
23     H23     0.2939   -1.0488    1.8659 H        1 ZINC000003800839    0.4300
@<TRIPOS>BOND
1     1     2     1
2     1     16    1
3     1     17    1
4     1     18    1
5     2     3     1
6     2     15    1
7     2     4     1
8     4     5     1
9     4     19    1
10    5     11    ar
11    5     6     ar
12    6     7     ar
13    6     20    1
14    7     8     ar
15    7     21    1
16    8     9     1
17    8     10    ar
18    10    11    ar
19    10    22    1
20    11    12    1
21    12    13    2
22    12    14    2
23    12    15    am
24    15    23    1
@<TRIPOS>SUBSTRUCTURE
1   ZINC000003800839 1     RESIDUE    1   A     ZIN   1
