@<TRIPOS>MOLECULE
ZINC000001020197
26    28    1     0     0
SMALL
USER_CHARGES
@<TRIPOS>ATOM
1      O1      0.0021   -0.0041    0.0020 O.2      1 ZINC000001020197   -0.4400
2      C2     -0.0145    1.2172    0.0087 C.2      1 ZINC000001020197    0.3900
3      C3     -0.7251    2.4392    0.0280 C.2      1 ZINC000001020197   -0.0700
4      C4     -2.0136    3.1689    0.0545 C.ar     1 ZINC000001020197   -0.0300
5      C5     -2.3504    3.9553    1.1560 C.ar     1 ZINC000001020197   -0.0900
6      C6     -3.5521    4.6331    1.1747 C.ar     1 ZINC000001020197   -0.1200
7      C7     -4.4224    4.5334    0.1039 C.ar     1 ZINC000001020197   -0.1000
8      C8     -4.0942    3.7546   -0.9914 C.ar     1 ZINC000001020197   -0.1200
9      C9     -2.8926    3.0770   -1.0245 C.ar     1 ZINC000001020197   -0.0900
10     C10     0.6628    2.4581    0.0089 C.2      1 ZINC000001020197   -0.0700
11     C11     1.9312    3.2227   -0.0027 C.ar     1 ZINC000001020197   -0.0300
12     C12     2.2499    4.0337   -1.0917 C.ar     1 ZINC000001020197   -0.0900
13     C13     3.4329    4.7439   -1.0965 C.ar     1 ZINC000001020197   -0.1200
14     C14     4.3022    4.6525   -0.0242 C.ar     1 ZINC000001020197   -0.1000
15     C15     3.9918    3.8494    1.0587 C.ar     1 ZINC000001020197   -0.1200
16     C16     2.8090    3.1392    1.0779 C.ar     1 ZINC000001020197   -0.0900
17     H17    -1.6721    4.0333    1.9928 H        1 ZINC000001020197    0.1300
18     H18    -3.8140    5.2424    2.0271 H        1 ZINC000001020197    0.1300
19     H19    -5.3620    5.0655    0.1232 H        1 ZINC000001020197    0.1300
20     H20    -4.7778    3.6804   -1.8242 H        1 ZINC000001020197    0.1300
21     H21    -2.6375    2.4693   -1.8800 H        1 ZINC000001020197    0.1300
22     H22     1.5724    4.1053   -1.9297 H        1 ZINC000001020197    0.1300
23     H23     3.6808    5.3722   -1.9392 H        1 ZINC000001020197    0.1300
24     H24     5.2271    5.2100   -0.0327 H        1 ZINC000001020197    0.1300
25     H25     4.6747    3.7818    1.8927 H        1 ZINC000001020197    0.1300
26     H26     2.5678    2.5126    1.9238 H        1 ZINC000001020197    0.1300
@<TRIPOS>BOND
1     1     2     2
2     2     10    1
3     2     3     1
4     3     4     1
5     3     10    2
6     4     9     ar
7     4     5     ar
8     5     6     ar
9     5     17    1
10    6     7     ar
11    6     18    1
12    7     8     ar
13    7     19    1
14    8     9     ar
15    8     20    1
16    9     21    1
17    10    11    1
18    11    16    ar
19    11    12    ar
20    12    13    ar
21    12    22    1
22    13    14    ar
23    13    23    1
24    14    15    ar
25    14    24    1
26    15    16    ar
27    15    25    1
28    16    26    1
@<TRIPOS>SUBSTRUCTURE
1   ZINC000001020197 1     RESIDUE    1   A     ZIN   1
