@<TRIPOS>MOLECULE
ZINC000003786250
67    71    1     0     0
SMALL
USER_CHARGES
@<TRIPOS>ATOM
1      C1      1.5718    0.5794   -0.6719 C.3      1 ZINC000003786250   -0.1100
2      C2      0.6578   -0.5772   -0.3589 C.ar     1 ZINC000003786250   -0.0700
3      C3     -0.2906   -0.9773   -1.2820 C.ar     1 ZINC000003786250   -0.1300
4      C4     -1.1313   -2.0382   -0.9985 C.ar     1 ZINC000003786250   -0.1000
5      C5     -1.0258   -2.7014    0.2082 C.ar     1 ZINC000003786250   -0.1200
6      C6     -0.0739   -2.3022    1.1374 C.ar     1 ZINC000003786250    0.1700
7      N7      0.0356   -2.9722    2.3611 N.am     1 ZINC000003786250   -0.6800
8      C8     -0.1863   -4.3001    2.4246 C.2      1 ZINC000003786250    0.7100
9      O9     -0.3902   -4.9318    1.4059 O.2      1 ZINC000003786250   -0.5500
10     N10    -0.1822   -4.9277    3.6173 N.am     1 ZINC000003786250   -0.7500
11     C11    -0.4235   -6.3710    3.6864 C.3      1 ZINC000003786250    0.3100
12     H12    -0.3205   -6.8063    2.6923 H        1 ZINC000003786250    0.1700
13     N13    -1.7731   -6.6184    4.1919 N.2      1 ZINC000003786250   -0.5000
14     C14    -2.1728   -6.1470    5.3196 C.2      1 ZINC000003786250    0.3000
15     C15    -3.5568   -6.4634    5.7430 C.ar     1 ZINC000003786250   -0.0700
16     C16    -4.5204   -6.7988    4.7921 C.ar     1 ZINC000003786250   -0.0700
17     C17    -5.8077   -7.0929    5.1926 C.ar     1 ZINC000003786250   -0.1300
18     C18    -6.1433   -7.0556    6.5342 C.ar     1 ZINC000003786250   -0.1000
19     C19    -5.1920   -6.7231    7.4820 C.ar     1 ZINC000003786250   -0.1300
20     C20    -3.9000   -6.4326    7.0944 C.ar     1 ZINC000003786250   -0.0800
21     C21    -1.3581   -5.3174    6.2211 C.ar     1 ZINC000003786250   -0.1300
22     C22    -1.9878   -4.2373    6.8577 C.ar     1 ZINC000003786250   -0.0600
23     C23    -1.2819   -3.4210    7.7112 C.ar     1 ZINC000003786250   -0.1300
24     C24     0.0610   -3.6616    7.9481 C.ar     1 ZINC000003786250   -0.0700
25     C25     0.6931   -4.7193    7.3317 C.ar     1 ZINC000003786250   -0.1500
26     C26    -0.0070   -5.5587    6.4630 C.ar     1 ZINC000003786250    0.1700
27     N27     0.6951   -6.6050    5.8850 N.am     1 ZINC000003786250   -0.5400
28     C28     1.6476   -7.3281    6.7313 C.3      1 ZINC000003786250    0.0500
29     C29     0.9466   -8.4784    7.4069 C.2      1 ZINC000003786250    0.3800
30     O30    -0.2322   -8.6748    7.2017 O.2      1 ZINC000003786250   -0.4300
31     C31     1.6928   -9.3634    8.3156 C.ar     1 ZINC000003786250   -0.1700
32     C32     3.0175   -9.0689    8.6528 C.ar     1 ZINC000003786250   -0.0700
33     C33     3.7100   -9.9031    9.5050 C.ar     1 ZINC000003786250   -0.1400
34     C34     3.0975  -11.0295   10.0257 C.ar     1 ZINC000003786250   -0.0800
35     C35     1.7864  -11.3278    9.6967 C.ar     1 ZINC000003786250   -0.1300
36     C36     1.0787  -10.5004    8.8511 C.ar     1 ZINC000003786250   -0.0200
37     C37    -0.3487  -10.8267    8.4946 C.3      1 ZINC000003786250   -0.1200
38     C38     0.5724   -7.0043    4.6193 C.2      1 ZINC000003786250    0.5100
39     O39     1.2785   -7.9024    4.2122 O.2      1 ZINC000003786250   -0.5000
40     C40     0.7722   -1.2401    0.8476 C.ar     1 ZINC000003786250   -0.1500
41     H41     2.4691    0.2094   -1.1680 H        1 ZINC000003786250    0.0700
42     H42     1.0574    1.2818   -1.3277 H        1 ZINC000003786250    0.0700
43     H43     1.8500    1.0834    0.2536 H        1 ZINC000003786250    0.0700
44     H44    -0.3753   -0.4600   -2.2262 H        1 ZINC000003786250    0.1200
45     H45    -1.8714   -2.3482   -1.7215 H        1 ZINC000003786250    0.1300
46     H46    -1.6831   -3.5294    0.4293 H        1 ZINC000003786250    0.1300
47     H47     0.2712   -2.4809    3.1636 H        1 ZINC000003786250    0.4100
48     H48    -0.0195   -4.4237    4.4300 H        1 ZINC000003786250    0.4000
49     H49    -4.2597   -6.8280    3.7445 H        1 ZINC000003786250    0.1300
50     H50    -6.5548   -7.3525    4.4572 H        1 ZINC000003786250    0.1300
51     H51    -7.1522   -7.2865    6.8428 H        1 ZINC000003786250    0.1300
52     H52    -5.4601   -6.6949    8.5279 H        1 ZINC000003786250    0.1300
53     H53    -3.1581   -6.1735    7.8353 H        1 ZINC000003786250    0.1300
54     H54    -3.0349   -4.0449    6.6761 H        1 ZINC000003786250    0.1400
55     H55    -1.7755   -2.5919    8.1964 H        1 ZINC000003786250    0.1400
56     H56     0.6139   -3.0193    8.6176 H        1 ZINC000003786250    0.1400
57     H57     1.7407   -4.9005    7.5217 H        1 ZINC000003786250    0.1400
58     H58     2.4627   -7.7099    6.1166 H        1 ZINC000003786250    0.1300
59     H59     2.0480   -6.6523    7.4870 H        1 ZINC000003786250    0.1200
60     H60     3.4971   -8.1906    8.2467 H        1 ZINC000003786250    0.1300
61     H61     4.7333   -9.6770    9.7664 H        1 ZINC000003786250    0.1300
62     H62     3.6453  -11.6793   10.6920 H        1 ZINC000003786250    0.1300
63     H63     1.3153  -12.2087   10.1072 H        1 ZINC000003786250    0.1300
64     H64    -1.0224  -10.2611    9.1382 H        1 ZINC000003786250    0.0800
65     H65    -0.5329  -10.5616    7.4535 H        1 ZINC000003786250    0.0900
66     H66    -0.5232  -11.8936    8.6342 H        1 ZINC000003786250    0.0600
67     H67     1.5134   -0.9273    1.5681 H        1 ZINC000003786250    0.1200
@<TRIPOS>BOND
1     1     2     1
2     1     41    1
3     1     42    1
4     1     43    1
5     2     40    ar
6     2     3     ar
7     3     4     ar
8     3     44    1
9     4     5     ar
10    4     45    1
11    5     6     ar
12    5     46    1
13    6     7     1
14    6     40    ar
15    7     8     am
16    7     47    1
17    8     9     2
18    8     10    am
19    10    11    1
20    10    48    1
21    11    12    1
22    11    38    1
23    11    13    1
24    13    14    2
25    14    15    1
26    14    21    1
27    15    20    ar
28    15    16    ar
29    16    17    ar
30    16    49    1
31    17    18    ar
32    17    50    1
33    18    19    ar
34    18    51    1
35    19    20    ar
36    19    52    1
37    20    53    1
38    21    26    ar
39    21    22    ar
40    22    23    ar
41    22    54    1
42    23    24    ar
43    23    55    1
44    24    25    ar
45    24    56    1
46    25    26    ar
47    25    57    1
48    26    27    1
49    27    28    1
50    27    38    am
51    28    29    1
52    28    58    1
53    28    59    1
54    29    30    2
55    29    31    1
56    31    36    ar
57    31    32    ar
58    32    33    ar
59    32    60    1
60    33    34    ar
61    33    61    1
62    34    35    ar
63    34    62    1
64    35    36    ar
65    35    63    1
66    36    37    1
67    37    64    1
68    37    65    1
69    37    66    1
70    38    39    2
71    40    67    1
@<TRIPOS>SUBSTRUCTURE
1   ZINC000003786250 1     RESIDUE    1   A     ZIN   1
