@<TRIPOS>MOLECULE
ZINC000011726169
56    57    1     0     0
SMALL
USER_CHARGES
@<TRIPOS>ATOM
1      C1      0.8800    1.6364    0.6258 C.3      1 ZINC000011726169   -0.1700
2      C2      1.5201    2.3385   -0.5735 C.3      1 ZINC000011726169    0.1100
3      C3      0.4266    2.7883   -1.5444 C.3      1 ZINC000011726169   -0.1700
4      C4      2.3064    3.5587   -0.0900 C.3      1 ZINC000011726169   -0.1200
5      N5      2.4272    1.4117   -1.2549 N.2      1 ZINC000011726169   -0.5900
6      C6      1.9611    0.3194   -1.7898 C.2      1 ZINC000011726169    0.6200
7      N7      0.6402   -0.0319   -1.6012 N.pl3    1 ZINC000011726169   -0.6300
8      C8      0.1828   -1.2208   -2.0630 C.1      1 ZINC000011726169    0.3900
9      N9     -0.2007   -2.2176   -2.4502 N.1      1 ZINC000011726169   -0.4000
10     N10     2.7862   -0.4844   -2.5430 N.pl3    1 ZINC000011726169   -0.6600
11     C11     4.1524   -0.1973   -2.6309 C.ar     1 ZINC000011726169    0.1700
12     C12     4.8146    0.3686   -1.5483 C.ar     1 ZINC000011726169   -0.1100
13     C13     6.1647    0.6534   -1.6310 C.ar     1 ZINC000011726169   -0.1000
14     C14     6.8629    0.3772   -2.7892 C.ar     1 ZINC000011726169   -0.1200
15     C15     6.2066   -0.1903   -3.8809 C.ar     1 ZINC000011726169   -0.0100
16     C16     6.9552   -0.4878   -5.1261 C.2      1 ZINC000011726169   -0.0900
17     C17     7.1074   -1.7548   -5.5288 C.2      1 ZINC000011726169   -0.0900
18     C18     7.8681   -2.0571   -6.7941 C.3      1 ZINC000011726169   -0.1100
19     C19     8.9955   -3.0450   -6.4878 C.3      1 ZINC000011726169   -0.0800
20     C20     9.7678   -3.3518   -7.7724 C.3      1 ZINC000011726169   -0.1800
21     C21    10.8783   -4.3249   -7.4707 C.2      1 ZINC000011726169    0.4900
22     O22    11.0373   -4.7350   -6.3336 O.co2    1 ZINC000011726169   -0.7000
23     O23    11.6177   -4.7021   -8.3637 O.co2    1 ZINC000011726169   -0.7100
24     C24     7.5349    0.6189   -5.9250 C.ar     1 ZINC000011726169   -0.0800
25     C25     8.9196    0.7377   -6.0742 C.ar     1 ZINC000011726169   -0.0600
26     C26     9.4108    1.7882   -6.8303 C.ar     1 ZINC000011726169   -0.1700
27     C27     8.5243    2.6781   -7.4084 C.ar     1 ZINC000011726169    0.0900
28     N28     7.2218    2.5408   -7.2497 N.ar     1 ZINC000011726169   -0.4900
29     C29     6.7077    1.5545   -6.5443 C.ar     1 ZINC000011726169    0.1100
30     C30     4.8477   -0.4828   -3.7964 C.ar     1 ZINC000011726169   -0.1400
31     H31     0.2632    0.8087    0.2755 H        1 ZINC000011726169    0.0500
32     H32     1.6614    1.2545    1.2828 H        1 ZINC000011726169    0.0700
33     H33     0.2594    2.3457    1.1734 H        1 ZINC000011726169    0.0700
34     H34    -0.1997    3.5397   -1.0635 H        1 ZINC000011726169    0.0700
35     H35     0.8857    3.2148   -2.4363 H        1 ZINC000011726169    0.0700
36     H36    -0.1851    1.9310   -1.8252 H        1 ZINC000011726169    0.0500
37     H37     3.0855    3.2382    0.6017 H        1 ZINC000011726169    0.0600
38     H38     2.7625    4.0589   -0.9444 H        1 ZINC000011726169    0.0600
39     H39     1.6316    4.2483    0.4170 H        1 ZINC000011726169    0.0600
40     H40     0.0391    0.5722   -1.1381 H        1 ZINC000011726169    0.4400
41     H41     2.4203   -1.2500   -3.0130 H        1 ZINC000011726169    0.4100
42     H42     4.2729    0.5870   -0.6399 H        1 ZINC000011726169    0.1400
43     H43     6.6747    1.0936   -0.7870 H        1 ZINC000011726169    0.1200
44     H44     7.9177    0.6011   -2.8501 H        1 ZINC000011726169    0.1200
45     H45     6.6852   -2.5608   -4.9470 H        1 ZINC000011726169    0.1200
46     H46     7.1919   -2.4939   -7.5290 H        1 ZINC000011726169    0.0700
47     H47     8.2913   -1.1350   -7.1927 H        1 ZINC000011726169    0.0700
48     H48     9.6717   -2.6082   -5.7529 H        1 ZINC000011726169    0.0600
49     H49     8.5723   -3.9670   -6.0892 H        1 ZINC000011726169    0.0600
50     H50     9.0916   -3.7887   -8.5073 H        1 ZINC000011726169    0.0600
51     H51    10.1910   -2.4298   -8.1710 H        1 ZINC000011726169    0.0500
52     H52     9.5893    0.0281   -5.6110 H        1 ZINC000011726169    0.1400
53     H53    10.4750    1.9116   -6.9669 H        1 ZINC000011726169    0.1400
54     H54     8.9041    3.4988   -7.9989 H        1 ZINC000011726169    0.1500
55     H55     5.6359    1.4752   -6.4370 H        1 ZINC000011726169    0.1500
56     H56     4.3349   -0.9227   -4.6390 H        1 ZINC000011726169    0.1200
@<TRIPOS>BOND
1     1     2     1
2     1     31    1
3     1     32    1
4     1     33    1
5     2     3     1
6     2     4     1
7     2     5     1
8     3     34    1
9     3     35    1
10    3     36    1
11    4     37    1
12    4     38    1
13    4     39    1
14    5     6     2
15    6     7     1
16    6     10    1
17    7     8     1
18    7     40    1
19    8     9     3
20    10    11    1
21    10    41    1
22    11    30    ar
23    11    12    ar
24    12    13    ar
25    12    42    1
26    13    14    ar
27    13    43    1
28    14    15    ar
29    14    44    1
30    15    16    1
31    15    30    ar
32    16    17    2
33    16    24    1
34    17    18    1
35    17    45    1
36    18    19    1
37    18    46    1
38    18    47    1
39    19    20    1
40    19    48    1
41    19    49    1
42    20    21    1
43    20    50    1
44    20    51    1
45    21    22    ar
46    21    23    ar
47    24    29    ar
48    24    25    ar
49    25    26    ar
50    25    52    1
51    26    27    ar
52    26    53    1
53    27    28    ar
54    27    54    1
55    28    29    ar
56    29    55    1
57    30    56    1
@<TRIPOS>SUBSTRUCTURE
1   ZINC000011726169 1     RESIDUE    1   A     ZIN   1
