@<TRIPOS>MOLECULE
ZINC000003800039
  57   60    0    0    0
SMALL
USER_CHARGES
NO_NAME
@<TRIPOS>ATOM
    1 C1        0.5134     0.5131     1.8381 C.3    1 <0>      -0.2100
    2 C2        0.1413    -0.0040     0.4724 C.2    1 <0>       0.3600
    3 O3        0.9064     0.1284    -0.4525 O.2    1 <0>      -0.4500
    4 C4       -1.1856    -0.6864     0.2608 C.3    1 <0>      -0.1300
    5 H5       -1.9504    -0.2258     0.8861 H      1 <0>       0.1000
    6 C6       -1.5956    -0.6119    -1.2313 C.3    1 <0>      -0.1200
    7 C7       -1.7892    -2.0780    -1.7060 C.3    1 <0>      -0.1200
    8 C8       -2.0898    -2.8240    -0.4014 C.3    1 <0>      -0.0800
    9 H9       -3.1103    -2.6230    -0.0755 H      1 <0>       0.0700
   10 C10      -1.8253    -4.3176    -0.4170 C.3    1 <0>      -0.0800
   11 H11      -0.7818    -4.5039    -0.6707 H      1 <0>       0.0800
   12 C12      -2.7351    -5.0089    -1.4335 C.3    1 <0>      -0.1200
   13 C13      -2.4816    -6.5176    -1.3991 C.3    1 <0>      -0.1200
   14 C14      -2.7842    -7.0547     0.0011 C.3    1 <0>      -0.0700
   15 H15      -2.5992    -8.1286     0.0260 H      1 <0>       0.0700
   16 C16      -4.2497    -6.7817     0.3456 C.3    1 <0>      -0.1100
   17 C17      -4.5535    -7.3212     1.7447 C.3    1 <0>       0.1000
   18 H18      -4.3687    -8.3952     1.7680 H      1 <0>       0.0500
   19 O19      -5.9223    -7.0664     2.0666 O.3    1 <0>      -0.5700
   20 C20      -3.6514    -6.6262     2.7665 C.3    1 <0>      -0.1500
   21 C21      -2.1859    -6.8985     2.4217 C.3    1 <0>      -0.1100
   22 C22      -1.8828    -6.3582     1.0227 C.3    1 <0>      -0.0500
   23 C23      -0.4172    -6.6302     0.6776 C.3    1 <0>      -0.1500
   24 C24      -2.1188    -4.8481     0.9950 C.3    1 <0>      -0.0700
   25 H25      -3.1671    -4.6509     1.2195 H      1 <0>       0.0700
   26 C26      -1.2516    -4.1647     2.0467 C.3    1 <0>      -0.1200
   27 C27      -1.3911    -2.6344     1.9810 C.3    1 <0>      -0.1000
   28 C28      -1.0709    -2.1742     0.5757 C.3    1 <0>      -0.0500
   29 C29       0.3118    -2.6856     0.1665 C.3    1 <0>      -0.1600
   30 H30       1.5014     0.9715     1.7962 H      1 <0>       0.0800
   31 H31      -0.2183     1.2553     2.1573 H      1 <0>       0.0900
   32 H32       0.5261    -0.3135     2.5485 H      1 <0>       0.0900
   33 H33      -2.5289    -0.0586    -1.3356 H      1 <0>       0.0700
   34 H34      -0.8083    -0.1314    -1.8121 H      1 <0>       0.0800
   35 H35      -2.6301    -2.1524    -2.3954 H      1 <0>       0.0700
   36 H36      -0.8770    -2.4580    -2.1661 H      1 <0>       0.0700
   37 H37      -3.7771    -4.8096    -1.1835 H      1 <0>       0.0600
   38 H38      -2.5211    -4.6270    -2.4318 H      1 <0>       0.0600
   39 H39      -3.1278    -7.0112    -2.1250 H      1 <0>       0.0600
   40 H40      -1.4389    -6.7165    -1.6469 H      1 <0>       0.0700
   41 H41      -4.4345    -5.7077     0.3223 H      1 <0>       0.0800
   42 H42      -4.8925    -7.2769    -0.3822 H      1 <0>       0.0700
   43 H43      -6.1859    -7.3824     2.9417 H      1 <0>       0.3800
   44 H44      -3.8366    -5.5523     2.7435 H      1 <0>       0.0700
   45 H45      -3.8677    -7.0109     3.7632 H      1 <0>       0.0600
   46 H46      -1.5433    -6.4032     3.1496 H      1 <0>       0.0700
   47 H47      -2.0006    -7.9724     2.4449 H      1 <0>       0.0600
   48 H48      -0.2318    -7.7040     0.7004 H      1 <0>       0.0500
   49 H49      -0.2012    -6.2453    -0.3191 H      1 <0>       0.0600
   50 H50       0.2254    -6.1349     1.4055 H      1 <0>       0.0600
   51 H51      -1.5539    -4.5081     3.0360 H      1 <0>       0.0700
   52 H52      -0.2090    -4.4352     1.8797 H      1 <0>       0.0700
   53 H53      -2.4211    -2.3467     2.1915 H      1 <0>       0.0600
   54 H54      -0.7203    -2.1697     2.7037 H      1 <0>       0.0700
   55 H55       0.3570    -3.7652     0.3098 H      1 <0>       0.0700
   56 H56       0.4902    -2.4507    -0.8828 H      1 <0>       0.0600
   57 H57       1.0734    -2.2054     0.7809 H      1 <0>       0.0500
@<TRIPOS>BOND
   1    1    2 1
   2    1   30 1
   3    1   31 1
   4    1   32 1
   5    2    3 2
   6    2    4 1
   7    4    5 1
   8    4   28 1
   9    4    6 1
  10    6    7 1
  11    6   33 1
  12    6   34 1
  13    7    8 1
  14    7   35 1
  15    7   36 1
  16    8    9 1
  17    8   28 1
  18    8   10 1
  19   10   11 1
  20   10   24 1
  21   10   12 1
  22   12   13 1
  23   12   37 1
  24   12   38 1
  25   13   14 1
  26   13   39 1
  27   13   40 1
  28   14   15 1
  29   14   22 1
  30   14   16 1
  31   16   17 1
  32   16   41 1
  33   16   42 1
  34   17   18 1
  35   17   19 1
  36   17   20 1
  37   19   43 1
  38   20   21 1
  39   20   44 1
  40   20   45 1
  41   21   22 1
  42   21   46 1
  43   21   47 1
  44   22   23 1
  45   22   24 1
  46   23   48 1
  47   23   49 1
  48   23   50 1
  49   24   25 1
  50   24   26 1
  51   26   27 1
  52   26   51 1
  53   26   52 1
  54   27   28 1
  55   27   53 1
  56   27   54 1
  57   28   29 1
  58   29   55 1
  59   29   56 1
  60   29   57 1
