@<TRIPOS>MOLECULE
ZINC000000004355
  28   30    0    0    0
SMALL
USER_CHARGES
NO_NAME
@<TRIPOS>ATOM
    1 N1       -0.0162     1.3436     0.0094 N.am   1 <0>      -0.8500
    2 C2        0.0021    -0.0041     0.0020 C.2    1 <0>       0.5900
    3 O3        1.0635    -0.5978    -0.0113 O.2    1 <0>      -0.5500
    4 C4       -1.2631    -0.7577     0.0101 C.2    1 <0>      -0.2100
    5 C5       -1.4106    -2.1324     0.0096 C.2    1 <0>       0.0900
    6 C6       -0.4547    -3.3220     0.0074 C.3    1 <0>      -0.0100
    7 S7       -1.5420    -4.7031     0.5318 S.3    1 <0>      -0.2100
    8 C8       -3.0839    -3.8612     0.0094 C.3    1 <0>       0.2200
    9 H9       -3.3741    -4.1788    -0.9921 H      1 <0>       0.1300
   10 C10      -4.1943    -4.1303     0.9921 C.ar   1 <0>      -0.1700
   11 C11      -5.3679    -4.7393     0.5756 C.ar   1 <0>      -0.0400
   12 C12      -6.3623    -4.9677     1.5148 C.ar   1 <0>      -0.1700
   13 C13      -6.1519    -4.5834     2.8253 C.ar   1 <0>       0.1200
   14 N14      -5.0222    -4.0061     3.1859 N.ar   1 <0>      -0.4800
   15 C15      -4.0532    -3.7782     2.3213 C.ar   1 <0>       0.1500
   16 N16      -2.7136    -2.4218     0.0149 N.pl3  1 <0>      -0.4600
   17 C17      -3.4497    -1.2485     0.0233 C.2    1 <0>       0.0100
   18 C18      -2.6153    -0.2026     0.0264 C.2    1 <0>      -0.1500
   19 H19       0.8172     1.8399     0.0041 H      1 <0>       0.4000
   20 H20      -0.8627     1.8171     0.0160 H      1 <0>       0.4000
   21 H21      -0.0588    -3.4989    -0.9926 H      1 <0>       0.1200
   22 H22       0.3529    -3.1713     0.7239 H      1 <0>       0.1400
   23 H23      -5.5047    -5.0287    -0.4559 H      1 <0>       0.1400
   24 H24      -7.2897    -5.4397     1.2255 H      1 <0>       0.1400
   25 H25      -6.9215    -4.7574     3.5627 H      1 <0>       0.1600
   26 H26      -3.1420    -3.3031     2.6537 H      1 <0>       0.1600
   27 H27      -4.5279    -1.1876     0.0309 H      1 <0>       0.1700
   28 H28      -2.8867     0.8428     0.0323 H      1 <0>       0.1600
@<TRIPOS>BOND
   1    1    2 am
   2    1   19 1
   3    1   20 1
   4    2    3 2
   5    2    4 1
   6    4   18 1
   7    4    5 2
   8    5   16 1
   9    5    6 1
  10    6    7 1
  11    6   21 1
  12    6   22 1
  13    7    8 1
  14    8    9 1
  15    8   10 1
  16    8   16 1
  17   10   15 ar
  18   10   11 ar
  19   11   12 ar
  20   11   23 1
  21   12   13 ar
  22   12   24 1
  23   13   14 ar
  24   13   25 1
  25   14   15 ar
  26   15   26 1
  27   16   17 1
  28   17   18 2
  29   17   27 1
  30   18   28 1
