@<TRIPOS>MOLECULE
ZINC000072266312
58    61    1     0     0
SMALL
USER_CHARGES
@<TRIPOS>ATOM
1      C1      0.6579    1.0929    0.3029 C.3      1 ZINC000072266312    0.0200
2      O2      0.3927   -0.2997    0.1225 O.3      1 ZINC000072266312   -0.3100
3      C3     -0.9091   -0.6869    0.1409 C.ar     1 ZINC000072266312    0.1600
4      C4     -1.2327   -2.0425   -0.0253 C.ar     1 ZINC000072266312    0.1100
5      N5     -0.2116   -2.9825   -0.2083 N.am     1 ZINC000072266312   -0.6600
6      C6     -0.3510   -4.2319    0.2773 C.2      1 ZINC000072266312    0.5500
7      O7     -1.3967   -4.5683    0.7997 O.2      1 ZINC000072266312   -0.5300
8      C8      0.7613   -5.1887    0.1756 C.2      1 ZINC000072266312   -0.2200
9      C9      0.6238   -6.4218    0.6550 C.2      1 ZINC000072266312   -0.0400
10     C10     1.7636   -7.4022    0.5507 C.3      1 ZINC000072266312    0.0700
11     N11     2.0833   -7.9251    1.8858 N.3      1 ZINC000072266312   -0.5300
12     C12     2.1464   -6.8410    2.8743 C.3      1 ZINC000072266312    0.0500
13     C13     2.3361   -7.4341    4.2723 C.3      1 ZINC000072266312   -0.1200
14     C14     3.6292   -8.2536    4.3026 C.3      1 ZINC000072266312   -0.1200
15     C15     3.5576   -9.3452    3.2312 C.3      1 ZINC000072266312   -0.1200
16     C16     3.3325   -8.6967    1.8634 C.3      1 ZINC000072266312    0.0600
17     C17    -2.5469   -2.4557   -0.0093 C.ar     1 ZINC000072266312   -0.0500
18     C18    -3.5650   -1.5129    0.1739 C.ar     1 ZINC000072266312   -0.2000
19     C19    -3.2393   -0.1439    0.3413 C.ar     1 ZINC000072266312    0.2200
20     C20    -1.8969    0.2536    0.3279 C.ar     1 ZINC000072266312   -0.2000
21     N21    -4.2359    0.7385    0.5157 N.ar     1 ZINC000072266312   -0.5500
22     C22    -5.4848    0.3377    0.5302 C.ar     1 ZINC000072266312    0.3500
23     N23    -5.8361   -0.9293    0.3780 N.ar     1 ZINC000072266312   -0.5900
24     C24    -4.9311   -1.8827    0.1991 C.ar     1 ZINC000072266312    0.4800
25     N25    -5.3115   -3.2000    0.0412 N.pl3    1 ZINC000072266312   -0.6300
26     C26    -6.6682   -3.5312   -0.0414 C.ar     1 ZINC000072266312    0.1600
27     C27    -7.5639   -2.6509   -0.6338 C.ar     1 ZINC000072266312   -0.0800
28     C28    -8.9033   -2.9795   -0.7151 C.ar     1 ZINC000072266312   -0.1200
29     C29    -9.3534   -4.1855   -0.2060 C.ar     1 ZINC000072266312    0.0900
30     F30   -10.6637   -4.5045   -0.2862 F        1 ZINC000072266312   -0.1300
31     C31    -8.4615   -5.0663    0.3855 C.ar     1 ZINC000072266312   -0.0500
32     Cl32   -9.0287   -6.5785    1.0220 Cl       1 ZINC000072266312   -0.0400
33     C33    -7.1201   -4.7435    0.4639 C.ar     1 ZINC000072266312   -0.1100
34     H34     1.7336    1.2655    0.2671 H        1 ZINC000072266312    0.1100
35     H35     0.1721    1.6610   -0.4903 H        1 ZINC000072266312    0.0600
36     H36     0.2704    1.4143    1.2697 H        1 ZINC000072266312    0.0600
37     H37     0.5961   -2.7345   -0.6847 H        1 ZINC000072266312    0.4200
38     H38     1.6898   -4.8900   -0.2882 H        1 ZINC000072266312    0.1300
39     H39    -0.3047   -6.7204    1.1188 H        1 ZINC000072266312    0.1400
40     H40     1.4758   -8.2257   -0.1027 H        1 ZINC000072266312    0.1000
41     H41     2.6385   -6.8997    0.1382 H        1 ZINC000072266312    0.0500
42     H42     2.9852   -6.1852    2.6411 H        1 ZINC000072266312    0.0300
43     H43     1.2192   -6.2687    2.8454 H        1 ZINC000072266312    0.0800
44     H44     2.3985   -6.6285    5.0039 H        1 ZINC000072266312    0.0700
45     H45     1.4907   -8.0792    4.5117 H        1 ZINC000072266312    0.0700
46     H46     4.4788   -7.6010    4.1015 H        1 ZINC000072266312    0.0600
47     H47     3.7461   -8.7134    5.2839 H        1 ZINC000072266312    0.0700
48     H48     4.4927   -9.9050    3.2191 H        1 ZINC000072266312    0.0700
49     H49     2.7314  -10.0204    3.4543 H        1 ZINC000072266312    0.0700
50     H50     3.2667   -9.4722    1.1003 H        1 ZINC000072266312    0.0800
51     H51     4.1658   -8.0323    1.6350 H        1 ZINC000072266312    0.0300
52     H52    -2.7899   -3.5002   -0.1377 H        1 ZINC000072266312    0.1600
53     H53    -1.6380    1.2944    0.4546 H        1 ZINC000072266312    0.1500
54     H54    -6.2613    1.0745    0.6731 H        1 ZINC000072266312    0.2000
55     H55    -4.6382   -3.8962   -0.0124 H        1 ZINC000072266312    0.4300
56     H56    -7.2137   -1.7094   -1.0306 H        1 ZINC000072266312    0.1500
57     H57    -9.5998   -2.2948   -1.1759 H        1 ZINC000072266312    0.1500
58     H58    -6.4250   -5.4299    0.9245 H        1 ZINC000072266312    0.1500
@<TRIPOS>BOND
1     1     2     1
2     1     34    1
3     1     35    1
4     1     36    1
5     2     3     1
6     3     20    ar
7     3     4     ar
8     4     5     1
9     4     17    ar
10    5     6     am
11    5     37    1
12    6     7     2
13    6     8     1
14    8     9     2
15    8     38    1
16    9     10    1
17    9     39    1
18    10    11    1
19    10    40    1
20    10    41    1
21    11    16    1
22    11    12    1
23    12    13    1
24    12    42    1
25    12    43    1
26    13    14    1
27    13    44    1
28    13    45    1
29    14    15    1
30    14    46    1
31    14    47    1
32    15    16    1
33    15    48    1
34    15    49    1
35    16    50    1
36    16    51    1
37    17    18    ar
38    17    52    1
39    18    24    ar
40    18    19    ar
41    19    20    ar
42    19    21    ar
43    20    53    1
44    21    22    ar
45    22    23    ar
46    22    54    1
47    23    24    ar
48    24    25    1
49    25    26    1
50    25    55    1
51    26    33    ar
52    26    27    ar
53    27    28    ar
54    27    56    1
55    28    29    ar
56    28    57    1
57    29    30    1
58    29    31    ar
59    31    32    1
60    31    33    ar
61    33    58    1
@<TRIPOS>SUBSTRUCTURE
1   ZINC000072266312 1     RESIDUE    1   A     ZIN   1
