@<TRIPOS>MOLECULE
ZINC000003870218
40    39    1     0     0
SMALL
USER_CHARGES
@<TRIPOS>ATOM
1      N1     -0.0116    1.0048    0.0076 N.4      1 ZINC000003870218   -0.6100
2      H2      0.0021   -0.0041    0.0020 H        1 ZINC000003870218    0.4100
3      H3      0.9350    1.3541    0.0004 H        1 ZINC000003870218    0.4300
4      H4     -0.4996    1.3391   -0.8099 H        1 ZINC000003870218    0.4300
5      C5     -0.6992    1.4786    1.2162 C.3      1 ZINC000003870218   -0.0500
6      H6     -1.7218    1.1013    1.2239 H        1 ZINC000003870218    0.1300
7      C7      0.0408    0.9717    2.4557 C.3      1 ZINC000003870218   -0.1100
8      C8     -0.0459   -0.5547    2.5128 C.3      1 ZINC000003870218   -0.1500
9      C9      0.6830   -1.0540    3.7337 C.2      1 ZINC000003870218    0.5100
10     O10     1.2190   -0.2664    4.4842 O.2      1 ZINC000003870218   -0.5000
11     N11     0.7392   -2.3756    3.9915 N.am     1 ZINC000003870218   -0.7100
12     C12     1.4478   -2.8610    5.1784 C.3      1 ZINC000003870218    0.1500
13     H13     2.3156   -2.2291    5.3671 H        1 ZINC000003870218    0.1200
14     C14     0.5104   -2.8141    6.3866 C.3      1 ZINC000003870218   -0.1200
15     S15    -0.0341   -1.1061    6.6637 S.3      1 ZINC000003870218   -0.1400
16     C16    -1.1176   -1.2529    8.1111 C.3      1 ZINC000003870218    0.0700
17     O17    -0.3229   -1.4370    9.2844 O.3      1 ZINC000003870218   -0.5600
18     C18     1.9001   -4.2799    4.9482 C.2      1 ZINC000003870218    0.5100
19     O19     1.6548   -4.8315    3.8963 O.2      1 ZINC000003870218   -0.5500
20     N20     2.5773   -4.9360    5.9112 N.am     1 ZINC000003870218   -0.6900
21     C21     3.0170   -6.3154    5.6874 C.3      1 ZINC000003870218    0.0500
22     C22     3.7458   -6.8146    6.9083 C.2      1 ZINC000003870218    0.4900
23     O23     3.8851   -6.0857    7.8757 O.co2    1 ZINC000003870218   -0.6900
24     O24     4.1963   -7.9474    6.9287 O.co2    1 ZINC000003870218   -0.6900
25     C25    -0.7196    2.9854    1.2245 C.2      1 ZINC000003870218    0.4900
26     O26    -1.3988    3.5814    2.0431 O.co2    1 ZINC000003870218   -0.6300
27     O27    -0.0570    3.6085    0.4126 O.co2    1 ZINC000003870218   -0.6800
28     H28     1.0866    1.2746    2.4037 H        1 ZINC000003870218    0.0900
29     H29    -0.4161    1.3953    3.3501 H        1 ZINC000003870218    0.1200
30     H30    -1.0916   -0.8576    2.5648 H        1 ZINC000003870218    0.1100
31     H31     0.4110   -0.9783    1.6184 H        1 ZINC000003870218    0.0800
32     H32     0.3105   -3.0055    3.3912 H        1 ZINC000003870218    0.4100
33     H33    -0.3575   -3.4460    6.1979 H        1 ZINC000003870218    0.0900
34     H34     1.0375   -3.1752    7.2697 H        1 ZINC000003870218    0.1100
35     H35    -1.7120   -0.3450    8.2136 H        1 ZINC000003870218    0.0900
36     H36    -1.7806   -2.1087    7.9834 H        1 ZINC000003870218    0.0600
37     H37    -0.8375   -1.5232   10.0985 H        1 ZINC000003870218    0.3700
38     H38     2.7735   -4.4948    6.7525 H        1 ZINC000003870218    0.4100
39     H39     2.1491   -6.9473    5.4987 H        1 ZINC000003870218    0.0700
40     H40     3.6848   -6.3488    4.8266 H        1 ZINC000003870218    0.0700
@<TRIPOS>BOND
1     1     2     1
2     1     3     1
3     1     4     1
4     1     5     1
5     5     6     1
6     5     7     1
7     5     25    1
8     7     8     1
9     7     28    1
10    7     29    1
11    8     9     1
12    8     30    1
13    8     31    1
14    9     10    2
15    9     11    am
16    11    12    1
17    11    32    1
18    12    13    1
19    12    14    1
20    12    18    1
21    14    15    1
22    14    33    1
23    14    34    1
24    15    16    1
25    16    17    1
26    16    35    1
27    16    36    1
28    17    37    1
29    18    19    2
30    18    20    am
31    20    21    1
32    20    38    1
33    21    22    1
34    21    39    1
35    21    40    1
36    22    23    ar
37    22    24    ar
38    25    26    ar
39    25    27    ar
@<TRIPOS>SUBSTRUCTURE
1   ZINC000003870218 1     RESIDUE    1   A     ZIN   1
