@<TRIPOS>MOLECULE
ZINC000011616583
54    57    1     0     0
SMALL
USER_CHARGES
@<TRIPOS>ATOM
1      O1     -1.7809   -2.5558    1.8225 O.co2    1 ZINC000011616583   -0.6800
2      C2     -2.6202   -2.5048    2.7054 C.2      1 ZINC000011616583    0.4900
3      O3     -2.3248   -2.8181    3.8461 O.co2    1 ZINC000011616583   -0.7100
4      C4     -4.0210   -2.0488    2.3880 C.3      1 ZINC000011616583   -0.2200
5      C5     -4.1226   -1.7120    0.8990 C.3      1 ZINC000011616583    0.1400
6      H6     -3.3579   -0.9801    0.6390 H        1 ZINC000011616583    0.0900
7      O7     -3.9276   -2.8991    0.1277 O.3      1 ZINC000011616583   -0.5300
8      C8     -5.5064   -1.1315    0.6007 C.3      1 ZINC000011616583   -0.1800
9      C9     -5.5659   -0.6796   -0.8598 C.3      1 ZINC000011616583    0.1400
10     H10    -4.7508    0.0162   -1.0584 H        1 ZINC000011616583    0.1000
11     O11    -5.4405   -1.8170   -1.7158 O.3      1 ZINC000011616583   -0.5300
12     C12    -6.8839    0.0029   -1.1212 C.2      1 ZINC000011616583   -0.1500
13     C13    -6.9078    1.2660   -1.5289 C.2      1 ZINC000011616583   -0.1200
14     C14    -8.1906    1.9019   -1.8856 C.ar     1 ZINC000011616583   -0.0800
15     C15    -8.3800    2.4480   -3.1642 C.ar     1 ZINC000011616583    0.2100
16     C16    -7.2570    2.3771   -4.1667 C.3      1 ZINC000011616583   -0.1200
17     C17    -7.5661    2.7980   -5.6048 C.3      1 ZINC000011616583   -0.1600
18     C18    -6.7113    3.6988   -4.7110 C.3      1 ZINC000011616583   -0.1600
19     N19    -9.5073    3.0172   -3.5086 N.ar     1 ZINC000011616583   -0.4800
20     C20   -10.5416    3.1117   -2.6645 C.ar     1 ZINC000011616583    0.1300
21     C21   -11.7406    3.7280   -3.0622 C.ar     1 ZINC000011616583   -0.0900
22     C22   -12.7803    3.8129   -2.1873 C.ar     1 ZINC000011616583   -0.1000
23     C23   -12.6776    3.2978   -0.8973 C.ar     1 ZINC000011616583   -0.1200
24     C24   -11.5309    2.6936   -0.4768 C.ar     1 ZINC000011616583   -0.0900
25     C25   -10.4411    2.5887   -1.3523 C.ar     1 ZINC000011616583   -0.0900
26     C26    -9.2356    1.9617   -0.9523 C.ar     1 ZINC000011616583    0.0200
27     C27    -9.0823    1.3944    0.4044 C.ar     1 ZINC000011616583   -0.0600
28     C28    -8.1957    1.9775    1.3116 C.ar     1 ZINC000011616583   -0.0600
29     C29    -8.0566    1.4444    2.5755 C.ar     1 ZINC000011616583   -0.1500
30     C30    -8.7952    0.3315    2.9462 C.ar     1 ZINC000011616583    0.1100
31     F31    -8.6555   -0.1866    4.1860 F        1 ZINC000011616583   -0.1300
32     C32    -9.6770   -0.2514    2.0494 C.ar     1 ZINC000011616583   -0.1500
33     C33    -9.8280    0.2770    0.7849 C.ar     1 ZINC000011616583   -0.0800
34     H34    -4.7256   -2.8446    2.6294 H        1 ZINC000011616583    0.0600
35     H35    -4.2571   -1.1631    2.9778 H        1 ZINC000011616583    0.0600
36     H36    -4.5740   -3.5955    0.3075 H        1 ZINC000011616583    0.3500
37     H37    -6.2657   -1.8936    0.7764 H        1 ZINC000011616583    0.0600
38     H38    -5.6907   -0.2779    1.2529 H        1 ZINC000011616583    0.0700
39     H39    -6.1342   -2.4796   -1.5937 H        1 ZINC000011616583    0.3700
40     H40    -7.8088   -0.5356   -0.9768 H        1 ZINC000011616583    0.1100
41     H41    -5.9884    1.8282   -1.5995 H        1 ZINC000011616583    0.1300
42     H42    -6.5484    1.5616   -4.0219 H        1 ZINC000011616583    0.1300
43     H43    -7.0610    2.2593   -6.4065 H        1 ZINC000011616583    0.1000
44     H44    -8.5817    3.1263   -5.8258 H        1 ZINC000011616583    0.1100
45     H45    -7.1646    4.6197   -4.3440 H        1 ZINC000011616583    0.0900
46     H46    -5.6439    3.7527   -4.9247 H        1 ZINC000011616583    0.1000
47     H47   -11.8368    4.1333   -4.0586 H        1 ZINC000011616583    0.1300
48     H48   -13.6992    4.2876   -2.4983 H        1 ZINC000011616583    0.1300
49     H49   -13.5166    3.3786   -0.2221 H        1 ZINC000011616583    0.1300
50     H50   -11.4622    2.2973    0.5255 H        1 ZINC000011616583    0.1300
51     H51    -7.6195    2.8444    1.0237 H        1 ZINC000011616583    0.1300
52     H52    -7.3708    1.8945    3.2780 H        1 ZINC000011616583    0.1400
53     H53   -10.2500   -1.1184    2.3433 H        1 ZINC000011616583    0.1400
54     H54   -10.5156   -0.1777    0.0871 H        1 ZINC000011616583    0.1300
@<TRIPOS>BOND
1     1     2     ar
2     2     3     ar
3     2     4     1
4     4     5     1
5     4     34    1
6     4     35    1
7     5     6     1
8     5     7     1
9     5     8     1
10    7     36    1
11    8     9     1
12    8     37    1
13    8     38    1
14    9     10    1
15    9     11    1
16    9     12    1
17    11    39    1
18    12    13    2
19    12    40    1
20    13    14    1
21    13    41    1
22    14    26    ar
23    14    15    ar
24    15    16    1
25    15    19    ar
26    16    18    1
27    16    17    1
28    16    42    1
29    17    18    1
30    17    43    1
31    17    44    1
32    18    45    1
33    18    46    1
34    19    20    ar
35    20    25    ar
36    20    21    ar
37    21    22    ar
38    21    47    1
39    22    23    ar
40    22    48    1
41    23    24    ar
42    23    49    1
43    24    25    ar
44    24    50    1
45    25    26    ar
46    26    27    1
47    27    33    ar
48    27    28    ar
49    28    29    ar
50    28    51    1
51    29    30    ar
52    29    52    1
53    30    31    1
54    30    32    ar
55    32    33    ar
56    32    53    1
57    33    54    1
@<TRIPOS>SUBSTRUCTURE
1   ZINC000011616583 1     RESIDUE    1   A     ZIN   1
