@<TRIPOS>MOLECULE
ZINC000038336973
78    81    1     0     0
SMALL
USER_CHARGES
@<TRIPOS>ATOM
1      C1     -1.6444    3.1060   -1.5964 C.3      1 ZINC000038336973   -0.1600
2      C2     -1.8889    1.6152   -1.8383 C.3      1 ZINC000038336973   -0.1200
3      C3     -0.9757    1.1246   -2.9636 C.3      1 ZINC000038336973   -0.1200
4      C4     -1.2202   -0.3662   -3.2055 C.3      1 ZINC000038336973   -0.0800
5      C5     -0.3207   -0.8494   -4.3139 C.cat    1 ZINC000038336973    0.3300
6      N6      0.9118   -1.2503   -4.1701 N.pl3    1 ZINC000038336973   -0.4800
7      H7      1.3963   -1.2854   -3.3306 H        1 ZINC000038336973    0.4600
8      C8      1.4064   -1.6091   -5.3721 C.2      1 ZINC000038336973    0.0900
9      C9      2.7739   -2.1205   -5.6366 C.ar     1 ZINC000038336973   -0.0900
10     C10     3.6778   -2.2723   -4.5867 C.ar     1 ZINC000038336973   -0.0600
11     C11     4.9484   -2.7479   -4.8357 C.ar     1 ZINC000038336973   -0.1400
12     C12     5.3271   -3.0752   -6.1304 C.ar     1 ZINC000038336973    0.1600
13     O13     6.5797   -3.5436   -6.3726 O.3      1 ZINC000038336973   -0.3100
14     C14     6.9028   -3.8610   -7.7279 C.3      1 ZINC000038336973    0.0600
15     C15     8.3441   -4.3690   -7.8031 C.3      1 ZINC000038336973   -0.1500
16     C16     8.6900   -4.7088   -9.2542 C.3      1 ZINC000038336973   -0.0100
17     N17    10.1104   -5.0718   -9.3469 N.4      1 ZINC000038336973   -0.3900
18     H18    10.6728   -4.3335   -8.9510 H        1 ZINC000038336973    0.4200
19     C19    10.3467   -6.3182   -8.6061 C.3      1 ZINC000038336973   -0.0200
20     C20    11.8445   -6.6301   -8.5972 C.3      1 ZINC000038336973   -0.1900
21     C21    10.4759   -5.2634  -10.7568 C.3      1 ZINC000038336973   -0.0200
22     C22    10.3660   -3.9294  -11.4979 C.3      1 ZINC000038336973   -0.1900
23     C23     4.4290   -2.9256   -7.1781 C.ar     1 ZINC000038336973   -0.2000
24     C24     3.1553   -2.4554   -6.9346 C.ar     1 ZINC000038336973   -0.0400
25     C25     0.4305   -1.4192   -6.2981 C.2      1 ZINC000038336973    0.0300
26     N26    -0.6634   -0.9440   -5.6252 N.pl3    1 ZINC000038336973   -0.3400
27     C27    -1.9048   -0.6087   -6.1869 C.ar     1 ZINC000038336973    0.0200
28     C28    -3.0756   -1.1045   -5.6296 C.ar     1 ZINC000038336973   -0.0600
29     C29    -4.2969   -0.7744   -6.1826 C.ar     1 ZINC000038336973   -0.1800
30     C30    -4.3540    0.0523   -7.2956 C.ar     1 ZINC000038336973    0.1700
31     O31    -5.5565    0.3766   -7.8401 O.3      1 ZINC000038336973   -0.2400
32     C32    -6.6803   -0.0345   -7.1958 C.ar     1 ZINC000038336973    0.0600
33     C33    -7.1035    0.6226   -6.0494 C.ar     1 ZINC000038336973   -0.1200
34     C34    -8.2460    0.2031   -5.3960 C.ar     1 ZINC000038336973   -0.0900
35     C35    -8.9683   -0.8715   -5.8841 C.ar     1 ZINC000038336973   -0.0300
36     Cl36  -10.4038   -1.3967   -5.0612 Cl       1 ZINC000038336973   -0.0400
37     C37    -8.5481   -1.5278   -7.0276 C.ar     1 ZINC000038336973   -0.0900
38     C38    -7.4091   -1.1082   -7.6869 C.ar     1 ZINC000038336973   -0.1000
39     C39    -3.1839    0.5483   -7.8527 C.ar     1 ZINC000038336973   -0.1300
40     C40    -1.9626    0.2233   -7.2967 C.ar     1 ZINC000038336973   -0.0500
41     H41    -0.6034    3.2623   -1.3137 H        1 ZINC000038336973    0.0600
42     H42    -1.8607    3.6623   -2.5085 H        1 ZINC000038336973    0.0600
43     H43    -2.2950    3.4555   -0.7948 H        1 ZINC000038336973    0.0700
44     H44    -1.6726    1.0589   -0.9263 H        1 ZINC000038336973    0.0700
45     H45    -2.9299    1.4589   -2.1210 H        1 ZINC000038336973    0.0700
46     H46    -1.1920    1.6809   -3.8757 H        1 ZINC000038336973    0.0800
47     H47     0.0653    1.2809   -2.6809 H        1 ZINC000038336973    0.0700
48     H48    -1.0039   -0.9226   -2.2935 H        1 ZINC000038336973    0.1300
49     H49    -2.2612   -0.5225   -3.4882 H        1 ZINC000038336973    0.1200
50     H50     3.3839   -2.0175   -3.5792 H        1 ZINC000038336973    0.1300
51     H51     5.6494   -2.8654   -4.0226 H        1 ZINC000038336973    0.1500
52     H52     6.2257   -4.6340   -8.0914 H        1 ZINC000038336973    0.0800
53     H53     6.7996   -2.9682   -8.3447 H        1 ZINC000038336973    0.0800
54     H54     9.0212   -3.5960   -7.4396 H        1 ZINC000038336973    0.1000
55     H55     8.4473   -5.2618   -7.1864 H        1 ZINC000038336973    0.1000
56     H56     8.0782   -5.5474   -9.5868 H        1 ZINC000038336973    0.1300
57     H57     8.4943   -3.8430   -9.8868 H        1 ZINC000038336973    0.1400
58     H58     9.9931   -6.2043   -7.5813 H        1 ZINC000038336973    0.1300
59     H59     9.8084   -7.1346   -9.0876 H        1 ZINC000038336973    0.1300
60     H60    12.0198   -7.5549   -8.0475 H        1 ZINC000038336973    0.1100
61     H61    12.1980   -6.7439   -9.6219 H        1 ZINC000038336973    0.0800
62     H62    12.3828   -5.8137   -8.1157 H        1 ZINC000038336973    0.0800
63     H63    11.5002   -5.6308  -10.8199 H        1 ZINC000038336973    0.1400
64     H64     9.8012   -5.9885  -11.2117 H        1 ZINC000038336973    0.1300
65     H65    10.9655   -3.1779  -10.9843 H        1 ZINC000038336973    0.0800
66     H66    10.7302   -4.0496  -12.5182 H        1 ZINC000038336973    0.1100
67     H67     9.3239   -3.6105  -11.5193 H        1 ZINC000038336973    0.0800
68     H68     4.7265   -3.1811   -8.1843 H        1 ZINC000038336973    0.1400
69     H69     2.4568   -2.3395   -7.7501 H        1 ZINC000038336973    0.1400
70     H70     0.5021   -1.6105   -7.3586 H        1 ZINC000038336973    0.2200
71     H71    -3.0312   -1.7485   -4.7638 H        1 ZINC000038336973    0.1400
72     H72    -5.2078   -1.1600   -5.7491 H        1 ZINC000038336973    0.1500
73     H73    -6.5399    1.4611   -5.6679 H        1 ZINC000038336973    0.1400
74     H74    -8.5756    0.7140   -4.5034 H        1 ZINC000038336973    0.1500
75     H75    -9.1133   -2.3664   -7.4069 H        1 ZINC000038336973    0.1500
76     H76    -7.0815   -1.6207   -8.5793 H        1 ZINC000038336973    0.1500
77     H77    -3.2288    1.1917   -8.7189 H        1 ZINC000038336973    0.1600
78     H78    -1.0520    0.6094   -7.7303 H        1 ZINC000038336973    0.1500
@<TRIPOS>BOND
1     1     2     1
2     1     41    1
3     1     42    1
4     1     43    1
5     2     3     1
6     2     44    1
7     2     45    1
8     3     4     1
9     3     46    1
10    3     47    1
11    4     5     1
12    4     48    1
13    4     49    1
14    5     26    ar
15    5     6     ar
16    6     7     1
17    6     8     1
18    8     9     1
19    8     25    2
20    9     24    ar
21    9     10    ar
22    10    11    ar
23    10    50    1
24    11    12    ar
25    11    51    1
26    12    13    1
27    12    23    ar
28    13    14    1
29    14    15    1
30    14    52    1
31    14    53    1
32    15    16    1
33    15    54    1
34    15    55    1
35    16    17    1
36    16    56    1
37    16    57    1
38    17    18    1
39    17    19    1
40    17    21    1
41    19    20    1
42    19    58    1
43    19    59    1
44    20    60    1
45    20    61    1
46    20    62    1
47    21    22    1
48    21    63    1
49    21    64    1
50    22    65    1
51    22    66    1
52    22    67    1
53    23    24    ar
54    23    68    1
55    24    69    1
56    25    26    1
57    25    70    1
58    26    27    1
59    27    40    ar
60    27    28    ar
61    28    29    ar
62    28    71    1
63    29    30    ar
64    29    72    1
65    30    31    1
66    30    39    ar
67    31    32    1
68    32    38    ar
69    32    33    ar
70    33    34    ar
71    33    73    1
72    34    35    ar
73    34    74    1
74    35    36    1
75    35    37    ar
76    37    38    ar
77    37    75    1
78    38    76    1
79    39    40    ar
80    39    77    1
81    40    78    1
@<TRIPOS>SUBSTRUCTURE
1   ZINC000038336973 1     RESIDUE    1   A     ZIN   1
