@<TRIPOS>MOLECULE
ZINC000000001794
26    27    1     0     0
SMALL
USER_CHARGES
@<TRIPOS>ATOM
1      O1     -0.9646    1.5714   -3.0866 O.co2    1 ZINC000000001794   -0.6900
2      C2     -0.7054    2.3440   -2.1751 C.2      1 ZINC000000001794    0.5100
3      O3      0.3260    3.0001   -2.2045 O.co2    1 ZINC000000001794   -0.6600
4      C4     -1.6409    2.4894   -1.0416 C.ar     1 ZINC000000001794   -0.0900
5      C5     -2.8806    1.8550   -1.0705 C.ar     1 ZINC000000001794   -0.0900
6      C6     -3.7527    1.9938   -0.0065 C.ar     1 ZINC000000001794   -0.1200
7      C7     -3.4026    2.7608    1.0899 C.ar     1 ZINC000000001794   -0.1300
8      C8     -2.1757    3.3981    1.1359 C.ar     1 ZINC000000001794   -0.1100
9      C9     -1.2828    3.2654    0.0776 C.ar     1 ZINC000000001794   -0.1000
10     C10     0.0310    3.9454    0.1224 C.2      1 ZINC000000001794    0.5900
11     O11     1.0537    3.2999    0.0026 O.2      1 ZINC000000001794   -0.4800
12     N12     0.0932    5.2805    0.2961 N.am     1 ZINC000000001794   -0.6300
13     C13     1.3510    6.0221    0.2375 C.3      1 ZINC000000001794    0.1100
14     C14     1.0834    7.4573   -0.2950 C.3      1 ZINC000000001794   -0.0700
15     S15    -0.4892    7.8305    0.5896 S.3      1 ZINC000000001794   -0.2900
16     C16    -1.1003    6.1004    0.5525 C.3      1 ZINC000000001794    0.1700
17     H17    -3.1607    1.2551   -1.9238 H        1 ZINC000000001794    0.1300
18     H18    -4.7131    1.5007   -0.0320 H        1 ZINC000000001794    0.1200
19     H19    -4.0917    2.8631    1.9152 H        1 ZINC000000001794    0.1200
20     H20    -1.9094    3.9953    1.9954 H        1 ZINC000000001794    0.1200
21     H21     1.7855    6.0800    1.2354 H        1 ZINC000000001794    0.0700
22     H22     2.0439    5.5102   -0.4304 H        1 ZINC000000001794    0.1000
23     H23     1.8769    8.1442   -0.0005 H        1 ZINC000000001794    0.1200
24     H24     0.9409    7.4595   -1.3756 H        1 ZINC000000001794    0.1000
25     H25    -1.8313    5.9739   -0.2461 H        1 ZINC000000001794    0.0900
26     H26    -1.5383    5.8326    1.5141 H        1 ZINC000000001794    0.1000
@<TRIPOS>BOND
1     1     2     ar
2     2     3     ar
3     2     4     1
4     4     9     ar
5     4     5     ar
6     5     6     ar
7     5     17    1
8     6     7     ar
9     6     18    1
10    7     8     ar
11    7     19    1
12    8     9     ar
13    8     20    1
14    9     10    1
15    10    11    2
16    10    12    am
17    12    16    1
18    12    13    1
19    13    14    1
20    13    21    1
21    13    22    1
22    14    15    1
23    14    23    1
24    14    24    1
25    15    16    1
26    16    25    1
27    16    26    1
@<TRIPOS>SUBSTRUCTURE
1   ZINC000000001794 1     RESIDUE    1   A     ZIN   1
