@<TRIPOS>MOLECULE
ZINC000003922429
60    67    1     0     0
SMALL
USER_CHARGES
@<TRIPOS>ATOM
1      C1     -4.2882   -0.6612    0.8585 C.3      1 ZINC000003922429   -0.0900
2      C2     -3.8518    0.5748    1.6020 C.2      1 ZINC000003922429   -0.1600
3      C3     -4.2361    1.8468    1.3324 C.2      1 ZINC000003922429    0.0400
4      N4     -3.6360    2.6834    2.2164 N.pl3    1 ZINC000003922429   -0.5100
5      C5     -2.8514    1.9405    3.0649 C.2      1 ZINC000003922429   -0.0800
6      C6     -2.9863    0.6139    2.6929 C.2      1 ZINC000003922429   -0.0600
7      C7     -2.2318   -0.4169    3.4739 C.3      1 ZINC000003922429   -0.0900
8      C8     -2.8458   -1.8002    3.6618 C.3      1 ZINC000003922429   -0.1000
9      C9     -1.5999   -1.6373    2.7850 C.3      1 ZINC000003922429   -0.1500
10     H10    -1.6566   -1.8127    1.7107 H        1 ZINC000003922429    0.1500
11     C11    -0.2221   -1.7947    3.4839 C.3      1 ZINC000003922429    0.1300
12     N12    -0.4294   -1.1346    4.7997 N.am     1 ZINC000003922429   -0.5800
13     C13    -0.0041   -1.5536    6.0080 C.2      1 ZINC000003922429    0.6100
14     O14     0.6364   -2.5832    6.1038 O.2      1 ZINC000003922429   -0.4900
15     C15    -0.3143   -0.7667    7.2096 C.2      1 ZINC000003922429    0.0000
16     C16     0.2211   -0.9675    8.4430 C.2      1 ZINC000003922429   -0.0900
17     C17    -0.3354   -0.0028    9.3172 C.ar     1 ZINC000003922429   -0.1000
18     C18    -0.1631    0.2707   10.6802 C.ar     1 ZINC000003922429   -0.0900
19     C19    -0.8661    1.3059   11.2634 C.ar     1 ZINC000003922429    0.1200
20     N20    -0.6965    1.5830   12.6255 N.am     1 ZINC000003922429   -0.6600
21     C21    -0.9118    2.8291   13.0916 C.2      1 ZINC000003922429    0.6000
22     O22    -1.1471    3.7366   12.3159 O.2      1 ZINC000003922429   -0.4900
23     C23    -0.8623    3.0919   14.5365 C.2      1 ZINC000003922429   -0.0400
24     C24    -1.0679    4.3019   15.1183 C.2      1 ZINC000003922429   -0.1000
25     C25    -0.9226    4.0890   16.5579 C.ar     1 ZINC000003922429   -0.1500
26     C26    -1.0116    4.9178   17.6785 C.ar     1 ZINC000003922429   -0.0600
27     C27    -0.8159    4.3942   18.9255 C.ar     1 ZINC000003922429   -0.1400
28     C28    -0.5297    3.0454   19.0849 C.ar     1 ZINC000003922429   -0.0800
29     C29    -0.4370    2.2108   17.9919 C.ar     1 ZINC000003922429   -0.1100
30     C30    -0.6325    2.7204   16.7137 C.ar     1 ZINC000003922429    0.0700
31     O31    -0.6116    2.1662   15.4859 O.3      1 ZINC000003922429   -0.1900
32     C32    -1.7442    2.0776   10.5021 C.ar     1 ZINC000003922429   -0.0800
33     C33    -1.9226    1.8189    9.1625 C.ar     1 ZINC000003922429   -0.1100
34     C34    -1.2237    0.7803    8.5541 C.ar     1 ZINC000003922429    0.1100
35     N35    -1.1917    0.2987    7.2647 N.pl3    1 ZINC000003922429   -0.5900
36     C36    -1.1860    0.0479    4.4721 C.2      1 ZINC000003922429    0.2300
37     C37    -1.1454    1.3339    4.8442 C.2      1 ZINC000003922429   -0.2500
38     C38    -1.9925    2.2942    4.1993 C.2      1 ZINC000003922429    0.4600
39     O39    -1.9906    3.4471    4.5958 O.2      1 ZINC000003922429   -0.4700
40     H40    -5.1928   -1.0607    1.3170 H        1 ZINC000003922429    0.0700
41     H41    -4.4901   -0.4070   -0.1821 H        1 ZINC000003922429    0.0700
42     H42    -3.4973   -1.4100    0.9026 H        1 ZINC000003922429    0.0600
43     H43    -4.9098    2.1455    0.5428 H        1 ZINC000003922429    0.1800
44     H44    -3.7434    3.6470    2.2446 H        1 ZINC000003922429    0.4300
45     H45    -2.7182   -2.2791    4.6326 H        1 ZINC000003922429    0.1000
46     H46    -3.7914   -2.0029    3.1589 H        1 ZINC000003922429    0.1200
47     H47     0.0236   -2.8483    3.6167 H        1 ZINC000003922429    0.1100
48     H48     0.5572   -1.2855    2.9168 H        1 ZINC000003922429    0.1000
49     H49     0.9413   -1.7272    8.7086 H        1 ZINC000003922429    0.1600
50     H50     0.5158   -0.3255   11.2718 H        1 ZINC000003922429    0.1300
51     H51    -0.4241    0.8781   13.2335 H        1 ZINC000003922429    0.4200
52     H52    -1.2926    5.2327   14.6190 H        1 ZINC000003922429    0.1700
53     H53    -1.2337    5.9681   17.5600 H        1 ZINC000003922429    0.1300
54     H54    -0.8841    5.0342   19.7928 H        1 ZINC000003922429    0.1300
55     H55    -0.3774    2.6455   20.0765 H        1 ZINC000003922429    0.1400
56     H56    -0.2131    1.1631   18.1284 H        1 ZINC000003922429    0.1400
57     H57    -2.2891    2.8851   10.9684 H        1 ZINC000003922429    0.1500
58     H58    -2.6052    2.4224    8.5826 H        1 ZINC000003922429    0.1300
59     H59    -1.7023    0.6491    6.5181 H        1 ZINC000003922429    0.4200
60     H60    -0.4822    1.6337    5.6421 H        1 ZINC000003922429    0.1600
@<TRIPOS>BOND
1     1     2     1
2     1     40    1
3     1     41    1
4     1     42    1
5     2     6     1
6     2     3     2
7     3     4     1
8     3     43    1
9     4     5     1
10    4     44    1
11    5     38    1
12    5     6     2
13    6     7     1
14    7     9     1
15    7     36    1
16    7     8     1
17    8     9     1
18    8     45    1
19    8     46    1
20    9     10    1
21    9     11    1
22    11    12    1
23    11    47    1
24    11    48    1
25    12    13    am
26    12    36    1
27    13    14    2
28    13    15    1
29    15    35    1
30    15    16    2
31    16    17    1
32    16    49    1
33    17    34    ar
34    17    18    ar
35    18    19    ar
36    18    50    1
37    19    20    1
38    19    32    ar
39    20    21    am
40    20    51    1
41    21    22    2
42    21    23    1
43    23    31    1
44    23    24    2
45    24    25    1
46    24    52    1
47    25    30    ar
48    25    26    ar
49    26    27    ar
50    26    53    1
51    27    28    ar
52    27    54    1
53    28    29    ar
54    28    55    1
55    29    30    ar
56    29    56    1
57    30    31    1
58    32    33    ar
59    32    57    1
60    33    34    ar
61    33    58    1
62    34    35    1
63    35    59    1
64    36    37    2
65    37    38    1
66    37    60    1
67    38    39    2
@<TRIPOS>SUBSTRUCTURE
1   ZINC000003922429 1     RESIDUE    1   A     ZIN   1
