@<TRIPOS>MOLECULE
ZINC000004691947
78    82    1     0     0
SMALL
USER_CHARGES
@<TRIPOS>ATOM
1      C1     -0.0187    1.5258    0.0104 C.3      1 ZINC000004691947   -0.1500
2      C2      0.0021   -0.0041    0.0020 C.3      1 ZINC000004691947   -0.0700
3      C3      0.7309   -0.5033    1.2229 C.2      1 ZINC000004691947   -0.0700
4      C4      2.1151   -0.7555    1.3165 C.2      1 ZINC000004691947    0.0500
5      C5      3.0202   -0.5345    0.2930 C.2      1 ZINC000004691947    0.0100
6      C6      4.3904   -0.8167    0.4053 C.2      1 ZINC000004691947    0.0500
7      N7      5.0265   -1.3776    1.4326 N.2      1 ZINC000004691947   -0.4500
8      C8      6.3107   -1.5741    1.1278 C.2      1 ZINC000004691947    0.0800
9      C9      7.2985   -2.2011    1.8900 C.2      1 ZINC000004691947    0.0800
10     C10     7.0944   -2.6835    3.1838 C.2      1 ZINC000004691947    0.0600
11     N11     5.9918   -2.5988    3.9330 N.2      1 ZINC000004691947   -0.4600
12     C12     6.2199   -3.1000    5.1449 C.2      1 ZINC000004691947    0.0800
13     C13     5.3436   -3.1336    6.2417 C.2      1 ZINC000004691947   -0.0200
14     C14     4.0257   -2.7201    6.1683 C.2      1 ZINC000004691947    0.0800
15     N15     3.3498   -2.2272    5.0708 N.pl3    1 ZINC000004691947   -0.5800
16     C16     2.0408   -2.0087    5.4372 C.2      1 ZINC000004691947    0.1700
17     C17     0.9997   -1.5597    4.6306 C.2      1 ZINC000004691947   -0.2000
18     C18     1.1915   -1.2193    3.2942 C.2      1 ZINC000004691947    0.1600
19     C19     0.1708   -0.7837    2.4283 C.2      1 ZINC000004691947   -0.1500
20     C20    -1.2897   -0.6552    2.7767 C.3      1 ZINC000004691947   -0.0800
21     N21     2.3718   -1.2279    2.5875 N.pl3    1 ZINC000004691947   -0.5600
22     C22     1.9182   -2.3118    6.8073 C.2      1 ZINC000004691947   -0.1400
23     C23     0.6638   -2.1833    7.6326 C.3      1 ZINC000004691947   -0.0500
24     C24     0.5336   -0.7466    8.1423 C.3      1 ZINC000004691947   -0.1500
25     C25     3.1262   -2.7402    7.2553 C.2      1 ZINC000004691947   -0.0700
26     C26     3.4495   -3.1624    8.6654 C.3      1 ZINC000004691947   -0.1000
27     C27     7.5848   -3.6398    5.1738 C.2      1 ZINC000004691947   -0.1700
28     C28     8.2516   -4.3425    6.3282 C.3      1 ZINC000004691947   -0.0800
29     C29     8.1258   -3.3834    3.9633 C.2      1 ZINC000004691947   -0.0900
30     C30     9.5144   -3.7440    3.5021 C.3      1 ZINC000004691947   -0.0400
31     C31     9.4721   -5.0749    2.7485 C.3      1 ZINC000004691947   -0.1700
32     C32    10.8607   -5.4354    2.2873 C.2      1 ZINC000004691947    0.4900
33     O33    11.7974   -4.6964    2.5380 O.co2    1 ZINC000004691947   -0.6900
34     O34    11.0474   -6.4661    1.6634 O.co2    1 ZINC000004691947   -0.7100
35     C35     6.5611   -0.9955   -0.2008 C.2      1 ZINC000004691947   -0.1000
36     C36     7.8814   -0.9385   -0.9250 C.3      1 ZINC000004691947   -0.0400
37     C37     8.6612    0.2958   -0.4673 C.3      1 ZINC000004691947   -0.1700
38     C38     9.9816    0.3528   -1.1915 C.2      1 ZINC000004691947    0.4900
39     O39    10.2720   -0.5134   -1.9988 O.co2    1 ZINC000004691947   -0.6900
40     O40    10.7594    1.2652   -0.9700 O.co2    1 ZINC000004691947   -0.7100
41     C41     5.3752   -0.5253   -0.6445 C.2      1 ZINC000004691947   -0.1600
42     C42     5.1136    0.1628   -1.9595 C.3      1 ZINC000004691947   -0.0800
43     H43     1.0039    1.9031    0.0027 H        1 ZINC000004691947    0.0600
44     H44    -0.5459    1.8868   -0.8726 H        1 ZINC000004691947    0.0600
45     H45    -0.5289    1.8773    0.9072 H        1 ZINC000004691947    0.0600
46     H46    -1.0205   -0.3814    0.0098 H        1 ZINC000004691947    0.0800
47     H47     0.5123   -0.3556   -0.8948 H        1 ZINC000004691947    0.0800
48     H48     2.6495   -0.1210   -0.6432 H        1 ZINC000004691947    0.1500
49     H49     8.2893   -2.3187    1.4462 H        1 ZINC000004691947    0.1600
50     H50     5.7181   -3.4990    7.1960 H        1 ZINC000004691947    0.1500
51     H51     3.7307   -2.0633    4.1939 H        1 ZINC000004691947    0.4300
52     H52     0.0029   -1.4693    5.0558 H        1 ZINC000004691947    0.1600
53     H53    -1.4844    0.3451    3.1633 H        1 ZINC000004691947    0.0700
54     H54    -1.8923   -0.8235    1.8841 H        1 ZINC000004691947    0.0700
55     H55    -1.5489   -1.3945    3.5347 H        1 ZINC000004691947    0.0700
56     H56     3.2344   -1.5172    2.9238 H        1 ZINC000004691947    0.4300
57     H57    -0.2020   -2.4309    7.0185 H        1 ZINC000004691947    0.0700
58     H58     0.7152   -2.8664    8.4805 H        1 ZINC000004691947    0.0700
59     H59     1.3995   -0.4990    8.7564 H        1 ZINC000004691947    0.0500
60     H60     0.4822   -0.0635    7.2944 H        1 ZINC000004691947    0.0600
61     H61    -0.3737   -0.6537    8.7392 H        1 ZINC000004691947    0.0600
62     H62     3.2698   -4.2320    8.7746 H        1 ZINC000004691947    0.0800
63     H63     4.4964   -2.9463    8.8784 H        1 ZINC000004691947    0.0700
64     H64     2.8161   -2.6145    9.3630 H        1 ZINC000004691947    0.0700
65     H65     7.5598   -4.3975    7.1687 H        1 ZINC000004691947    0.0500
66     H66     8.5358   -5.3501    6.0250 H        1 ZINC000004691947    0.0700
67     H67     9.1416   -3.7880    6.6259 H        1 ZINC000004691947    0.0700
68     H68     9.8917   -2.9639    2.8408 H        1 ZINC000004691947    0.0700
69     H69    10.1718   -3.8367    4.3666 H        1 ZINC000004691947    0.0700
70     H70     9.0949   -5.8549    3.4098 H        1 ZINC000004691947    0.0500
71     H71     8.8147   -4.9821    1.8840 H        1 ZINC000004691947    0.0600
72     H72     8.4578   -1.8361   -0.7009 H        1 ZINC000004691947    0.0700
73     H73     7.7045   -0.8788   -1.9989 H        1 ZINC000004691947    0.0700
74     H74     8.0849    1.1934   -0.6913 H        1 ZINC000004691947    0.0500
75     H75     8.8381    0.2362    0.6066 H        1 ZINC000004691947    0.0600
76     H76     4.8534   -0.5806   -2.7131 H        1 ZINC000004691947    0.0600
77     H77     4.2895    0.8667   -1.8437 H        1 ZINC000004691947    0.0600
78     H78     6.0089    0.6998   -2.2729 H        1 ZINC000004691947    0.0700
@<TRIPOS>BOND
1     1     2     1
2     1     43    1
3     1     44    1
4     1     45    1
5     2     3     1
6     2     46    1
7     2     47    1
8     3     19    1
9     3     4     2
10    4     21    1
11    4     5     1
12    5     6     2
13    5     48    1
14    6     41    1
15    6     7     1
16    7     8     2
17    8     9     1
18    8     35    1
19    9     10    2
20    9     49    1
21    10    29    1
22    10    11    1
23    11    12    2
24    12    13    1
25    12    27    1
26    13    14    2
27    13    50    1
28    14    25    1
29    14    15    1
30    15    16    1
31    15    51    1
32    16    17    2
33    16    22    1
34    17    18    1
35    17    52    1
36    18    19    2
37    18    21    1
38    19    20    1
39    20    53    1
40    20    54    1
41    20    55    1
42    21    56    1
43    22    23    1
44    22    25    2
45    23    24    1
46    23    57    1
47    23    58    1
48    24    59    1
49    24    60    1
50    24    61    1
51    25    26    1
52    26    62    1
53    26    63    1
54    26    64    1
55    27    28    1
56    27    29    2
57    28    65    1
58    28    66    1
59    28    67    1
60    29    30    1
61    30    31    1
62    30    68    1
63    30    69    1
64    31    32    1
65    31    70    1
66    31    71    1
67    32    33    ar
68    32    34    ar
69    35    36    1
70    35    41    2
71    36    37    1
72    36    72    1
73    36    73    1
74    37    38    1
75    37    74    1
76    37    75    1
77    38    39    ar
78    38    40    ar
79    41    42    1
80    42    76    1
81    42    77    1
82    42    78    1
@<TRIPOS>SUBSTRUCTURE
1   ZINC000004691947 1     RESIDUE    1   A     ZIN   1
