@<TRIPOS>MOLECULE
ZINC000004214260
  44   46    0    0    0
SMALL
USER_CHARGES
NO_NAME
@<TRIPOS>ATOM
    1 C1       -0.0173     1.4248     0.0099 C.3    1 <0>       0.0200
    2 O2        0.0021    -0.0041     0.0020 O.3    1 <0>      -0.2700
    3 C3        0.6248    -0.6174     1.0398 C.ar   1 <0>       0.2400
    4 C4        1.1998     0.1363     2.0471 C.ar   1 <0>      -0.3000
    5 C5        1.8366    -0.4932     3.1092 C.ar   1 <0>       0.3000
    6 N6        2.4136     0.2677     4.1209 N.pl3  1 <0>      -0.8600
    7 C7        1.8991    -1.8851     3.1649 C.ar   1 <0>      -0.1600
    8 Cl8       2.6970    -2.6629     4.4961 Cl     1 <0>      -0.0700
    9 C9        1.3300    -2.6439     2.1685 C.ar   1 <0>       0.0100
   10 C10       0.6824    -2.0186     1.0975 C.ar   1 <0>      -0.2200
   11 C11       0.0722    -2.8275     0.0293 C.2    1 <0>       0.5700
   12 O12      -0.4903    -2.2818    -0.9008 O.2    1 <0>      -0.5200
   13 N13       0.1370    -4.1727     0.0822 N.am   1 <0>      -0.7300
   14 C14      -0.4714    -4.9792    -0.9829 C.3    1 <0>       0.1600
   15 H15      -0.3445    -4.4310    -1.9301 H      1 <0>       0.0900
   16 C16      -1.9609    -5.1413    -0.7149 C.3    1 <0>      -0.1700
   17 C17      -2.6072    -6.1982    -1.5990 C.3    1 <0>       0.0700
   18 N18      -1.8229    -7.4233    -1.6831 N.3    1 <0>      -0.5500
   19 C19      -1.8391    -8.2242    -0.4614 C.3    1 <0>       0.0700
   20 C20      -1.0843    -7.5357     0.6714 C.3    1 <0>      -0.1600
   21 C21       0.2956    -7.0668     0.2244 C.3    1 <0>      -0.1100
   22 C22       0.2483    -6.3164    -1.0997 C.3    1 <0>      -0.1300
   23 H23       1.2788    -6.1347    -1.4404 H      1 <0>       0.0800
   24 C24      -0.4566    -7.1785    -2.1532 C.3    1 <0>       0.0700
   25 H25       1.0053     1.8021     0.0021 H      1 <0>       0.0600
   26 H26      -0.5445     1.7859    -0.8732 H      1 <0>       0.1100
   27 H27      -0.5275     1.7763     0.9067 H      1 <0>       0.0600
   28 H28       1.1540     1.2146     2.0077 H      1 <0>       0.1400
   29 H29       2.3708     1.2361     4.0840 H      1 <0>       0.4100
   30 H30       2.8587    -0.1701     4.8633 H      1 <0>       0.4100
   31 H31       1.3799    -3.7217     2.2148 H      1 <0>       0.1400
   32 H32       0.5856    -4.6079     0.8240 H      1 <0>       0.3900
   33 H33      -2.1474    -5.3443     0.3359 H      1 <0>       0.0700
   34 H34      -2.4516    -4.1732    -0.9317 H      1 <0>       0.0700
   35 H35      -3.6039    -6.4337    -1.2052 H      1 <0>       0.0700
   36 H36      -2.7426    -5.7869    -2.6074 H      1 <0>       0.0800
   37 H37      -2.8754    -8.3935    -0.1523 H      1 <0>       0.0700
   38 H38      -1.3796    -9.1976    -0.6600 H      1 <0>       0.0700
   39 H39      -1.6625    -6.7172     1.0836 H      1 <0>       0.0700
   40 H40      -0.9485    -8.2707     1.4845 H      1 <0>       0.0600
   41 H41       0.7344    -6.4333     1.0003 H      1 <0>       0.0600
   42 H42       0.9478    -7.9447     0.1126 H      1 <0>       0.0700
   43 H43       0.0723    -8.1227    -2.2663 H      1 <0>       0.0800
   44 H44      -0.4799    -6.6483    -3.1033 H      1 <0>       0.0800
@<TRIPOS>BOND
   1    1    2 1
   2    1   25 1
   3    1   26 1
   4    1   27 1
   5    2    3 1
   6    3   10 ar
   7    3    4 ar
   8    4    5 ar
   9    4   28 1
  10    5    6 1
  11    5    7 ar
  12    6   29 1
  13    6   30 1
  14    7    8 1
  15    7    9 ar
  16    9   10 ar
  17    9   31 1
  18   10   11 1
  19   11   12 2
  20   11   13 am
  21   13   14 1
  22   13   32 1
  23   14   15 1
  24   14   22 1
  25   14   16 1
  26   16   17 1
  27   16   33 1
  28   16   34 1
  29   17   18 1
  30   17   35 1
  31   17   36 1
  32   18   24 1
  33   18   19 1
  34   19   20 1
  35   19   37 1
  36   19   38 1
  37   20   21 1
  38   20   39 1
  39   20   40 1
  40   21   22 1
  41   21   41 1
  42   21   42 1
  43   22   23 1
  44   22   24 1
  45   24   43 1
  46   24   44 1
