@<TRIPOS>MOLECULE
ZINC000001851251
47    49    1     0     0
SMALL
USER_CHARGES
@<TRIPOS>ATOM
1      O1     -0.0173    1.4248    0.0099 O.3      1 ZINC000001851251   -0.5400
2      C2      0.0021   -0.0041    0.0020 C.3      1 ZINC000001851251    0.1500
3      H3     -1.0205   -0.3814    0.0098 H        1 ZINC000001851251    0.1100
4      C4      0.7182   -0.4975   -1.2568 C.3      1 ZINC000001851251    0.0300
5      N5      0.0077   -0.0109   -2.4469 N.3      1 ZINC000001851251   -0.5300
6      C6     -1.4412   -0.2076   -2.3119 C.3      1 ZINC000001851251    0.0500
7      C7     -2.1580    0.4395   -3.4991 C.3      1 ZINC000001851251   -0.1100
8      C8     -1.6569   -0.1953   -4.7993 C.3      1 ZINC000001851251   -0.0800
9      C9     -2.3251    0.4894   -5.9933 C.3      1 ZINC000001851251   -0.0800
10     C10    -1.9262   -0.2152   -7.2643 C.ar     1 ZINC000001851251   -0.0900
11     C11    -0.7973    0.1883   -7.9527 C.ar     1 ZINC000001851251   -0.0900
12     C12    -0.4305   -0.4571   -9.1183 C.ar     1 ZINC000001851251   -0.1500
13     C13    -1.1940   -1.5086   -9.5964 C.ar     1 ZINC000001851251    0.0900
14     F14    -0.8361   -2.1406  -10.7356 F        1 ZINC000001851251   -0.1400
15     C15    -2.3242   -1.9122   -8.9059 C.ar     1 ZINC000001851251   -0.1500
16     C16    -2.6863   -1.2684   -7.7379 C.ar     1 ZINC000001851251   -0.0900
17     C17    -0.1387   -0.0189   -4.8921 C.3      1 ZINC000001851251   -0.1100
18     C18     0.5195   -0.6527   -3.6645 C.3      1 ZINC000001851251    0.0500
19     C19     0.7309   -0.5033    1.2229 C.ar     1 ZINC000001851251   -0.1100
20     C20     1.8066    0.2061    1.7236 C.ar     1 ZINC000001851251   -0.1000
21     C21     2.4755   -0.2512    2.8434 C.ar     1 ZINC000001851251   -0.1100
22     C22     2.0683   -1.4193    3.4631 C.ar     1 ZINC000001851251   -0.0300
23     Cl23    2.9076   -1.9940    4.8698 Cl       1 ZINC000001851251   -0.0700
24     C24     0.9917   -2.1288    2.9615 C.ar     1 ZINC000001851251   -0.1100
25     C25     0.3201   -1.6674    1.8450 C.ar     1 ZINC000001851251   -0.1000
26     H26     0.8606    1.8301    0.0037 H        1 ZINC000001851251    0.3800
27     H27     1.7408   -0.1202   -1.2645 H        1 ZINC000001851251    0.0800
28     H28     0.7330   -1.5874   -1.2628 H        1 ZINC000001851251    0.0400
29     H29    -1.6626   -1.2747   -2.2917 H        1 ZINC000001851251    0.0300
30     H30    -1.7854    0.2521   -1.3854 H        1 ZINC000001851251    0.0900
31     H31    -3.2323    0.2798   -3.4067 H        1 ZINC000001851251    0.0700
32     H32    -1.9483    1.5091   -3.5119 H        1 ZINC000001851251    0.0700
33     H33    -1.9021   -1.2573   -4.8043 H        1 ZINC000001851251    0.0700
34     H34    -3.4081    0.4455   -5.8780 H        1 ZINC000001851251    0.0800
35     H35    -2.0066    1.5308   -6.0399 H        1 ZINC000001851251    0.0800
36     H36    -0.2020    1.0086   -7.5796 H        1 ZINC000001851251    0.1300
37     H37     0.4510   -0.1412   -9.6563 H        1 ZINC000001851251    0.1300
38     H38    -2.9206   -2.7321   -9.2781 H        1 ZINC000001851251    0.1300
39     H39    -3.5676   -1.5833   -7.1989 H        1 ZINC000001851251    0.1300
40     H40     0.2297   -0.5061   -5.7948 H        1 ZINC000001851251    0.0700
41     H41     0.1028    1.0434   -4.9268 H        1 ZINC000001851251    0.0700
42     H42     1.5995   -0.5163   -3.7204 H        1 ZINC000001851251    0.0700
43     H43     0.2890   -1.7177   -3.6380 H        1 ZINC000001851251    0.0300
44     H44     2.1246    1.1177    1.2396 H        1 ZINC000001851251    0.1300
45     H45     3.3161    0.3029    3.2343 H        1 ZINC000001851251    0.1400
46     H46     0.6736   -3.0408    3.4446 H        1 ZINC000001851251    0.1400
47     H47    -0.5206   -2.2210    1.4536 H        1 ZINC000001851251    0.1300
@<TRIPOS>BOND
1     1     2     1
2     1     26    1
3     2     3     1
4     2     4     1
5     2     19    1
6     4     5     1
7     4     27    1
8     4     28    1
9     5     18    1
10    5     6     1
11    6     7     1
12    6     29    1
13    6     30    1
14    7     8     1
15    7     31    1
16    7     32    1
17    8     9     1
18    8     17    1
19    8     33    1
20    9     10    1
21    9     34    1
22    9     35    1
23    10    16    ar
24    10    11    ar
25    11    12    ar
26    11    36    1
27    12    13    ar
28    12    37    1
29    13    14    1
30    13    15    ar
31    15    16    ar
32    15    38    1
33    16    39    1
34    17    18    1
35    17    40    1
36    17    41    1
37    18    42    1
38    18    43    1
39    19    25    ar
40    19    20    ar
41    20    21    ar
42    20    44    1
43    21    22    ar
44    21    45    1
45    22    23    1
46    22    24    ar
47    24    25    ar
48    24    46    1
49    25    47    1
@<TRIPOS>SUBSTRUCTURE
1   ZINC000001851251 1     RESIDUE    1   A     ZIN   1
