@<TRIPOS>MOLECULE
ZINC000115586131
65    69    1     0     0
SMALL
USER_CHARGES
@<TRIPOS>ATOM
1      C1      0.3999    1.4556    0.2204 C.3      1 ZINC000115586131    0.0200
2      O2      0.3075    0.0322    0.1350 O.3      1 ZINC000115586131   -0.3100
3      C3      0.9126   -0.5624   -0.9256 C.ar     1 ZINC000115586131    0.1600
4      C4      1.5868    0.2107   -1.8617 C.ar     1 ZINC000115586131   -0.2100
5      C5      2.2021   -0.3897   -2.9393 C.ar     1 ZINC000115586131   -0.0500
6      C6      2.1474   -1.7754   -3.0886 C.ar     1 ZINC000115586131   -0.1100
7      C7      2.8079   -2.4241   -4.2452 C.ar     1 ZINC000115586131    0.2600
8      C8      3.5770   -1.6453   -5.1194 C.ar     1 ZINC000115586131   -0.1900
9      C9      4.1917   -2.2328   -6.1900 C.ar     1 ZINC000115586131    0.0100
10     C10     4.0257   -3.6123   -6.3736 C.ar     1 ZINC000115586131   -0.2100
11     C11     3.2353   -4.3480   -5.4553 C.ar     1 ZINC000115586131    0.3700
12     N12     2.6623   -3.7268   -4.4258 N.ar     1 ZINC000115586131   -0.4700
13     N13     3.0899   -5.6671   -5.6494 N.ar     1 ZINC000115586131   -0.5300
14     C14     3.6717   -6.2622   -6.6739 C.ar     1 ZINC000115586131    0.5400
15     N15     3.4946   -7.6230   -6.8357 N.3      1 ZINC000115586131   -0.4700
16     C16     2.2699   -7.9080   -7.5973 C.3      1 ZINC000115586131    0.0300
17     C17     2.1442   -9.4198   -7.8043 C.3      1 ZINC000115586131    0.0700
18     O18     2.1548  -10.0726   -6.5319 O.3      1 ZINC000115586131   -0.3800
19     C19     3.3337   -9.8172   -5.7636 C.3      1 ZINC000115586131    0.0700
20     C20     3.4714   -8.3096   -5.5359 C.3      1 ZINC000115586131    0.0500
21     H21     2.6250   -7.9511   -4.9501 H        1 ZINC000115586131    0.0800
22     C22     4.7719   -8.0233   -4.7826 C.3      1 ZINC000115586131   -0.1400
23     N23     4.4206   -5.6087   -7.5572 N.ar     1 ZINC000115586131   -0.5400
24     C24     4.6259   -4.3029   -7.4541 C.ar     1 ZINC000115586131    0.4300
25     N25     5.4040   -3.6350   -8.3746 N.3      1 ZINC000115586131   -0.4900
26     C26     6.7825   -4.1461   -8.3689 C.3      1 ZINC000115586131    0.0200
27     C27     7.6245   -3.3386   -9.3603 C.3      1 ZINC000115586131    0.0700
28     O28     7.0254   -3.4115  -10.6569 O.3      1 ZINC000115586131   -0.3800
29     C29     5.6825   -2.9212  -10.6990 C.3      1 ZINC000115586131    0.0700
30     C30     4.8208   -3.7245   -9.7211 C.3      1 ZINC000115586131    0.0500
31     H31     4.7896   -4.7676  -10.0357 H        1 ZINC000115586131    0.0700
32     C32     3.4015   -3.1536   -9.7031 C.3      1 ZINC000115586131   -0.1500
33     C33     1.4696   -2.5493   -2.1461 C.ar     1 ZINC000115586131    0.0000
34     C34     0.8607   -1.9432   -1.0685 C.ar     1 ZINC000115586131   -0.1300
35     C35     0.1285   -2.7784   -0.0500 C.3      1 ZINC000115586131    0.1300
36     O36     0.2067   -4.1567   -0.4192 O.3      1 ZINC000115586131   -0.5700
37     H37     1.4481    1.7488    0.2790 H        1 ZINC000115586131    0.0600
38     H38    -0.0535    1.9029   -0.6642 H        1 ZINC000115586131    0.0600
39     H39    -0.1244    1.8010    1.1114 H        1 ZINC000115586131    0.1000
40     H40     1.6288    1.2837   -1.7455 H        1 ZINC000115586131    0.1400
41     H41     2.7257    0.2122   -3.6673 H        1 ZINC000115586131    0.1300
42     H42     3.6837   -0.5842   -4.9485 H        1 ZINC000115586131    0.1500
43     H43     4.7886   -1.6498   -6.8757 H        1 ZINC000115586131    0.1600
44     H44     1.4042   -7.5432   -7.0444 H        1 ZINC000115586131    0.0600
45     H45     2.3197   -7.4109   -8.5661 H        1 ZINC000115586131    0.0900
46     H46     1.2089   -9.6402   -8.3187 H        1 ZINC000115586131    0.1100
47     H47     2.9824   -9.7760   -8.4031 H        1 ZINC000115586131    0.0700
48     H48     3.2586  -10.3252   -4.8021 H        1 ZINC000115586131    0.1100
49     H49     4.2065  -10.1851   -6.3031 H        1 ZINC000115586131    0.0600
50     H50     5.6220   -8.2775   -5.4157 H        1 ZINC000115586131    0.0600
51     H51     4.8160   -6.9657   -4.5226 H        1 ZINC000115586131    0.0500
52     H52     4.8044   -8.6228   -3.8728 H        1 ZINC000115586131    0.0700
53     H53     7.2034   -4.0467   -7.3684 H        1 ZINC000115586131    0.0900
54     H54     6.7826   -5.1960   -8.6618 H        1 ZINC000115586131    0.0700
55     H55     7.6686   -2.2984   -9.0377 H        1 ZINC000115586131    0.0600
56     H56     8.6328   -3.7507   -9.4016 H        1 ZINC000115586131    0.1100
57     H57     5.6702   -1.8689  -10.4153 H        1 ZINC000115586131    0.0600
58     H58     5.2863   -3.0314  -11.7085 H        1 ZINC000115586131    0.1100
59     H59     3.0120   -3.1160  -10.7204 H        1 ZINC000115586131    0.0700
60     H60     2.7614   -3.7904   -9.0924 H        1 ZINC000115586131    0.0500
61     H61     3.4197   -2.1477   -9.2836 H        1 ZINC000115586131    0.0700
62     H62     1.4254   -3.6225   -2.2589 H        1 ZINC000115586131    0.1600
63     H63     0.5843   -2.6383    0.9301 H        1 ZINC000115586131    0.0600
64     H64    -0.9167   -2.4712   -0.0120 H        1 ZINC000115586131    0.0600
65     H65    -0.2442   -4.7540    0.1932 H        1 ZINC000115586131    0.3900
@<TRIPOS>BOND
1     1     2     1
2     1     37    1
3     1     38    1
4     1     39    1
5     2     3     1
6     3     34    ar
7     3     4     ar
8     4     5     ar
9     4     40    1
10    5     6     ar
11    5     41    1
12    6     7     1
13    6     33    ar
14    7     12    ar
15    7     8     ar
16    8     9     ar
17    8     42    1
18    9     10    ar
19    9     43    1
20    10    24    ar
21    10    11    ar
22    11    12    ar
23    11    13    ar
24    13    14    ar
25    14    15    1
26    14    23    ar
27    15    20    1
28    15    16    1
29    16    17    1
30    16    44    1
31    16    45    1
32    17    18    1
33    17    46    1
34    17    47    1
35    18    19    1
36    19    20    1
37    19    48    1
38    19    49    1
39    20    21    1
40    20    22    1
41    22    50    1
42    22    51    1
43    22    52    1
44    23    24    ar
45    24    25    1
46    25    30    1
47    25    26    1
48    26    27    1
49    26    53    1
50    26    54    1
51    27    28    1
52    27    55    1
53    27    56    1
54    28    29    1
55    29    30    1
56    29    57    1
57    29    58    1
58    30    31    1
59    30    32    1
60    32    59    1
61    32    60    1
62    32    61    1
63    33    34    ar
64    33    62    1
65    34    35    1
66    35    36    1
67    35    63    1
68    35    64    1
69    36    65    1
@<TRIPOS>SUBSTRUCTURE
1   ZINC000115586131 1     RESIDUE    1   A     ZIN   1
