@<TRIPOS>MOLECULE
ZINC000001891924
  72   73    0    0    0
SMALL
USER_CHARGES
NO_NAME
@<TRIPOS>ATOM
    1 C1       -0.0760     0.4985    -0.1037 C.3    1 <0>      -0.1500
    2 C2       -0.1833    -0.9612    -0.5496 C.3    1 <0>      -0.1200
    3 C3        0.8831    -1.2509    -1.6078 C.3    1 <0>      -0.1200
    4 C4        0.7759    -2.7105    -2.0536 C.3    1 <0>      -0.1200
    5 C5        1.8422    -3.0002    -3.1119 C.3    1 <0>      -0.1300
    6 C6        1.8206    -4.4891    -3.4635 C.3    1 <0>       0.1100
    7 C7        0.4660    -4.8846    -4.0549 C.3    1 <0>      -0.1100
    8 C8        0.4673    -6.3804    -4.3769 C.3    1 <0>      -0.1200
    9 C9       -0.9165    -6.7946    -4.8812 C.3    1 <0>      -0.1200
   10 C10      -0.9152    -8.2904    -5.2033 C.3    1 <0>      -0.1300
   11 C11      -2.2990    -8.7046    -5.7076 C.3    1 <0>      -0.1500
   12 C12       2.9712    -4.8393    -4.4365 C.3    1 <0>      -0.1000
   13 C13       4.0687    -5.2697    -3.4824 C.ar   1 <0>      -0.1600
   14 C14       3.4706    -5.4986    -2.2504 C.ar   1 <0>       0.1100
   15 C15       4.2650    -5.8992    -1.1790 C.ar   1 <0>      -0.1400
   16 C16       5.6231    -6.0716    -1.3456 C.ar   1 <0>      -0.0600
   17 C17       6.4729    -6.5063    -0.1794 C.3    1 <0>      -0.0200
   18 C18       5.5893    -6.6844     1.0570 C.3    1 <0>      -0.1500
   19 C19       7.1564    -7.8338    -0.5132 C.3    1 <0>      -0.1400
   20 C20       7.5355    -5.4421     0.1021 C.3    1 <0>      -0.1400
   21 C21       6.2104    -5.8470    -2.5821 C.ar   1 <0>       0.0800
   22 O22       7.5492    -6.0212    -2.7447 O.3    1 <0>      -0.4800
   23 C23       5.4244    -5.4441    -3.6525 C.ar   1 <0>      -0.0400
   24 C24       6.0533    -5.1986    -4.9998 C.3    1 <0>      -0.0200
   25 C25       7.5120    -5.6594    -4.9733 C.3    1 <0>      -0.1400
   26 C26       5.2901    -5.9826    -6.0693 C.3    1 <0>      -0.1500
   27 C27       5.9962    -3.7046    -5.3247 C.3    1 <0>      -0.1400
   28 O28       2.1256    -5.2897    -2.3089 O.3    1 <0>      -0.2900
   29 H29       0.9128     0.6777     0.3184 H      1 <0>       0.0500
   30 H30      -0.2288     1.1527    -0.9620 H      1 <0>       0.0500
   31 H31      -0.8357     0.7048     0.6502 H      1 <0>       0.0500
   32 H32      -0.0305    -1.6154     0.3088 H      1 <0>       0.0600
   33 H33      -1.1721    -1.1405    -0.9716 H      1 <0>       0.0600
   34 H34       0.7304    -0.5966    -2.4661 H      1 <0>       0.0600
   35 H35       1.8720    -1.0716    -1.1857 H      1 <0>       0.0600
   36 H36       0.9286    -3.3648    -1.1953 H      1 <0>       0.0700
   37 H37      -0.2130    -2.8898    -2.4757 H      1 <0>       0.0600
   38 H38       1.6355    -2.4126    -4.0063 H      1 <0>       0.0800
   39 H39       2.8241    -2.7335    -2.7208 H      1 <0>       0.0700
   40 H40      -0.3222    -4.6689    -3.3337 H      1 <0>       0.0800
   41 H41       0.2884    -4.3165    -4.9680 H      1 <0>       0.0800
   42 H42       1.2111    -6.5856    -5.1468 H      1 <0>       0.0600
   43 H43       0.7103    -6.9455    -3.4771 H      1 <0>       0.0700
   44 H44      -1.6603    -6.5894    -4.1113 H      1 <0>       0.0600
   45 H45      -1.1595    -6.2295    -5.7810 H      1 <0>       0.0600
   46 H46      -0.1715    -8.4956    -5.9732 H      1 <0>       0.0600
   47 H47      -0.6722    -8.8555    -4.3035 H      1 <0>       0.0600
   48 H48      -2.2981    -9.7702    -5.9370 H      1 <0>       0.0500
   49 H49      -3.0428    -8.4994    -4.9377 H      1 <0>       0.0500
   50 H50      -2.5420    -8.1395    -6.6074 H      1 <0>       0.0500
   51 H51       2.6867    -5.6579    -5.0976 H      1 <0>       0.1000
   52 H52       3.2754    -3.9643    -5.0109 H      1 <0>       0.0900
   53 H53       3.8154    -6.0762    -0.2131 H      1 <0>       0.1300
   54 H54       4.8323    -7.4425     0.8564 H      1 <0>       0.0600
   55 H55       6.2039    -6.9988     1.9005 H      1 <0>       0.0600
   56 H56       5.1024    -5.7386     1.2948 H      1 <0>       0.0600
   57 H57       7.7859    -7.7069    -1.3941 H      1 <0>       0.0600
   58 H58       7.7710    -8.1482     0.3303 H      1 <0>       0.0600
   59 H59       6.3994    -8.5919    -0.7138 H      1 <0>       0.0500
   60 H60       7.0485    -4.4964     0.3399 H      1 <0>       0.0500
   61 H61       8.1500    -5.7565     0.9456 H      1 <0>       0.0500
   62 H62       8.1649    -5.3152    -0.7787 H      1 <0>       0.0800
   63 H63       7.8052    -6.9303    -2.9525 H      1 <0>       0.3800
   64 H64       7.5571    -6.7058    -4.6713 H      1 <0>       0.0500
   65 H65       7.9460    -5.5491    -5.9671 H      1 <0>       0.0400
   66 H66       8.0722    -5.0517    -4.2627 H      1 <0>       0.0900
   67 H67       4.2509    -5.6544    -6.0882 H      1 <0>       0.0600
   68 H68       5.7450    -5.8051    -7.0438 H      1 <0>       0.0600
   69 H69       5.3308    -7.0470    -5.8379 H      1 <0>       0.0500
   70 H70       6.6013    -3.1530    -4.6052 H      1 <0>       0.0600
   71 H71       6.3832    -3.5363    -6.3297 H      1 <0>       0.0600
   72 H72       4.9634    -3.3602    -5.2706 H      1 <0>       0.0600
@<TRIPOS>BOND
   1    1    2 1
   2    1   29 1
   3    1   30 1
   4    1   31 1
   5    2    3 1
   6    2   32 1
   7    2   33 1
   8    3    4 1
   9    3   34 1
  10    3   35 1
  11    4    5 1
  12    4   36 1
  13    4   37 1
  14    5    6 1
  15    5   38 1
  16    5   39 1
  17    6   28 1
  18    6    7 1
  19    6   12 1
  20    7    8 1
  21    7   40 1
  22    7   41 1
  23    8    9 1
  24    8   42 1
  25    8   43 1
  26    9   10 1
  27    9   44 1
  28    9   45 1
  29   10   11 1
  30   10   46 1
  31   10   47 1
  32   11   48 1
  33   11   49 1
  34   11   50 1
  35   12   13 1
  36   12   51 1
  37   12   52 1
  38   13   23 ar
  39   13   14 ar
  40   14   15 ar
  41   14   28 1
  42   15   16 ar
  43   15   53 1
  44   16   17 1
  45   16   21 ar
  46   17   18 1
  47   17   19 1
  48   17   20 1
  49   18   54 1
  50   18   55 1
  51   18   56 1
  52   19   57 1
  53   19   58 1
  54   19   59 1
  55   20   60 1
  56   20   61 1
  57   20   62 1
  58   21   22 1
  59   21   23 ar
  60   22   63 1
  61   23   24 1
  62   24   25 1
  63   24   26 1
  64   24   27 1
  65   25   64 1
  66   25   65 1
  67   25   66 1
  68   26   67 1
  69   26   68 1
  70   26   69 1
  71   27   70 1
  72   27   71 1
  73   27   72 1
