@<TRIPOS>MOLECULE
ZINC000021983163
66    67    1     0     0
SMALL
USER_CHARGES
@<TRIPOS>ATOM
1      C1     -0.4864    0.6865   -0.2159 C.2      1 ZINC000021983163   -0.1200
2      C2     -0.0172   -0.5371   -0.0004 C.2      1 ZINC000021983163    0.0400
3      N3     -0.8696   -1.5789    0.2234 N.2      1 ZINC000021983163   -0.4600
4      C4     -0.4711   -2.7136    0.6647 C.2      1 ZINC000021983163    0.2000
5      C5     -1.5022   -3.7899    0.8878 C.3      1 ZINC000021983163   -0.1200
6      C6      0.9623   -3.0340    0.9720 C.3      1 ZINC000021983163   -0.1000
7      C7      1.5535   -3.8154   -0.1728 C.2      1 ZINC000021983163    0.4800
8      O8      2.7397   -3.7571   -0.3952 O.2      1 ZINC000021983163   -0.5000
9      O9      0.7624   -4.5763   -0.9455 O.3      1 ZINC000021983163   -0.3400
10     C10     1.4003   -5.3012   -2.0299 C.3      1 ZINC000021983163    0.0700
11     C11     0.3473   -6.1065   -2.7938 C.3      1 ZINC000021983163   -0.1500
12     C12     1.7680   -1.7486    1.1755 C.3      1 ZINC000021983163   -0.0300
13     H13     2.8323   -1.9823    1.1998 H        1 ZINC000021983163    0.1200
14     C14     1.3620   -1.0945    2.4710 C.ar     1 ZINC000021983163   -0.0600
15     C15     0.0334   -0.8272    2.7237 C.ar     1 ZINC000021983163   -0.1300
16     C16    -0.3415   -0.2264    3.9131 C.ar     1 ZINC000021983163   -0.1000
17     C17     0.6125    0.1105    4.8573 C.ar     1 ZINC000021983163   -0.1100
18     C18     1.9456   -0.1499    4.6192 C.ar     1 ZINC000021983163   -0.1000
19     C19     2.3317   -0.7623    3.4228 C.ar     1 ZINC000021983163   -0.0600
20     C20     3.7522   -1.0442    3.1609 C.2      1 ZINC000021983163   -0.0100
21     C21     4.6638   -0.8840    4.1425 C.2      1 ZINC000021983163   -0.1900
22     C22     6.0753   -1.1641    3.8824 C.2      1 ZINC000021983163    0.5000
23     O23     6.4275   -1.5416    2.7811 O.2      1 ZINC000021983163   -0.5000
24     O24     6.9869   -1.0039    4.8639 O.3      1 ZINC000021983163   -0.3400
25     C25     8.3476   -1.2958    4.5395 C.3      1 ZINC000021983163    0.1200
26     C26     8.8068   -0.3848    3.3993 C.3      1 ZINC000021983163   -0.1900
27     C27     9.2273   -1.0575    5.7684 C.3      1 ZINC000021983163   -0.1400
28     C28     8.4657   -2.7576    4.1035 C.3      1 ZINC000021983163   -0.1900
29     C29     1.4722   -0.8032   -0.0044 C.3      1 ZINC000021983163   -0.0700
30     C30     1.8810   -1.4565   -1.2995 C.2      1 ZINC000021983163    0.4700
31     O31     1.0527   -2.0050   -1.9873 O.2      1 ZINC000021983163   -0.4900
32     O32     3.1653   -1.4290   -1.6889 O.3      1 ZINC000021983163   -0.3400
33     C33     3.4866   -2.0784   -2.9472 C.3      1 ZINC000021983163    0.0700
34     C34     4.9857   -1.9447   -3.2220 C.3      1 ZINC000021983163   -0.1500
35     H35     0.1971    1.5029   -0.3964 H        1 ZINC000021983163    0.1200
36     H36    -1.5517    0.8643   -0.2152 H        1 ZINC000021983163    0.1200
37     H37    -2.4882   -3.4092    0.6215 H        1 ZINC000021983163    0.0900
38     H38    -1.2661   -4.6536    0.2663 H        1 ZINC000021983163    0.0900
39     H39    -1.4979   -4.0852    1.9370 H        1 ZINC000021983163    0.0800
40     H40     1.0097   -3.6350    1.8801 H        1 ZINC000021983163    0.1400
41     H41     1.8790   -4.5942   -2.7074 H        1 ZINC000021983163    0.0700
42     H42     2.1506   -5.9787   -1.6222 H        1 ZINC000021983163    0.0700
43     H43     0.8261   -6.6507   -3.6079 H        1 ZINC000021983163    0.0800
44     H44    -0.1314   -6.8135   -2.1163 H        1 ZINC000021983163    0.0700
45     H45    -0.4030   -5.4290   -3.2015 H        1 ZINC000021983163    0.0700
46     H46    -0.7170   -1.0869    1.9916 H        1 ZINC000021983163    0.1500
47     H47    -1.3839   -0.0192    4.1051 H        1 ZINC000021983163    0.1300
48     H48     0.3122    0.5790    5.7829 H        1 ZINC000021983163    0.1300
49     H49     2.6890    0.1142    5.3567 H        1 ZINC000021983163    0.1300
50     H50     4.0649   -1.3794    2.1830 H        1 ZINC000021983163    0.1400
51     H51     4.3511   -0.5488    5.1204 H        1 ZINC000021983163    0.1400
52     H52     8.7227    0.6566    3.7099 H        1 ZINC000021983163    0.0600
53     H53     9.8447   -0.6075    3.1518 H        1 ZINC000021983163    0.0700
54     H54     8.1801   -0.5545    2.5237 H        1 ZINC000021983163    0.0800
55     H55     8.9001   -1.7066    6.5808 H        1 ZINC000021983163    0.0700
56     H56    10.2652   -1.2802    5.5210 H        1 ZINC000021983163    0.0800
57     H57     9.1432   -0.0161    6.0791 H        1 ZINC000021983163    0.0700
58     H58     7.8390   -2.9273    3.2279 H        1 ZINC000021983163    0.0800
59     H59     9.5036   -2.9802    3.8560 H        1 ZINC000021983163    0.0700
60     H60     8.1385   -3.4066    4.9158 H        1 ZINC000021983163    0.0600
61     H61     2.0140    0.1336    0.1264 H        1 ZINC000021983163    0.1300
62     H62     3.2204   -3.1339   -2.8897 H        1 ZINC000021983163    0.0700
63     H63     2.9258   -1.6057   -3.7536 H        1 ZINC000021983163    0.0700
64     H64     5.2519   -0.8892   -3.2795 H        1 ZINC000021983163    0.0700
65     H65     5.5465   -2.4174   -2.4156 H        1 ZINC000021983163    0.0700
66     H66     5.2269   -2.4322   -4.1666 H        1 ZINC000021983163    0.0800
@<TRIPOS>BOND
1     1     2     2
2     1     35    1
3     1     36    1
4     2     29    1
5     2     3     1
6     3     4     2
7     4     5     1
8     4     6     1
9     5     37    1
10    5     38    1
11    5     39    1
12    6     7     1
13    6     12    1
14    6     40    1
15    7     8     2
16    7     9     1
17    9     10    1
18    10    11    1
19    10    41    1
20    10    42    1
21    11    43    1
22    11    44    1
23    11    45    1
24    12    13    1
25    12    14    1
26    12    29    1
27    14    19    ar
28    14    15    ar
29    15    16    ar
30    15    46    1
31    16    17    ar
32    16    47    1
33    17    18    ar
34    17    48    1
35    18    19    ar
36    18    49    1
37    19    20    1
38    20    21    2
39    20    50    1
40    21    22    1
41    21    51    1
42    22    23    2
43    22    24    1
44    24    25    1
45    25    26    1
46    25    27    1
47    25    28    1
48    26    52    1
49    26    53    1
50    26    54    1
51    27    55    1
52    27    56    1
53    27    57    1
54    28    58    1
55    28    59    1
56    28    60    1
57    29    30    1
58    29    61    1
59    30    31    2
60    30    32    1
61    32    33    1
62    33    34    1
63    33    62    1
64    33    63    1
65    34    64    1
66    34    65    1
67    34    66    1
@<TRIPOS>SUBSTRUCTURE
1   ZINC000021983163 1     RESIDUE    1   A     ZIN   1
