@<TRIPOS>MOLECULE
ZINC000003830625
30    31    1     0     0
SMALL
USER_CHARGES
@<TRIPOS>ATOM
1      N1     -0.0166    1.3714    0.0096 N.pl3    1 ZINC000003830625   -0.8100
2      C2      0.0021   -0.0041    0.0020 C.2      1 ZINC000003830625    0.5000
3      N3     -1.1354   -0.6867    0.0037 N.2      1 ZINC000003830625   -0.6100
4      C4     -1.1293   -2.0185   -0.0041 C.2      1 ZINC000003830625    0.6500
5      O5     -2.1886   -2.6233   -0.0028 O.2      1 ZINC000003830625   -0.5100
6      N6      0.0264   -2.7078   -0.0137 N.am     1 ZINC000003830625   -0.5300
7      C7      0.0011   -4.1726   -0.0226 C.3      1 ZINC000003830625    0.3000
8      H8     -0.5098   -4.5372   -0.9137 H        1 ZINC000003830625    0.1200
9      O9      1.3446   -4.6990    0.0376 O.3      1 ZINC000003830625   -0.3500
10     C10     1.2013   -6.0542    0.5158 C.3      1 ZINC000003830625    0.0500
11     H11     0.8738   -6.7089   -0.2918 H        1 ZINC000003830625    0.1000
12     C12     2.5226   -6.5543    1.1031 C.3      1 ZINC000003830625    0.0800
13     O13     3.4955   -6.6636    0.0622 O.3      1 ZINC000003830625   -0.5600
14     C14     0.1184   -5.9725    1.6145 C.3      1 ZINC000003830625    0.0400
15     H15    -0.5214   -6.8546    1.5865 H        1 ZINC000003830625    0.0900
16     O16     0.7214   -5.8336    2.9026 O.3      1 ZINC000003830625   -0.5500
17     C17    -0.6920   -4.7062    1.2508 C.3      1 ZINC000003830625    0.0900
18     H18    -0.6322   -3.9709    2.0532 H        1 ZINC000003830625    0.0900
19     O19    -2.0546   -5.0434    0.9829 O.3      1 ZINC000003830625   -0.5200
20     C20     1.2200   -2.0505   -0.0158 C.2      1 ZINC000003830625    0.2100
21     C21     1.2303   -0.6965   -0.0134 C.2      1 ZINC000003830625   -0.3100
22     H22     0.8168    1.8678    0.0043 H        1 ZINC000003830625    0.4200
23     H23    -0.8631    1.8449    0.0162 H        1 ZINC000003830625    0.4100
24     H24     2.8747   -5.8503    1.8571 H        1 ZINC000003830625    0.0700
25     H25     2.3697   -7.5313    1.5616 H        1 ZINC000003830625    0.0700
26     H26     4.3598   -6.9761    0.3628 H        1 ZINC000003830625    0.3900
27     H27     1.2878   -6.5760    3.1538 H        1 ZINC000003830625    0.3800
28     H28    -2.5171   -5.4381    1.7348 H        1 ZINC000003830625    0.3900
29     H29     2.1477   -2.6035   -0.0235 H        1 ZINC000003830625    0.1800
30     H30     2.1649   -0.1552   -0.0154 H        1 ZINC000003830625    0.1600
@<TRIPOS>BOND
1     1     2     1
2     1     22    1
3     1     23    1
4     2     21    1
5     2     3     2
6     3     4     1
7     4     5     2
8     4     6     am
9     6     7     1
10    6     20    1
11    7     8     1
12    7     17    1
13    7     9     1
14    9     10    1
15    10    11    1
16    10    12    1
17    10    14    1
18    12    13    1
19    12    24    1
20    12    25    1
21    13    26    1
22    14    15    1
23    14    16    1
24    14    17    1
25    16    27    1
26    17    18    1
27    17    19    1
28    19    28    1
29    20    21    2
30    20    29    1
31    21    30    1
@<TRIPOS>SUBSTRUCTURE
1   ZINC000003830625 1     RESIDUE    1   A     ZIN   1
