@<TRIPOS>MOLECULE
ZINC000030691406
56    58    1     0     0
SMALL
USER_CHARGES
@<TRIPOS>ATOM
1      C1      0.8976    0.8178    0.3758 C.3      1 ZINC000030691406    0.0200
2      N2      0.8405   -0.6464    0.2713 N.3      1 ZINC000030691406   -0.5500
3      C3      1.6623   -1.2808    1.3106 C.3      1 ZINC000030691406    0.0200
4      C4     -0.5471   -1.1248    0.3324 C.3      1 ZINC000030691406    0.1300
5      C5     -0.5896   -2.5892   -0.0210 C.2      1 ZINC000030691406    0.0200
6      C6     -0.4819   -3.6113    0.8468 C.2      1 ZINC000030691406   -0.2100
7      C7     -0.5742   -4.8022    0.0904 C.2      1 ZINC000030691406   -0.1700
8      C8     -0.7328   -4.4366   -1.1943 C.2      1 ZINC000030691406   -0.0100
9      C9     -0.8772   -5.3735   -2.3659 C.3      1 ZINC000030691406   -0.0100
10     S10    -2.6325   -5.7496   -2.6265 S.3      1 ZINC000030691406   -0.2100
11     C11    -2.6023   -6.8701   -4.0527 C.3      1 ZINC000030691406   -0.1200
12     C12    -4.0319   -7.2864   -4.4046 C.3      1 ZINC000030691406    0.1400
13     N13    -4.0076   -8.1914   -5.5564 N.pl3    1 ZINC000030691406   -0.7200
14     C14    -5.1833   -8.7864   -5.9975 C.2      1 ZINC000030691406    0.5300
15     C15    -5.1470   -9.6842   -6.9791 C.2      1 ZINC000030691406   -0.2600
16     N16    -6.4087  -10.2173   -7.5419 N.pl3    1 ZINC000030691406    0.0600
17     O17    -7.4784   -9.7648   -7.1749 O.2      1 ZINC000030691406   -0.1800
18     O18    -6.3769  -11.1083   -8.3718 O.2      1 ZINC000030691406   -0.2100
19     N19    -6.3968   -8.4441   -5.4135 N.pl3    1 ZINC000030691406   -0.7800
20     C20    -6.9335   -9.2494   -4.3137 C.3      1 ZINC000030691406    0.2000
21     C21    -8.3019   -8.7407   -3.9399 C.ar     1 ZINC000030691406   -0.1000
22     C22    -8.4326   -7.7533   -2.9817 C.ar     1 ZINC000030691406   -0.0900
23     C23    -9.6862   -7.2833   -2.6354 C.ar     1 ZINC000030691406   -0.1100
24     C24   -10.8146   -7.8021   -3.2484 C.ar     1 ZINC000030691406    0.0400
25     O25   -12.1408   -7.5195   -3.0915 O.3      1 ZINC000030691406   -0.3100
26     C26   -12.7894   -8.0581   -4.2587 C.3      1 ZINC000030691406    0.2100
27     O27   -11.9266   -9.1379   -4.6620 O.3      1 ZINC000030691406   -0.3100
28     C28   -10.6829   -8.7973   -4.2142 C.ar     1 ZINC000030691406    0.0300
29     C29    -9.4238   -9.2589   -4.5605 C.ar     1 ZINC000030691406   -0.0600
30     O30    -0.7471   -3.0950   -1.2551 O.3      1 ZINC000030691406   -0.1600
31     H31     1.9362    1.1452    0.3277 H        1 ZINC000030691406    0.0700
32     H32     0.3379    1.2628   -0.4469 H        1 ZINC000030691406    0.0700
33     H33     0.4611    1.1317    1.3239 H        1 ZINC000030691406    0.0300
34     H34     1.2958   -0.9859    2.2939 H        1 ZINC000030691406    0.0300
35     H35     1.6021   -2.3645    1.2104 H        1 ZINC000030691406    0.0700
36     H36     2.6988   -0.9626    1.1988 H        1 ZINC000030691406    0.0700
37     H37    -0.9362   -0.9829    1.3407 H        1 ZINC000030691406    0.0700
38     H38    -1.1568   -0.5625   -0.3748 H        1 ZINC000030691406    0.1000
39     H39    -0.3497   -3.5366    1.9160 H        1 ZINC000030691406    0.1500
40     H40    -0.5263   -5.8118    0.4711 H        1 ZINC000030691406    0.1500
41     H41    -0.4699   -4.9022   -3.2603 H        1 ZINC000030691406    0.1000
42     H42    -0.3342   -6.2964   -2.1621 H        1 ZINC000030691406    0.1100
43     H43    -2.1519   -6.3614   -4.9050 H        1 ZINC000030691406    0.0900
44     H44    -2.0162   -7.7556   -3.8068 H        1 ZINC000030691406    0.0900
45     H45    -4.4824   -7.7952   -3.5523 H        1 ZINC000030691406    0.0800
46     H46    -4.6181   -6.4010   -4.6505 H        1 ZINC000030691406    0.0800
47     H47    -3.1707   -8.3752   -6.0112 H        1 ZINC000030691406    0.4100
48     H48    -4.1974  -10.0240   -7.3653 H        1 ZINC000030691406    0.1800
49     H49    -6.8885   -7.6719   -5.7341 H        1 ZINC000030691406    0.4200
50     H50    -7.0061  -10.2906   -4.6276 H        1 ZINC000030691406    0.0700
51     H51    -6.2704   -9.1751   -3.4518 H        1 ZINC000030691406    0.0600
52     H52    -7.5538   -7.3482   -2.5022 H        1 ZINC000030691406    0.1400
53     H53    -9.7853   -6.5116   -1.8864 H        1 ZINC000030691406    0.1400
54     H54   -13.7810   -8.4339   -4.0067 H        1 ZINC000030691406    0.1300
55     H55   -12.8525   -7.3046   -5.0438 H        1 ZINC000030691406    0.0900
56     H56    -9.3184  -10.0262   -5.3132 H        1 ZINC000030691406    0.1500
@<TRIPOS>BOND
1     1     2     1
2     1     31    1
3     1     32    1
4     1     33    1
5     2     3     1
6     2     4     1
7     3     34    1
8     3     35    1
9     3     36    1
10    4     5     1
11    4     37    1
12    4     38    1
13    5     30    1
14    5     6     2
15    6     7     1
16    6     39    1
17    7     8     2
18    7     40    1
19    8     9     1
20    8     30    1
21    9     10    1
22    9     41    1
23    9     42    1
24    10    11    1
25    11    12    1
26    11    43    1
27    11    44    1
28    12    13    1
29    12    45    1
30    12    46    1
31    13    14    1
32    13    47    1
33    14    15    2
34    14    19    1
35    15    16    1
36    15    48    1
37    16    17    2
38    16    18    2
39    19    20    1
40    19    49    1
41    20    21    1
42    20    50    1
43    20    51    1
44    21    29    ar
45    21    22    ar
46    22    23    ar
47    22    52    1
48    23    24    ar
49    23    53    1
50    24    28    ar
51    24    25    1
52    25    26    1
53    26    27    1
54    26    54    1
55    26    55    1
56    27    28    1
57    28    29    ar
58    29    56    1
@<TRIPOS>SUBSTRUCTURE
1   ZINC000030691406 1     RESIDUE    1   A     ZIN   1
