@<TRIPOS>MOLECULE
ZINC000034951380
  44   46    0    0    0
SMALL
USER_CHARGES
NO_NAME
@<TRIPOS>ATOM
    1 F1        0.0021    -0.0041     0.0020 F      1 <0>      -0.1100
    2 C2       -0.0162     1.3468     0.0094 C.ar   1 <0>       0.1100
    3 C3       -1.2233     2.0230     0.0304 C.ar   1 <0>      -0.1200
    4 C4       -1.2412     3.4054     0.0385 C.ar   1 <0>      -0.0700
    5 C5       -0.0543     4.1134     0.0256 C.ar   1 <0>      -0.1500
    6 C6       -0.0765     5.6202     0.0350 C.3    1 <0>       0.0500
    7 N7       -0.0639     6.1016     1.4228 N.4    1 <0>      -0.3900
    8 H8       -0.8301     5.6842     1.9295 H      1 <0>       0.4300
    9 C9       -0.2097     7.5621     1.4340 C.3    1 <0>       0.0000
   10 C10      -0.2785     8.0606     2.8790 C.3    1 <0>      -0.1600
   11 C11       1.0088     7.6690     3.6102 C.3    1 <0>       0.1400
   12 N12       0.9179     8.0763     5.0145 N.pl3  1 <0>      -0.7100
   13 C13       2.0763     8.3169     5.7450 C.ar   1 <0>       0.3600
   14 C14       3.3260     8.1771     5.1427 C.ar   1 <0>      -0.1800
   15 C15       4.4498     8.4285     5.9141 C.ar   1 <0>      -0.0300
   16 C16       4.2625     8.8035     7.2370 C.ar   1 <0>      -0.0700
   17 C17       5.4536     9.0879     8.1152 C.3    1 <0>       0.5300
   18 F18       5.7880    10.4432     8.0229 F      1 <0>      -0.1600
   19 F19       5.1401     8.7742     9.4421 F      1 <0>      -0.1600
   20 F20       6.5384     8.3103     7.6960 F      1 <0>      -0.1700
   21 N21       3.0429     8.9114     7.7254 N.ar   1 <0>      -0.1400
   22 N22       1.9977     8.6855     7.0155 N.ar   1 <0>      -0.2800
   23 C23       1.1891     6.1504     3.5281 C.3    1 <0>      -0.1700
   24 C24       1.2042     5.7242     2.0584 C.3    1 <0>      -0.0100
   25 C25       1.1535     3.4408     0.0047 C.ar   1 <0>      -0.1100
   26 C26       1.1749     2.0573     0.0019 C.ar   1 <0>       0.0800
   27 F27       2.3546     1.3992    -0.0186 F      1 <0>      -0.1100
   28 H28      -2.1514     1.4708     0.0401 H      1 <0>       0.1600
   29 H29      -2.1836     3.9326     0.0544 H      1 <0>       0.1500
   30 H30       0.8005     5.9998    -0.4893 H      1 <0>       0.1400
   31 H31      -0.9791     5.9734    -0.4638 H      1 <0>       0.1500
   32 H32       0.6458     8.0160     0.9338 H      1 <0>       0.1400
   33 H33      -1.1247     7.8394     0.9105 H      1 <0>       0.1400
   34 H34      -0.3850     9.1453     2.8852 H      1 <0>       0.1300
   35 H35      -1.1340     7.6074     3.3800 H      1 <0>       0.1000
   36 H36       1.8592     8.1640     3.1414 H      1 <0>       0.1000
   37 H37       0.0496     8.1781     5.4347 H      1 <0>       0.4200
   38 H38       3.4156     7.8818     4.1077 H      1 <0>       0.1600
   39 H39       5.4420     8.3349     5.4979 H      1 <0>       0.1700
   40 H40       2.1316     5.8698     3.9982 H      1 <0>       0.1200
   41 H41       0.3641     5.6576     4.0426 H      1 <0>       0.1000
   42 H42       1.3326     4.6437     1.9953 H      1 <0>       0.1400
   43 H43       2.0299     6.2179     1.5459 H      1 <0>       0.1400
   44 H44       2.0802     3.9952    -0.0053 H      1 <0>       0.1600
@<TRIPOS>BOND
   1    1    2 1
   2    2   26 ar
   3    2    3 ar
   4    3    4 ar
   5    3   28 1
   6    4    5 ar
   7    4   29 1
   8    5    6 1
   9    5   25 ar
  10    6    7 1
  11    6   30 1
  12    6   31 1
  13    7    8 1
  14    7   24 1
  15    7    9 1
  16    9   10 1
  17    9   32 1
  18    9   33 1
  19   10   11 1
  20   10   34 1
  21   10   35 1
  22   11   12 1
  23   11   23 1
  24   11   36 1
  25   12   13 1
  26   12   37 1
  27   13   22 ar
  28   13   14 ar
  29   14   15 ar
  30   14   38 1
  31   15   16 ar
  32   15   39 1
  33   16   17 1
  34   16   21 ar
  35   17   18 1
  36   17   19 1
  37   17   20 1
  38   21   22 ar
  39   23   24 1
  40   23   40 1
  41   23   41 1
  42   24   42 1
  43   24   43 1
  44   25   26 ar
  45   25   44 1
  46   26   27 1
