@<TRIPOS>MOLECULE
ZINC000256000206
37    39    1     0     0
SMALL
USER_CHARGES
@<TRIPOS>ATOM
1      C1     -0.7414    0.0089   -1.9308 C.2      1 ZINC000256000206   -0.2400
2      C2     -0.8789   -1.3029   -1.7227 C.2      1 ZINC000256000206   -0.0500
3      C3     -2.1683   -1.8442   -1.2983 C.2      1 ZINC000256000206   -0.2100
4      C4     -2.2530   -3.1887   -1.2172 C.2      1 ZINC000256000206    0.1700
5      C5     -1.1186   -4.0202   -1.6228 C.2      1 ZINC000256000206    0.5400
6      O6     -0.3181   -4.4153   -0.7842 O.co2    1 ZINC000256000206   -0.6600
7      O7     -0.9699   -4.3209   -2.8008 O.co2    1 ZINC000256000206   -0.6700
8      N8     -3.4263   -3.7867   -0.7445 N.am     1 ZINC000256000206   -0.5500
9      C9     -3.8888   -4.8836   -0.1573 C.2      1 ZINC000256000206    0.5200
10     O10    -3.4364   -6.0045   -0.0552 O.2      1 ZINC000256000206   -0.4700
11     C11    -5.1713   -4.2591    0.3403 C.3      1 ZINC000256000206    0.1500
12     H12    -6.0743   -4.8039    0.0649 H        1 ZINC000256000206    0.1500
13     N13    -5.1415   -3.8546    1.7480 N.am     1 ZINC000256000206   -0.7000
14     C14    -5.7832   -4.5930    2.6751 C.2      1 ZINC000256000206    0.5900
15     O15    -6.3863   -5.5943    2.3434 O.2      1 ZINC000256000206   -0.5300
16     C16    -5.7530   -4.1838    4.0991 C.2      1 ZINC000256000206   -0.0500
17     N17    -5.1063   -3.1102    4.4548 N.2      1 ZINC000256000206   -0.2500
18     O18    -4.9721   -2.7865    5.8267 O.3      1 ZINC000256000206   -0.5400
19     C19    -6.4570   -4.9940    5.1162 C.2      1 ZINC000256000206    0.1400
20     C20    -6.5593   -4.6076    6.4031 C.2      1 ZINC000256000206   -0.2300
21     S21    -7.4646   -5.8391    7.2795 S.3      1 ZINC000256000206   -0.0700
22     C22    -7.6246   -6.7802    5.8001 C.2      1 ZINC000256000206    0.3200
23     N23    -8.2781   -7.9964    5.6936 N.pl3    1 ZINC000256000206   -0.8300
24     N24    -7.0410   -6.1568    4.8248 N.2      1 ZINC000256000206   -0.4900
25     C25    -4.7752   -3.1659   -0.6365 C.3      1 ZINC000256000206    0.1100
26     H26    -5.3495   -3.1581   -1.5629 H        1 ZINC000256000206    0.1400
27     S27    -4.5427   -1.5110    0.0940 S.3      1 ZINC000256000206   -0.2300
28     C28    -3.2375   -0.8447   -0.9990 C.3      1 ZINC000256000206   -0.0100
29     H29     0.2114    0.4090   -2.2444 H        1 ZINC000256000206    0.0900
30     H30    -1.5843    0.6693   -1.7898 H        1 ZINC000256000206    0.0900
31     H31    -0.0373   -1.9638   -1.8680 H        1 ZINC000256000206    0.1200
32     H32    -4.6600   -3.0552    2.0129 H        1 ZINC000256000206    0.4200
33     H33    -6.1553   -3.6992    6.8250 H        1 ZINC000256000206    0.2200
34     H34    -8.6932   -8.3940    6.4749 H        1 ZINC000256000206    0.4000
35     H35    -8.3208   -8.4507    4.8376 H        1 ZINC000256000206    0.4100
36     H36    -2.7957    0.0334   -0.5279 H        1 ZINC000256000206    0.1200
37     H37    -3.6871   -0.5473   -1.9464 H        1 ZINC000256000206    0.0900
@<TRIPOS>BOND
1     1     2     2
2     1     29    1
3     1     30    1
4     2     3     1
5     2     31    1
6     3     28    1
7     3     4     2
8     4     5     1
9     4     8     1
10    5     6     ar
11    5     7     ar
12    8     25    1
13    8     9     am
14    9     10    2
15    9     11    1
16    11    12    1
17    11    13    1
18    11    25    1
19    13    14    am
20    13    32    1
21    14    15    2
22    14    16    1
23    16    17    2
24    16    19    1
25    17    18    1
26    19    24    1
27    19    20    2
28    20    21    1
29    20    33    1
30    21    22    1
31    22    23    1
32    22    24    2
33    23    34    1
34    23    35    1
35    25    26    1
36    25    27    1
37    27    28    1
38    28    36    1
39    28    37    1
@<TRIPOS>SUBSTRUCTURE
1   ZINC000256000206 1     RESIDUE    1   A     ZIN   1
