@<TRIPOS>MOLECULE
ZINC000003964740
85    89    1     0     0
SMALL
USER_CHARGES
@<TRIPOS>ATOM
1      C1     -1.8500    0.1685    0.2636 C.3      1 ZINC000003964740   -0.1900
2      C2     -1.6956   -1.3155    0.6024 C.3      1 ZINC000003964740   -0.0200
3      N3     -2.9918   -1.8572    1.0319 N.4      1 ZINC000003964740   -0.3900
4      H4     -3.3443   -1.3129    1.8049 H        1 ZINC000003964740    0.4200
5      C5     -3.9433   -1.7942   -0.0856 C.3      1 ZINC000003964740   -0.0200
6      C6     -5.3241   -2.2458    0.3943 C.3      1 ZINC000003964740   -0.1900
7      C7     -2.8233   -3.2543    1.4534 C.3      1 ZINC000003964740    0.0500
8      C8     -1.9441   -3.3075    2.6762 C.ar     1 ZINC000003964740   -0.1600
9      C9     -0.5738   -3.4206    2.5358 C.ar     1 ZINC000003964740   -0.0900
10     C10     0.2372   -3.4703    3.6547 C.ar     1 ZINC000003964740   -0.1800
11     C11    -0.3234   -3.4062    4.9198 C.ar     1 ZINC000003964740    0.1400
12     O12     0.4728   -3.4545    6.0213 O.3      1 ZINC000003964740   -0.2900
13     C13     1.8797   -3.5717    5.8001 C.3      1 ZINC000003964740    0.0500
14     C14     2.6060   -3.6108    7.1462 C.3      1 ZINC000003964740   -0.1100
15     C15     4.1124   -3.7363    6.9094 C.3      1 ZINC000003964740   -0.0700
16     H16     4.3239   -4.5961    6.2737 H        1 ZINC000003964740    0.0800
17     C17     4.6638   -2.4413    6.2619 C.3      1 ZINC000003964740   -0.1200
18     C18     5.7723   -1.9138    7.2135 C.3      1 ZINC000003964740   -0.1200
19     C19     6.2123   -3.1768    7.9615 C.3      1 ZINC000003964740   -0.0800
20     H20     6.8348   -3.8020    7.3214 H        1 ZINC000003964740    0.0800
21     C21     6.8840   -2.9569    9.3013 C.3      1 ZINC000003964740   -0.0700
22     H22     6.2141   -2.4081    9.9633 H        1 ZINC000003964740    0.0800
23     C23     8.2039   -2.1994    9.1592 C.3      1 ZINC000003964740   -0.0800
24     H24     8.0421   -1.2816    8.5938 H        1 ZINC000003964740    0.0800
25     C25     9.2276   -3.0772    8.4363 C.3      1 ZINC000003964740   -0.1500
26     C26     8.7127   -1.8592   10.5596 C.3      1 ZINC000003964740   -0.0800
27     C27     8.6824   -3.0662   11.4599 C.ar     1 ZINC000003964740   -0.0500
28     C28     9.4051   -3.0043   12.6435 C.ar     1 ZINC000003964740   -0.1500
29     C29     9.4143   -4.0753   13.5206 C.ar     1 ZINC000003964740    0.1000
30     O30    10.1266   -4.0054   14.6759 O.3      1 ZINC000003964740   -0.5000
31     C31     8.6936   -5.2204   13.2147 C.ar     1 ZINC000003964740   -0.1500
32     C32     7.9783   -5.2822   12.0374 C.ar     1 ZINC000003964740   -0.1000
33     C33     7.9730   -4.2100   11.1556 C.ar     1 ZINC000003964740   -0.0800
34     C34     7.1728   -4.3440    9.8899 C.3      1 ZINC000003964740   -0.0400
35     H35     7.7812   -4.8828    9.1636 H        1 ZINC000003964740    0.0800
36     C36     5.8926   -5.1372   10.1106 C.3      1 ZINC000003964740   -0.1100
37     C37     5.0934   -5.2539    8.7985 C.3      1 ZINC000003964740   -0.1000
38     C38     4.8468   -3.8687    8.2386 C.3      1 ZINC000003964740   -0.0600
39     C39     4.1576   -3.0028    9.2950 C.3      1 ZINC000003964740   -0.1600
40     C40    -1.7034   -3.2919    5.0612 C.ar     1 ZINC000003964740    0.1100
41     O41    -2.2585   -3.2282    6.3011 O.3      1 ZINC000003964740   -0.3000
42     C42    -3.6810   -3.1114    6.3698 C.3      1 ZINC000003964740    0.0200
43     C43    -2.5097   -3.2374    3.9361 C.ar     1 ZINC000003964740   -0.1500
44     H44    -0.8701    0.5971    0.0537 H        1 ZINC000003964740    0.1000
45     H45    -2.4891    0.2765   -0.6128 H        1 ZINC000003964740    0.0800
46     H46    -2.3009    0.6891    1.1084 H        1 ZINC000003964740    0.0800
47     H47    -1.3503   -1.8555   -0.2792 H        1 ZINC000003964740    0.1300
48     H48    -0.9691   -1.4309    1.4068 H        1 ZINC000003964740    0.1300
49     H49    -4.0037   -0.7702   -0.4541 H        1 ZINC000003964740    0.1300
50     H50    -3.6052   -2.4498   -0.8881 H        1 ZINC000003964740    0.1300
51     H51    -5.6136   -1.6628    1.2686 H        1 ZINC000003964740    0.0800
52     H52    -6.0531   -2.0934   -0.4016 H        1 ZINC000003964740    0.1100
53     H53    -5.2895   -3.3029    0.6577 H        1 ZINC000003964740    0.0800
54     H54    -3.7976   -3.6832    1.6875 H        1 ZINC000003964740    0.1400
55     H55    -2.3598   -3.8235    0.6476 H        1 ZINC000003964740    0.1400
56     H56    -0.1355   -3.4706    1.5500 H        1 ZINC000003964740    0.1400
57     H57     1.3076   -3.5594    3.5423 H        1 ZINC000003964740    0.1500
58     H58     2.0857   -4.4895    5.2494 H        1 ZINC000003964740    0.0700
59     H59     2.2294   -2.7156    5.2233 H        1 ZINC000003964740    0.0700
60     H60     2.4001   -2.6930    7.6969 H        1 ZINC000003964740    0.0800
61     H61     2.2563   -4.4669    7.7230 H        1 ZINC000003964740    0.0800
62     H62     5.0864   -2.6635    5.2821 H        1 ZINC000003964740    0.0600
63     H63     3.8684   -1.7020    6.1679 H        1 ZINC000003964740    0.0600
64     H64     6.6017   -1.4942    6.6442 H        1 ZINC000003964740    0.0700
65     H65     5.3669   -1.1767    7.9066 H        1 ZINC000003964740    0.0700
66     H66     8.8507   -3.3349    7.4465 H        1 ZINC000003964740    0.0600
67     H67    10.1670   -2.5333    8.3371 H        1 ZINC000003964740    0.0500
68     H68     9.3943   -3.9887    9.0102 H        1 ZINC000003964740    0.0600
69     H69     9.7367   -1.4927   10.4882 H        1 ZINC000003964740    0.0800
70     H70     8.0842   -1.0785   10.9879 H        1 ZINC000003964740    0.0800
71     H71     9.9656   -2.1125   12.8821 H        1 ZINC000003964740    0.1300
72     H72     9.6275   -3.6517   15.4248 H        1 ZINC000003964740    0.3900
73     H73     8.6923   -6.0590   13.8952 H        1 ZINC000003964740    0.1300
74     H74     7.4167   -6.1733   11.7990 H        1 ZINC000003964740    0.1300
75     H75     6.1456   -6.1356   10.4672 H        1 ZINC000003964740    0.0700
76     H76     5.2820   -4.6328   10.8595 H        1 ZINC000003964740    0.0700
77     H77     5.6765   -5.8015    8.0581 H        1 ZINC000003964740    0.0600
78     H78     4.1518   -5.7706    8.9842 H        1 ZINC000003964740    0.0700
79     H79     4.7300   -3.0361   10.2220 H        1 ZINC000003964740    0.0700
80     H80     4.1000   -1.9738    8.9403 H        1 ZINC000003964740    0.0600
81     H81     3.1516   -3.3817    9.4754 H        1 ZINC000003964740    0.0500
82     H82    -3.9959   -2.2005    5.8609 H        1 ZINC000003964740    0.0600
83     H83    -4.1401   -3.9744    5.8874 H        1 ZINC000003964740    0.0600
84     H84    -3.9922   -3.0705    7.4137 H        1 ZINC000003964740    0.1100
85     H85    -3.5807   -3.1487    4.0431 H        1 ZINC000003964740    0.1400
@<TRIPOS>BOND
1     1     2     1
2     1     44    1
3     1     45    1
4     1     46    1
5     2     3     1
6     2     47    1
7     2     48    1
8     3     4     1
9     3     5     1
10    3     7     1
11    5     6     1
12    5     49    1
13    5     50    1
14    6     51    1
15    6     52    1
16    6     53    1
17    7     8     1
18    7     54    1
19    7     55    1
20    8     43    ar
21    8     9     ar
22    9     10    ar
23    9     56    1
24    10    11    ar
25    10    57    1
26    11    12    1
27    11    40    ar
28    12    13    1
29    13    14    1
30    13    58    1
31    13    59    1
32    14    15    1
33    14    60    1
34    14    61    1
35    15    16    1
36    15    38    1
37    15    17    1
38    17    18    1
39    17    62    1
40    17    63    1
41    18    19    1
42    18    64    1
43    18    65    1
44    19    20    1
45    19    38    1
46    19    21    1
47    21    22    1
48    21    34    1
49    21    23    1
50    23    24    1
51    23    25    1
52    23    26    1
53    25    66    1
54    25    67    1
55    25    68    1
56    26    27    1
57    26    69    1
58    26    70    1
59    27    33    ar
60    27    28    ar
61    28    29    ar
62    28    71    1
63    29    30    1
64    29    31    ar
65    30    72    1
66    31    32    ar
67    31    73    1
68    32    33    ar
69    32    74    1
70    33    34    1
71    34    35    1
72    34    36    1
73    36    37    1
74    36    75    1
75    36    76    1
76    37    38    1
77    37    77    1
78    37    78    1
79    38    39    1
80    39    79    1
81    39    80    1
82    39    81    1
83    40    41    1
84    40    43    ar
85    41    42    1
86    42    82    1
87    42    83    1
88    42    84    1
89    43    85    1
@<TRIPOS>SUBSTRUCTURE
1   ZINC000003964740 1     RESIDUE    1   A     ZIN   1
