@<TRIPOS>MOLECULE
ZINC000001846076
  39   41    0    0    0
SMALL
NO_CHARGES


@<TRIPOS>ATOM
   1 C1            -0.0178     1.4648     0.0101 C.3     
   2 N2             0.0021    -0.0041     0.0020 N.4     
   3 H3            -0.9525    -0.3309     0.0094 H       
   4 C4             0.6145    -0.4371    -1.2178 C.3     
   5 C5             0.1749    -1.7865    -1.7254 C.3     
   6 C6             0.8715    -2.9229    -0.9979 C.3     
   7 C7             0.4043    -4.2505    -1.5980 C.3     
   8 C8             0.4709    -2.9018     0.4750 C.3     
   9 C9             1.2124    -1.8270     1.2212 C.3     
  10 H10            1.0210    -2.1213     2.2532 H       
  11 C11            2.7091    -1.9463     1.1655 C.3     
  12 C12            3.2010    -2.3281    -0.2051 C.ar    
  13 C13            4.5580    -2.1878    -0.4669 C.ar    
  14 C14            5.0764    -2.5397    -1.6951 C.ar    
  15 C15            4.2343    -3.0415    -2.6767 C.ar    
  16 O16            4.7358    -3.4031    -3.8869 O.3     
  17 C17            2.8810    -3.1724    -2.4175 C.ar    
  18 C18            2.3586    -2.8047    -1.1836 C.ar    
  19 C19            0.6449    -0.4552     1.2189 C.3     
  20 H20            1.0047     1.8421     0.0024 H       
  21 H21           -0.5450     1.8259    -0.8730 H       
  22 H22           -0.5280     1.8163     0.9069 H       
  23 H23            0.4010     0.3036    -1.9885 H       
  24 H24            1.6937    -0.4642    -1.0671 H       
  25 H25           -0.9018    -1.8839    -1.5863 H       
  26 H26            0.4008    -1.8557    -2.7895 H       
  27 H27            0.6578    -4.2795    -2.6577 H       
  28 H28            0.8977    -5.0753    -1.0837 H       
  29 H29           -0.6754    -4.3427    -1.4800 H       
  30 H30           -0.6005    -2.7166     0.5517 H       
  31 H31            0.6986    -3.8696     0.9216 H       
  32 H32            3.1505    -0.9899     1.4457 H       
  33 H33            3.0300    -2.7044     1.8800 H       
  34 H34            5.2131    -1.7991     0.2987 H       
  35 H35            6.1322    -2.4257    -1.8917 H       
  36 H36            5.0176    -4.3269    -3.9358 H       
  37 H37            2.2251    -3.5633    -3.1813 H       
  38 H38            1.4499     0.2408     1.4547 H       
  39 H39           -0.0902    -0.3954     2.0216 H       
@<TRIPOS>BOND
   1    1    2 1
   2    1   20 1
   3    1   21 1
   4    1   22 1
   5    2    3 1
   6    2   19 1
   7    2    4 1
   8    4    5 1
   9    4   23 1
  10    4   24 1
  11    5    6 1
  12    5   25 1
  13    5   26 1
  14    6   18 1
  15    6    7 1
  16    6    8 1
  17    7   27 1
  18    7   28 1
  19    7   29 1
  20    8    9 1
  21    8   30 1
  22    8   31 1
  23    9   10 1
  24    9   11 1
  25    9   19 1
  26   11   12 1
  27   11   32 1
  28   11   33 1
  29   12   18 ar
  30   12   13 ar
  31   13   14 ar
  32   13   34 1
  33   14   15 ar
  34   14   35 1
  35   15   16 1
  36   15   17 ar
  37   16   36 1
  38   17   18 ar
  39   17   37 1
  40   19   38 1
  41   19   39 1


