@<TRIPOS>MOLECULE
ZINC000250915642
81    85    1     0     0
SMALL
USER_CHARGES
@<TRIPOS>ATOM
1      C1      0.3047    2.5226    0.7369 C.3      1 ZINC000250915642   -0.1300
2      C2      0.5407    1.0393    0.8354 C.ar     1 ZINC000250915642   -0.0300
3      C3      1.2963    0.3788   -0.1094 C.ar     1 ZINC000250915642   -0.1000
4      C4      1.4319   -0.9966   -0.0593 C.ar     1 ZINC000250915642   -0.0700
5      C5      2.3697   -1.6059   -1.0747 C.3      1 ZINC000250915642   -0.1400
6      C6      0.7856   -1.7517    0.9196 C.ar     1 ZINC000250915642   -0.0200
7      C7      0.2474   -1.0566    1.9778 C.ar     1 ZINC000250915642   -0.0600
8      C8      0.0572    0.3198    1.9053 C.ar     1 ZINC000250915642   -0.0800
9      C9      0.0005   -1.6423    3.3403 C.3      1 ZINC000250915642    0.2000
10     H10     0.1677   -0.8110    4.0646 H        1 ZINC000250915642    0.0900
11     N11    -1.3691   -2.0823    3.5288 N.pl3    1 ZINC000250915642   -0.5700
12     C12    -1.6443   -3.4518    3.9703 C.3      1 ZINC000250915642    0.1200
13     C13    -1.2048   -3.6159    5.4024 C.ar     1 ZINC000250915642   -0.1100
14     C14    -0.0022   -4.2341    5.6898 C.ar     1 ZINC000250915642   -0.0600
15     C15     0.4009   -4.3846    7.0035 C.ar     1 ZINC000250915642   -0.1800
16     C16     1.7117   -5.0590    7.3168 C.3      1 ZINC000250915642    0.5100
17     F17     2.7305   -4.1012    7.3592 F        1 ZINC000250915642   -0.1700
18     F18     1.6218   -5.6994    8.5574 F        1 ZINC000250915642   -0.1700
19     F19     1.9996   -6.0024    6.3248 F        1 ZINC000250915642   -0.1700
20     C20    -0.3980   -3.9161    8.0297 C.ar     1 ZINC000250915642   -0.0100
21     C21    -1.6003   -3.2975    7.7422 C.ar     1 ZINC000250915642   -0.1800
22     C22    -2.4715   -2.7872    8.8610 C.3      1 ZINC000250915642    0.5100
23     F23    -1.8567   -3.0529   10.0892 F        1 ZINC000250915642   -0.1700
24     F24    -2.6523   -1.4072    8.7189 F        1 ZINC000250915642   -0.1700
25     F25    -3.7144   -3.4276    8.8134 F        1 ZINC000250915642   -0.1700
26     C26    -2.0015   -3.1431    6.4284 C.ar     1 ZINC000250915642   -0.0100
27     C27    -2.4249   -1.2004    3.2896 C.2      1 ZINC000250915642    0.4300
28     N28    -3.7082   -1.4932    3.3282 N.2      1 ZINC000250915642   -0.3300
29     N29    -4.3851   -0.3008    3.0234 N.pl3    1 ZINC000250915642   -0.1600
30     C30    -5.8367   -0.1195    2.9438 C.3      1 ZINC000250915642    0.1100
31     N31    -3.4877    0.6041    2.8275 N.2      1 ZINC000250915642    0.0200
32     N32    -2.3182    0.0940    2.9858 N.2      1 ZINC000250915642   -0.3500
33     C33     1.0298   -2.7133    3.6710 C.3      1 ZINC000250915642   -0.1400
34     C34     0.6358   -4.0375    3.0574 C.3      1 ZINC000250915642   -0.2000
35     C35    -0.0618   -3.8833    1.7191 C.3      1 ZINC000250915642   -0.0400
36     N36     0.7321   -3.1361    0.7416 N.4      1 ZINC000250915642   -0.3000
37     H37     1.6555   -3.5256    0.7016 H        1 ZINC000250915642    0.4200
38     C38     0.0403   -3.4230   -0.5432 C.3      1 ZINC000250915642   -0.0200
39     C39    -1.4436   -3.0741   -0.4125 C.3      1 ZINC000250915642   -0.1000
40     H40    -1.8585   -3.5734    0.4631 H        1 ZINC000250915642    0.0900
41     C41    -1.5998   -1.5600   -0.2579 C.3      1 ZINC000250915642   -0.1500
42     C42    -3.0838   -1.2111   -0.1272 C.3      1 ZINC000250915642   -0.0800
43     C43    -3.8291   -1.6754   -1.3801 C.3      1 ZINC000250915642   -0.1600
44     H44    -3.4143   -1.1761   -2.2557 H        1 ZINC000250915642    0.0600
45     C45    -5.2908   -1.3317   -1.2513 C.2      1 ZINC000250915642    0.5000
46     O46    -5.9069   -0.9166   -2.2180 O.co2    1 ZINC000250915642   -0.7000
47     O47    -5.8572   -1.4688   -0.1804 O.co2    1 ZINC000250915642   -0.7000
48     C48    -3.6730   -3.1896   -1.5346 C.3      1 ZINC000250915642   -0.0900
49     C49    -2.1890   -3.5385   -1.6653 C.3      1 ZINC000250915642   -0.1100
50     H50     1.1220    3.0537    1.2247 H        1 ZINC000250915642    0.0800
51     H51     0.2569    2.8140   -0.3123 H        1 ZINC000250915642    0.0800
52     H52    -0.6358    2.7742    1.2271 H        1 ZINC000250915642    0.0800
53     H53     1.7881    0.9334   -0.8964 H        1 ZINC000250915642    0.1400
54     H54     3.3924   -1.5552   -0.7011 H        1 ZINC000250915642    0.0900
55     H55     2.0957   -2.6473   -1.2433 H        1 ZINC000250915642    0.0600
56     H56     2.2977   -1.0548   -2.0123 H        1 ZINC000250915642    0.0900
57     H57    -0.4762    0.8253    2.6970 H        1 ZINC000250915642    0.1700
58     H58    -2.7133   -3.6505    3.8932 H        1 ZINC000250915642    0.1200
59     H59    -1.0980   -4.1534    3.3399 H        1 ZINC000250915642    0.1200
60     H60     0.6221   -4.5998    4.8881 H        1 ZINC000250915642    0.1700
61     H61    -0.0830   -4.0337    9.0560 H        1 ZINC000250915642    0.1600
62     H62    -2.9408   -2.6598    6.2038 H        1 ZINC000250915642    0.1500
63     H63    -6.2213    0.1667    3.9227 H        1 ZINC000250915642    0.0900
64     H64    -6.0659    0.6630    2.2204 H        1 ZINC000250915642    0.1100
65     H65    -6.3028   -1.0531    2.6290 H        1 ZINC000250915642    0.1200
66     H66     2.0127   -2.4092    3.2904 H        1 ZINC000250915642    0.1000
67     H67     1.1110   -2.8214    4.7596 H        1 ZINC000250915642    0.1100
68     H68     1.5369   -4.6541    2.9301 H        1 ZINC000250915642    0.1000
69     H69    -0.0220   -4.5752    3.7540 H        1 ZINC000250915642    0.1500
70     H70    -0.2094   -4.9011    1.2963 H        1 ZINC000250915642    0.1400
71     H71    -1.0555   -3.4605    1.7970 H        1 ZINC000250915642    0.1500
72     H72     0.4858   -2.8240   -1.3374 H        1 ZINC000250915642    0.1400
73     H73     0.1450   -4.4810   -0.7838 H        1 ZINC000250915642    0.1300
74     H74    -1.0688   -1.2292    0.6346 H        1 ZINC000250915642    0.0900
75     H75    -1.1849   -1.0607   -1.1335 H        1 ZINC000250915642    0.0600
76     H76    -3.4986   -1.7104    0.7484 H        1 ZINC000250915642    0.0600
77     H77    -3.1950   -0.1324   -0.0171 H        1 ZINC000250915642    0.0500
78     H78    -4.0878   -3.6889   -0.6590 H        1 ZINC000250915642    0.0600
79     H79    -4.2040   -3.5204   -2.4272 H        1 ZINC000250915642    0.0600
80     H80    -1.7741   -3.0392   -2.5409 H        1 ZINC000250915642    0.0700
81     H81    -2.0777   -4.6172   -1.7755 H        1 ZINC000250915642    0.0600
@<TRIPOS>BOND
1     1     2     1
2     1     50    1
3     1     51    1
4     1     52    1
5     2     8     ar
6     2     3     ar
7     3     4     ar
8     3     53    1
9     4     5     1
10    4     6     ar
11    5     54    1
12    5     55    1
13    5     56    1
14    6     36    1
15    6     7     ar
16    7     8     ar
17    7     9     1
18    8     57    1
19    9     10    1
20    9     11    1
21    9     33    1
22    11    12    1
23    11    27    1
24    12    13    1
25    12    58    1
26    12    59    1
27    13    26    ar
28    13    14    ar
29    14    15    ar
30    14    60    1
31    15    16    1
32    15    20    ar
33    16    17    1
34    16    18    1
35    16    19    1
36    20    21    ar
37    20    61    1
38    21    22    1
39    21    26    ar
40    22    23    1
41    22    24    1
42    22    25    1
43    26    62    1
44    27    32    1
45    27    28    2
46    28    29    1
47    29    30    1
48    29    31    1
49    30    63    1
50    30    64    1
51    30    65    1
52    31    32    2
53    33    34    1
54    33    66    1
55    33    67    1
56    34    35    1
57    34    68    1
58    34    69    1
59    35    36    1
60    35    70    1
61    35    71    1
62    36    37    1
63    36    38    1
64    38    39    1
65    38    72    1
66    38    73    1
67    39    40    1
68    39    49    1
69    39    41    1
70    41    42    1
71    41    74    1
72    41    75    1
73    42    43    1
74    42    76    1
75    42    77    1
76    43    44    1
77    43    45    1
78    43    48    1
79    45    46    ar
80    45    47    ar
81    48    49    1
82    48    78    1
83    48    79    1
84    49    80    1
85    49    81    1
@<TRIPOS>SUBSTRUCTURE
1   ZINC000250915642 1     RESIDUE    1   A     ZIN   1
