@<TRIPOS>MOLECULE
ZINC000029246385
59    61    1     0     0
SMALL
USER_CHARGES
@<TRIPOS>ATOM
1      C1      0.0581    1.2715    0.3621 C.3      1 ZINC000029246385   -0.1600
2      C2      0.0741   -0.2352    0.0963 C.3      1 ZINC000029246385   -0.1300
3      H3      0.7188   -0.7259    0.8254 H        1 ZINC000029246385    0.1200
4      C4     -1.3468   -0.7895    0.2172 C.3      1 ZINC000029246385    0.0200
5      H5     -1.3354   -1.8628    0.0279 H        1 ZINC000029246385    0.1600
6      N6     -2.2157   -0.1281   -0.7654 N.4      1 ZINC000029246385   -0.6200
7      H7     -2.2262    0.8655   -0.5902 H        1 ZINC000029246385    0.4400
8      H8     -1.8649   -0.3019   -1.6954 H        1 ZINC000029246385    0.4400
9      H9     -3.1528   -0.4936   -0.6857 H        1 ZINC000029246385    0.4300
10     C10    -1.8708   -0.5299    1.6062 C.2      1 ZINC000029246385    0.5000
11     O11    -2.6201    0.4023    1.8072 O.2      1 ZINC000029246385   -0.5300
12     N12    -1.5066   -1.3337    2.6249 N.am     1 ZINC000029246385   -0.6600
13     C13    -2.0160   -1.0813    3.9751 C.3      1 ZINC000029246385    0.0800
14     H14    -3.0366   -0.7037    3.9138 H        1 ZINC000029246385    0.1100
15     C15    -1.1430   -0.0607    4.6587 C.2      1 ZINC000029246385    0.5000
16     O16    -1.6201    0.6875    5.4948 O.co2    1 ZINC000029246385   -0.6800
17     O17     0.0404    0.0167    4.3758 O.co2    1 ZINC000029246385   -0.6600
18     C18    -2.0016   -2.3840    4.7774 C.3      1 ZINC000029246385    0.1000
19     H19    -2.5465   -3.1632    4.2443 H        1 ZINC000029246385    0.0900
20     O20    -0.6430   -2.8038    5.0302 O.3      1 ZINC000029246385   -0.3400
21     C21    -0.7256   -3.7000    6.1598 C.3      1 ZINC000029246385    0.3000
22     H22    -1.0754   -4.6817    5.8404 H        1 ZINC000029246385    0.1400
23     N23     0.5786   -3.8134    6.8173 N.am     1 ZINC000029246385   -0.5200
24     C24     1.2336   -2.6826    7.2230 C.2      1 ZINC000029246385    0.1900
25     C25     2.4355   -2.7873    7.8294 C.2      1 ZINC000029246385   -0.3000
26     C26     2.9946   -4.0718    8.0334 C.2      1 ZINC000029246385    0.5500
27     O27     4.0771   -4.1915    8.5784 O.2      1 ZINC000029246385   -0.5200
28     N28     2.3173   -5.1616    7.6189 N.am     1 ZINC000029246385   -0.6600
29     C29     1.1185   -5.0287    7.0216 C.2      1 ZINC000029246385    0.7100
30     O30     0.5190   -6.0204    6.6534 O.2      1 ZINC000029246385   -0.5400
31     C31    -1.7539   -3.0453    7.1087 C.3      1 ZINC000029246385    0.0300
32     H32    -1.2484   -2.4352    7.8572 H        1 ZINC000029246385    0.0900
33     O33    -2.5598   -4.0430    7.7389 O.3      1 ZINC000029246385   -0.5400
34     C34    -2.6153   -2.1603    6.1773 C.3      1 ZINC000029246385    0.0400
35     H35    -2.5351   -1.1120    6.4649 H        1 ZINC000029246385    0.1200
36     O36    -3.9800   -2.5832    6.2061 O.3      1 ZINC000029246385   -0.5400
37     C37     0.6061   -0.4987   -1.3138 C.3      1 ZINC000029246385    0.1900
38     H38     0.0226    0.0735   -2.0351 H        1 ZINC000029246385    0.0900
39     O39     0.4971   -1.8921   -1.6114 O.3      1 ZINC000029246385   -0.5700
40     C40     2.0516   -0.0799   -1.3918 C.ar     1 ZINC000029246385   -0.1000
41     C41     3.0162   -1.0161   -1.7134 C.ar     1 ZINC000029246385   -0.1000
42     C42     4.3433   -0.6234   -1.7837 C.ar     1 ZINC000029246385   -0.2400
43     C43     4.6533    0.7078   -1.5256 C.ar     1 ZINC000029246385    0.2400
44     O44     5.9408    1.1393   -1.5830 O.3      1 ZINC000029246385   -0.7100
45     C45     3.6293    1.5889   -1.2091 C.ar     1 ZINC000029246385   -0.0500
46     N46     2.3786    1.1760   -1.1576 N.ar     1 ZINC000029246385   -0.4300
47     H47     1.0819    1.6416    0.4169 H        1 ZINC000029246385    0.1100
48     H48    -0.4683    1.7776   -0.4471 H        1 ZINC000029246385    0.0500
49     H49    -0.4506    1.4686    1.3057 H        1 ZINC000029246385    0.0700
50     H50    -0.9073   -2.0792    2.4641 H        1 ZINC000029246385    0.4100
51     H51     0.7916   -1.7110    7.0586 H        1 ZINC000029246385    0.1900
52     H52     2.9633   -1.9028    8.1543 H        1 ZINC000029246385    0.1800
53     H53     2.6939   -6.0451    7.7551 H        1 ZINC000029246385    0.4300
54     H54    -3.2230   -3.6871    8.3460 H        1 ZINC000029246385    0.3800
55     H55    -4.3935   -2.5184    7.0778 H        1 ZINC000029246385    0.3800
56     H56     0.9924   -2.4630   -1.0082 H        1 ZINC000029246385    0.3900
57     H57     2.7389   -2.0417   -1.9073 H        1 ZINC000029246385    0.1100
58     H58     5.1180   -1.3337   -2.0324 H        1 ZINC000029246385    0.1100
59     H59     3.8590    2.6246   -1.0066 H        1 ZINC000029246385    0.1300
@<TRIPOS>BOND
1     1     2     1
2     1     47    1
3     1     48    1
4     1     49    1
5     2     3     1
6     2     4     1
7     2     37    1
8     4     5     1
9     4     6     1
10    4     10    1
11    6     7     1
12    6     8     1
13    6     9     1
14    10    11    2
15    10    12    am
16    12    13    1
17    12    50    1
18    13    14    1
19    13    15    1
20    13    18    1
21    15    16    ar
22    15    17    ar
23    18    19    1
24    18    34    1
25    18    20    1
26    20    21    1
27    21    22    1
28    21    23    1
29    21    31    1
30    23    29    am
31    23    24    1
32    24    25    2
33    24    51    1
34    25    26    1
35    25    52    1
36    26    27    2
37    26    28    am
38    28    29    am
39    28    53    1
40    29    30    2
41    31    32    1
42    31    33    1
43    31    34    1
44    33    54    1
45    34    35    1
46    34    36    1
47    36    55    1
48    37    38    1
49    37    39    1
50    37    40    1
51    39    56    1
52    40    46    ar
53    40    41    ar
54    41    42    ar
55    41    57    1
56    42    43    ar
57    42    58    1
58    43    44    1
59    43    45    ar
60    45    46    ar
61    45    59    1
@<TRIPOS>SUBSTRUCTURE
1   ZINC000029246385 1     RESIDUE    1   A     ZIN   1
