@<TRIPOS>MOLECULE
ZINC000006717453
71    74    1     0     0
SMALL
USER_CHARGES
@<TRIPOS>ATOM
1      C1     -0.0187    1.5258    0.0104 C.3      1 ZINC000006717453   -0.1500
2      C2      0.0021   -0.0041    0.0020 C.3      1 ZINC000006717453   -0.0900
3      C3     -1.4117   -0.5257    0.0127 C.ar     1 ZINC000006717453   -0.0700
4      C4     -2.0118   -0.8627    1.2081 C.ar     1 ZINC000006717453   -0.0800
5      C5     -3.3218   -1.3458    1.2161 C.ar     1 ZINC000006717453   -0.0700
6      C6     -3.9708   -1.7081    2.4919 C.2      1 ZINC000006717453    0.1900
7      C7     -5.3848   -2.2292    2.4967 C.3      1 ZINC000006717453   -0.1500
8      N8     -3.3257   -1.5782    3.6053 N.2      1 ZINC000006717453   -0.3400
9      O9     -3.9480   -1.9256    4.8288 O.3      1 ZINC000006717453   -0.2400
10     C10    -3.1204   -1.7319    5.9775 C.3      1 ZINC000006717453    0.1200
11     C11    -3.8794   -2.1312    7.2166 C.ar     1 ZINC000006717453   -0.1000
12     C12    -4.6438   -1.1970    7.8898 C.ar     1 ZINC000006717453   -0.0600
13     C13    -5.3402   -1.5633    9.0266 C.ar     1 ZINC000006717453   -0.1200
14     C14    -5.2722   -2.8638    9.4897 C.ar     1 ZINC000006717453   -0.0200
15     C15    -6.0308   -3.2629   10.7292 C.3      1 ZINC000006717453   -0.0700
16     C16    -5.5498   -2.4230   11.9141 C.3      1 ZINC000006717453   -0.1100
17     C17    -6.3200   -2.8283   13.1725 C.3      1 ZINC000006717453   -0.1200
18     C18    -7.8157   -2.5916   12.9534 C.3      1 ZINC000006717453   -0.1200
19     C19    -8.2966   -3.4315   11.7684 C.3      1 ZINC000006717453   -0.1200
20     C20    -7.5264   -3.0263   10.5100 C.3      1 ZINC000006717453   -0.1100
21     C21    -4.5086   -3.7986    8.8156 C.ar     1 ZINC000006717453   -0.1900
22     C22    -4.4348   -5.2167    9.3202 C.3      1 ZINC000006717453    0.5100
23     F23    -3.6081   -5.9687    8.4787 F        1 ZINC000006717453   -0.1800
24     F24    -3.9102   -5.2235   10.6170 F        1 ZINC000006717453   -0.1700
25     F25    -5.7178   -5.7743    9.3332 F        1 ZINC000006717453   -0.1700
26     C26    -3.8155   -3.4333    7.6769 C.ar     1 ZINC000006717453   -0.0500
27     C27    -4.0154   -1.4844    0.0126 C.ar     1 ZINC000006717453   -0.0900
28     C28    -3.4031   -1.1435   -1.1759 C.ar     1 ZINC000006717453   -0.1100
29     C29    -2.1069   -0.6602   -1.1762 C.ar     1 ZINC000006717453   -0.0400
30     C30    -1.4447   -0.2900   -2.4783 C.3      1 ZINC000006717453    0.0500
31     N31    -0.5556   -1.3797   -2.9026 N.3      1 ZINC000006717453   -0.4700
32     C32    -1.2485   -2.2981   -3.8255 C.3      1 ZINC000006717453    0.0300
33     C33     0.0409   -2.3460   -4.6572 C.3      1 ZINC000006717453   -0.1800
34     C34    -0.1847   -2.3250   -6.1471 C.2      1 ZINC000006717453    0.5000
35     O35     0.6496   -1.8261   -6.8830 O.co2    1 ZINC000006717453   -0.7000
36     O36    -1.2015   -2.8069   -6.6165 O.co2    1 ZINC000006717453   -0.7000
37     C37     0.2866   -0.9625   -4.0391 C.3      1 ZINC000006717453    0.0200
38     H38     1.0039    1.9031    0.0027 H        1 ZINC000006717453    0.0600
39     H39    -0.5459    1.8868   -0.8726 H        1 ZINC000006717453    0.0600
40     H40    -0.5289    1.8773    0.9072 H        1 ZINC000006717453    0.0500
41     H41     0.5123   -0.3556   -0.8948 H        1 ZINC000006717453    0.0900
42     H42     0.5293   -0.3651    0.8851 H        1 ZINC000006717453    0.0700
43     H43    -1.4695   -0.7534    2.1356 H        1 ZINC000006717453    0.1300
44     H44    -5.3721   -3.3153    2.4050 H        1 ZINC000006717453    0.0800
45     H45    -5.8721   -1.9491    3.4306 H        1 ZINC000006717453    0.0800
46     H46    -5.9330   -1.8002    1.6579 H        1 ZINC000006717453    0.0800
47     H47    -2.2239   -2.3454    5.8870 H        1 ZINC000006717453    0.0700
48     H48    -2.8365   -0.6819    6.0478 H        1 ZINC000006717453    0.0700
49     H49    -4.6970   -0.1808    7.5280 H        1 ZINC000006717453    0.1300
50     H50    -5.9370   -0.8331    9.5531 H        1 ZINC000006717453    0.1400
51     H51    -5.8567   -4.3185   10.9376 H        1 ZINC000006717453    0.0800
52     H52    -4.4843   -2.5916   12.0702 H        1 ZINC000006717453    0.0700
53     H53    -5.7240   -1.3674   11.7057 H        1 ZINC000006717453    0.0700
54     H54    -6.1459   -3.8839   13.3809 H        1 ZINC000006717453    0.0600
55     H55    -5.9774   -2.2299   14.0167 H        1 ZINC000006717453    0.0600
56     H56    -8.3644   -2.8803   13.8498 H        1 ZINC000006717453    0.0600
57     H57    -7.9898   -1.5360   12.7449 H        1 ZINC000006717453    0.0600
58     H58    -8.1225   -4.4872   11.9768 H        1 ZINC000006717453    0.0600
59     H59    -9.3621   -3.2630   11.6123 H        1 ZINC000006717453    0.0600
60     H60    -7.7006   -1.9707   10.3016 H        1 ZINC000006717453    0.0700
61     H61    -7.8691   -3.6247    9.6658 H        1 ZINC000006717453    0.0700
62     H62    -3.2190   -4.1636    7.1503 H        1 ZINC000006717453    0.1400
63     H63    -5.0288   -1.8578    0.0118 H        1 ZINC000006717453    0.1300
64     H64    -3.9385   -1.2502   -2.1078 H        1 ZINC000006717453    0.1300
65     H65    -2.2071   -0.1257   -3.2398 H        1 ZINC000006717453    0.0500
66     H66    -0.8631    0.6220   -2.3437 H        1 ZINC000006717453    0.0800
67     H67    -1.5086   -3.2546   -3.3722 H        1 ZINC000006717453    0.0700
68     H68    -2.0861   -1.8373   -4.3491 H        1 ZINC000006717453    0.0700
69     H69     0.7485   -3.1120   -4.3398 H        1 ZINC000006717453    0.0900
70     H70    -0.1414   -0.1453   -4.6197 H        1 ZINC000006717453    0.0600
71     H71     1.3274   -0.7871   -3.7668 H        1 ZINC000006717453    0.0800
@<TRIPOS>BOND
1     1     2     1
2     1     38    1
3     1     39    1
4     1     40    1
5     2     3     1
6     2     41    1
7     2     42    1
8     3     29    ar
9     3     4     ar
10    4     5     ar
11    4     43    1
12    5     6     1
13    5     27    ar
14    6     7     1
15    6     8     2
16    7     44    1
17    7     45    1
18    7     46    1
19    8     9     1
20    9     10    1
21    10    11    1
22    10    47    1
23    10    48    1
24    11    26    ar
25    11    12    ar
26    12    13    ar
27    12    49    1
28    13    14    ar
29    13    50    1
30    14    15    1
31    14    21    ar
32    15    20    1
33    15    16    1
34    15    51    1
35    16    17    1
36    16    52    1
37    16    53    1
38    17    18    1
39    17    54    1
40    17    55    1
41    18    19    1
42    18    56    1
43    18    57    1
44    19    20    1
45    19    58    1
46    19    59    1
47    20    60    1
48    20    61    1
49    21    22    1
50    21    26    ar
51    22    23    1
52    22    24    1
53    22    25    1
54    26    62    1
55    27    28    ar
56    27    63    1
57    28    29    ar
58    28    64    1
59    29    30    1
60    30    31    1
61    30    65    1
62    30    66    1
63    31    37    1
64    31    32    1
65    32    33    1
66    32    67    1
67    32    68    1
68    33    34    1
69    33    37    1
70    33    69    1
71    34    35    ar
72    34    36    ar
73    37    70    1
74    37    71    1
@<TRIPOS>SUBSTRUCTURE
1   ZINC000006717453 1     RESIDUE    1   A     ZIN   1
