@<TRIPOS>MOLECULE
ZINC000003820333
  53   55    0    0    0
SMALL
USER_CHARGES
NO_NAME
@<TRIPOS>ATOM
    1 C1       -0.3066     1.7049     0.2442 C.3    1 <0>      -0.1500
    2 C2       -0.2502     0.1761     0.2218 C.3    1 <0>      -0.1300
    3 C3       -1.6729    -0.3865     0.2062 C.3    1 <0>      -0.1100
    4 C4       -1.6166    -1.9153     0.1838 C.3    1 <0>      -0.1100
    5 C5       -3.0393    -2.4779     0.1682 C.3    1 <0>      -0.6000
    6 S6       -2.9725    -4.2905     0.1417 S.o2   1 <0>       2.5700
    7 O7       -2.4578    -4.7523    -1.0997 O.2    1 <0>      -1.0100
    8 O8       -2.4704    -4.7891     1.3740 O.2    1 <0>      -1.0100
    9 N9       -4.5598    -4.7623     0.1266 N.pl3  1 <0>      -1.1200
   10 C10      -4.8731    -6.0730     0.1055 C.2    1 <0>       0.5500
   11 O11      -3.9903    -6.9090     0.0976 O.2    1 <0>      -0.6100
   12 C12      -6.2879    -6.4935     0.0921 C.ar   1 <0>      -0.0100
   13 C13      -7.3042    -5.5288     0.0954 C.ar   1 <0>      -0.0200
   14 C14      -8.6138    -5.9036     0.0826 C.ar   1 <0>      -0.1000
   15 C15      -8.9549    -7.2611     0.0661 C.ar   1 <0>       0.0500
   16 N16     -10.1370    -7.9244     0.0519 N.pl3  1 <0>      -0.4900
   17 H17     -11.0121    -7.5060     0.0506 H      1 <0>       0.4600
   18 C18      -9.9199    -9.2084     0.0403 C.cat  1 <0>       0.3700
   19 C19     -10.9945   -10.2648     0.0224 C.3    1 <0>      -0.1200
   20 N20      -8.5844    -9.4575     0.0463 N.pl3  1 <0>      -0.4200
   21 C21      -7.9467   -10.7764     0.0374 C.3    1 <0>       0.1400
   22 C22      -7.8633   -11.2845    -1.3788 C.ar   1 <0>      -0.1300
   23 C23      -8.9118   -12.0067    -1.9166 C.ar   1 <0>      -0.0800
   24 C24      -8.8358   -12.4735    -3.2156 C.ar   1 <0>      -0.1100
   25 C25      -7.7103   -12.2177    -3.9781 C.ar   1 <0>       0.0000
   26 Cl26     -7.6153   -12.8036    -5.6095 Cl     1 <0>      -0.0400
   27 C27      -6.6606   -11.4945    -3.4405 C.ar   1 <0>      -0.1000
   28 C28      -6.7393   -11.0232    -2.1425 C.ar   1 <0>      -0.0100
   29 Cl29     -5.4229   -10.1150    -1.4673 Cl     1 <0>      -0.0100
   30 C30      -7.9392    -8.2355     0.0627 C.ar   1 <0>       0.0700
   31 C31      -6.6104    -7.8496     0.0703 C.ar   1 <0>      -0.0700
   32 H32       0.7070     2.1057     0.2553 H      1 <0>       0.0500
   33 H33      -0.8289     2.0623    -0.6432 H      1 <0>       0.0500
   34 H34      -0.8379     2.0359     1.1365 H      1 <0>       0.0500
   35 H35       0.2812    -0.1548    -0.6705 H      1 <0>       0.0600
   36 H36       0.2721    -0.1813     1.1093 H      1 <0>       0.0600
   37 H37      -2.2043    -0.0555     1.0985 H      1 <0>       0.0600
   38 H38      -2.1953    -0.0291    -0.6812 H      1 <0>       0.0600
   39 H39      -1.0852    -2.2462    -0.7085 H      1 <0>       0.0700
   40 H40      -1.0943    -2.2727     1.0713 H      1 <0>       0.0700
   41 H41      -3.5707    -2.1469     1.0605 H      1 <0>       0.1200
   42 H42      -3.5616    -2.1205    -0.7192 H      1 <0>       0.1200
   43 H43      -7.0473    -4.4799     0.1085 H      1 <0>       0.1700
   44 H44      -9.3898    -5.1525     0.0857 H      1 <0>       0.1500
   45 H45     -11.2469   -10.5088    -1.0095 H      1 <0>       0.1200
   46 H46     -10.6328   -11.1595     0.5292 H      1 <0>       0.1200
   47 H47     -11.8808    -9.8903     0.5345 H      1 <0>       0.1200
   48 H48      -6.9429   -10.6974     0.4548 H      1 <0>       0.1300
   49 H49      -8.5364   -11.4691     0.6379 H      1 <0>       0.1300
   50 H50      -9.7907   -12.2066    -1.3216 H      1 <0>       0.1500
   51 H51      -9.6552   -13.0384    -3.6350 H      1 <0>       0.1500
   52 H52      -5.7817   -11.2945    -4.0354 H      1 <0>       0.1600
   53 H53      -5.8282    -8.5942     0.0622 H      1 <0>       0.1600
@<TRIPOS>BOND
   1    1    2 1
   2    1   32 1
   3    1   33 1
   4    1   34 1
   5    2    3 1
   6    2   35 1
   7    2   36 1
   8    3    4 1
   9    3   37 1
  10    3   38 1
  11    4    5 1
  12    4   39 1
  13    4   40 1
  14    5    6 1
  15    5   41 1
  16    5   42 1
  17    6    7 2
  18    6    8 2
  19    6    9 1
  20    9   10 1
  21   10   11 2
  22   10   12 1
  23   12   31 ar
  24   12   13 ar
  25   13   14 ar
  26   13   43 1
  27   14   15 ar
  28   14   44 1
  29   15   30 ar
  30   15   16 1
  31   16   17 1
  32   16   18 ar
  33   18   19 1
  34   18   20 ar
  35   19   45 1
  36   19   46 1
  37   19   47 1
  38   20   21 1
  39   20   30 1
  40   21   22 1
  41   21   48 1
  42   21   49 1
  43   22   28 ar
  44   22   23 ar
  45   23   24 ar
  46   23   50 1
  47   24   25 ar
  48   24   51 1
  49   25   26 1
  50   25   27 ar
  51   27   28 ar
  52   27   52 1
  53   28   29 1
  54   30   31 ar
  55   31   53 1
