@<TRIPOS>MOLECULE
ZINC000003954692
68    72    1     0     0
SMALL
USER_CHARGES
@<TRIPOS>ATOM
1      C1      7.7149    2.4679    3.4368 C.3      1 ZINC000003954692    0.0300
2      O2      6.7150    3.4027    3.0266 O.3      1 ZINC000003954692   -0.3000
3      C3      6.8037    3.8847    1.7581 C.ar     1 ZINC000003954692    0.0900
4      C4      7.8272    3.4632    0.9254 C.ar     1 ZINC000003954692   -0.1800
5      C5      7.9191    3.9583   -0.3626 C.ar     1 ZINC000003954692   -0.1400
6      C6      6.9884    4.8701   -0.8240 C.ar     1 ZINC000003954692   -0.1100
7      C7      5.9610    5.2912    0.0001 C.ar     1 ZINC000003954692   -0.1500
8      C8      5.8630    4.7991    1.2917 C.ar     1 ZINC000003954692    0.1400
9      O9      4.8539    5.2125    2.1036 O.3      1 ZINC000003954692   -0.2000
10     C10     3.9616    6.1111    1.6065 C.ar     1 ZINC000003954692   -0.1000
11     C11     2.8050    5.6831    0.9495 C.ar     1 ZINC000003954692    0.4900
12     N12     2.5451    4.3282    0.7914 N.pl3    1 ZINC000003954692   -1.0200
13     S13     1.1707    3.8342    0.0109 S.o2     1 ZINC000003954692    2.6300
14     O14     1.3091    4.2431   -1.3429 O.2      1 ZINC000003954692   -0.9900
15     O15     0.0797    4.2251    0.8332 O.2      1 ZINC000003954692   -0.9900
16     C16     1.1806    2.0722    0.0019 C.ar     1 ZINC000003954692   -0.3900
17     C17    -0.0167    1.3825    0.0096 C.ar     1 ZINC000003954692   -0.0900
18     C18     0.0021   -0.0041    0.0020 C.ar     1 ZINC000003954692   -0.0900
19     C19     1.2301   -0.6472   -0.0132 C.ar     1 ZINC000003954692   -0.1100
20     C20     1.3030   -2.1524   -0.0214 C.3      1 ZINC000003954692   -0.0500
21     C21     2.0360   -2.6205   -1.2802 C.3      1 ZINC000003954692   -0.1500
22     C22     2.0603   -2.6331    1.2181 C.3      1 ZINC000003954692   -0.1400
23     C23     2.3867    0.1096   -0.0201 C.ar     1 ZINC000003954692    0.0800
24     N24     2.3308    1.4270   -0.0125 N.ar     1 ZINC000003954692   -0.3800
25     N25     1.9600    6.5915    0.4733 N.ar     1 ZINC000003954692   -0.6100
26     C26     2.1987    7.8862    0.6253 C.ar     1 ZINC000003954692    0.4300
27     C27     1.2262    8.8676    0.0846 C.ar     1 ZINC000003954692    0.0000
28     C28     1.4439   10.2423    0.2196 C.ar     1 ZINC000003954692   -0.1500
29     C29     0.5162   11.1255   -0.2966 C.ar     1 ZINC000003954692    0.0800
30     N30    -0.5658   10.6917   -0.9109 N.ar     1 ZINC000003954692   -0.4600
31     C31    -0.8145    9.3974   -1.0626 C.ar     1 ZINC000003954692    0.2400
32     C32    -2.0491    8.9637   -1.7636 C.2      1 ZINC000003954692    0.0900
33     N33    -2.4311    7.7127   -1.9969 N.2      1 ZINC000003954692   -0.3500
34     N34    -3.5560    7.7605   -2.6250 N.pl3    1 ZINC000003954692   -0.1900
35     N35    -3.8881    8.9916   -2.8018 N.2      1 ZINC000003954692   -0.2000
36     N36    -2.9838    9.7512   -2.2846 N.2      1 ZINC000003954692   -0.3500
37     C37     0.0729    8.4427   -0.5771 C.ar     1 ZINC000003954692   -0.0900
38     N38     3.2851    8.3286    1.2427 N.ar     1 ZINC000003954692   -0.6200
39     C39     4.1784    7.4819    1.7403 C.ar     1 ZINC000003954692    0.3700
40     O40     5.2873    7.9442    2.3701 O.3      1 ZINC000003954692   -0.2900
41     C41     5.4354    9.3623    2.4656 C.3      1 ZINC000003954692    0.0700
42     C42     6.7356    9.6908    3.2023 C.3      1 ZINC000003954692    0.0800
43     O43     7.8490    9.2459    2.4248 O.3      1 ZINC000003954692   -0.5600
44     H44     7.5274    2.1639    4.4667 H        1 ZINC000003954692    0.0900
45     H45     7.6820    1.5926    2.7880 H        1 ZINC000003954692    0.0500
46     H46     8.6978    2.9339    3.3688 H        1 ZINC000003954692    0.0500
47     H47     8.5561    2.7512    1.2834 H        1 ZINC000003954692    0.1200
48     H48     8.7198    3.6316   -1.0095 H        1 ZINC000003954692    0.1200
49     H49     7.0635    5.2541   -1.8306 H        1 ZINC000003954692    0.1200
50     H50     5.2353    6.0040   -0.3628 H        1 ZINC000003954692    0.1200
51     H51    -0.9554    1.9166    0.0170 H        1 ZINC000003954692    0.1500
52     H52    -0.9181   -0.5695    0.0074 H        1 ZINC000003954692    0.1400
53     H53     0.2942   -2.5651   -0.0137 H        1 ZINC000003954692    0.0800
54     H54     2.0888   -3.7092   -1.2862 H        1 ZINC000003954692    0.0600
55     H55     1.4965   -2.2781   -2.1633 H        1 ZINC000003954692    0.0600
56     H56     3.0448   -2.2078   -1.2880 H        1 ZINC000003954692    0.0600
57     H57     1.5381   -2.2996    2.1149 H        1 ZINC000003954692    0.0600
58     H58     2.1131   -3.7218    1.2121 H        1 ZINC000003954692    0.0600
59     H59     3.0691   -2.2204    1.2104 H        1 ZINC000003954692    0.0600
60     H60     3.3473   -0.3837   -0.0316 H        1 ZINC000003954692    0.1500
61     H61     2.3272   10.6090    0.7212 H        1 ZINC000003954692    0.1400
62     H62     0.6798   12.1882   -0.1949 H        1 ZINC000003954692    0.1500
63     H63    -0.1292    7.3896   -0.7061 H        1 ZINC000003954692    0.1600
64     H64     5.4663    9.7926    1.4647 H        1 ZINC000003954692    0.0700
65     H65     4.5914    9.7796    3.0147 H        1 ZINC000003954692    0.0800
66     H66     6.8053   10.7680    3.3535 H        1 ZINC000003954692    0.0600
67     H67     6.7428    9.1870    4.1688 H        1 ZINC000003954692    0.0500
68     H68     8.7083    9.4219    2.8319 H        1 ZINC000003954692    0.3700
@<TRIPOS>BOND
1     1     2     1
2     1     44    1
3     1     45    1
4     1     46    1
5     2     3     1
6     3     8     ar
7     3     4     ar
8     4     5     ar
9     4     47    1
10    5     6     ar
11    5     48    1
12    6     7     ar
13    6     49    1
14    7     8     ar
15    7     50    1
16    8     9     1
17    9     10    1
18    10    39    ar
19    10    11    ar
20    11    12    1
21    11    25    ar
22    12    13    1
23    13    14    2
24    13    15    2
25    13    16    1
26    16    24    ar
27    16    17    ar
28    17    18    ar
29    17    51    1
30    18    19    ar
31    18    52    1
32    19    20    1
33    19    23    ar
34    20    21    1
35    20    22    1
36    20    53    1
37    21    54    1
38    21    55    1
39    21    56    1
40    22    57    1
41    22    58    1
42    22    59    1
43    23    24    ar
44    23    60    1
45    25    26    ar
46    26    27    1
47    26    38    ar
48    27    37    ar
49    27    28    ar
50    28    29    ar
51    28    61    1
52    29    30    ar
53    29    62    1
54    30    31    ar
55    31    32    1
56    31    37    ar
57    32    36    1
58    32    33    2
59    33    34    1
60    34    35    1
61    35    36    2
62    37    63    1
63    38    39    ar
64    39    40    1
65    40    41    1
66    41    42    1
67    41    64    1
68    41    65    1
69    42    43    1
70    42    66    1
71    42    67    1
72    43    68    1
@<TRIPOS>SUBSTRUCTURE
1   ZINC000003954692 1     RESIDUE    1   A     ZIN   1
