@<TRIPOS>MOLECULE
ZINC000005424460
33    35    1     0     0
SMALL
USER_CHARGES
@<TRIPOS>ATOM
1      C1      0.7455   -0.4969   -1.2062 C.3      1 ZINC000005424460   -0.1600
2      C2     -0.0071    0.0242    0.0197 C.3      1 ZINC000005424460   -0.1200
3      C3     -1.4670   -0.4285   -0.0475 C.3      1 ZINC000005424460    0.0000
4      C4     -2.1406    0.1237   -1.2773 C.2      1 ZINC000005424460    0.0800
5      C5     -2.8218   -0.5782   -2.2031 C.2      1 ZINC000005424460    0.0000
6      N6     -3.2627    0.2812   -3.1337 N.pl3    1 ZINC000005424460   -0.4700
7      H7     -3.7836    0.0427   -3.9164 H        1 ZINC000005424460    0.4700
8      C8     -2.8806    1.4889   -2.8199 C.cat    1 ZINC000005424460    0.3100
9      N9     -2.1827    1.4358   -1.6650 N.pl3    1 ZINC000005424460   -0.5100
10     C10    -2.2281   -0.0182    1.2310 C.3      1 ZINC000005424460   -0.0700
11     C11    -3.2044   -1.1458    1.4900 C.ar     1 ZINC000005424460   -0.1200
12     C12    -4.3355   -1.1871    2.2877 C.ar     1 ZINC000005424460   -0.0700
13     C13    -5.0853   -2.3438    2.3722 C.ar     1 ZINC000005424460   -0.1500
14     C14    -4.7053   -3.4666    1.6570 C.ar     1 ZINC000005424460    0.1100
15     F15    -5.4368   -4.5996    1.7371 F        1 ZINC000005424460   -0.1300
16     C16    -3.5751   -3.4261    0.8597 C.ar     1 ZINC000005424460   -0.1400
17     C17    -2.8238   -2.2666    0.7753 C.ar     1 ZINC000005424460   -0.0800
18     C18    -1.5661   -1.9684   -0.0124 C.3      1 ZINC000005424460   -0.0700
19     H19     1.7657   -0.1134   -1.1964 H        1 ZINC000005424460    0.0700
20     H20     0.7666   -1.5865   -1.1835 H        1 ZINC000005424460    0.0700
21     H21     0.2402   -0.1621   -2.1122 H        1 ZINC000005424460    0.0500
22     H22     0.4546   -0.3711    0.9246 H        1 ZINC000005424460    0.1000
23     H23     0.0352    1.1133    0.0362 H        1 ZINC000005424460    0.0700
24     H24    -2.9845   -1.6458   -2.1972 H        1 ZINC000005424460    0.2200
25     H25    -3.0912    2.3832   -3.3875 H        1 ZINC000005424460    0.2700
26     H26    -1.7807    2.1864   -1.2003 H        1 ZINC000005424460    0.4600
27     H27    -1.5361    0.0824    2.0672 H        1 ZINC000005424460    0.1100
28     H28    -2.7645    0.9166    1.0683 H        1 ZINC000005424460    0.0800
29     H29    -4.6323   -0.3116    2.8461 H        1 ZINC000005424460    0.1300
30     H30    -5.9668   -2.3725    2.9956 H        1 ZINC000005424460    0.1400
31     H31    -3.2781   -4.3019    0.3019 H        1 ZINC000005424460    0.1400
32     H32    -1.6503   -2.3654   -1.0240 H        1 ZINC000005424460    0.0900
33     H33    -0.6961   -2.3917    0.4896 H        1 ZINC000005424460    0.1100
@<TRIPOS>BOND
1     1     2     1
2     1     19    1
3     1     20    1
4     1     21    1
5     2     3     1
6     2     22    1
7     2     23    1
8     3     18    1
9     3     4     1
10    3     10    1
11    4     9     1
12    4     5     2
13    5     6     1
14    5     24    1
15    6     7     1
16    6     8     ar
17    8     9     ar
18    8     25    1
19    9     26    1
20    10    11    1
21    10    27    1
22    10    28    1
23    11    17    ar
24    11    12    ar
25    12    13    ar
26    12    29    1
27    13    14    ar
28    13    30    1
29    14    15    1
30    14    16    ar
31    16    17    ar
32    16    31    1
33    17    18    1
34    18    32    1
35    18    33    1
@<TRIPOS>SUBSTRUCTURE
1   ZINC000005424460 1     RESIDUE    1   A     ZIN   1
