@<TRIPOS>MOLECULE
ZINC000001895592
43    45    1     0     0
SMALL
USER_CHARGES
@<TRIPOS>ATOM
1      F1      0.0021   -0.0041    0.0020 F        1 ZINC000001895592   -0.1400
2      C2     -0.0162    1.3468    0.0094 C.ar     1 ZINC000001895592    0.1000
3      C3     -1.2269    2.0207    0.0304 C.ar     1 ZINC000001895592   -0.1500
4      C4     -1.2512    3.3998    0.0385 C.ar     1 ZINC000001895592   -0.0800
5      C5     -0.0538    4.1163    0.0256 C.ar     1 ZINC000001895592   -0.0600
6      C6     -0.0738    5.5942    0.0347 C.2      1 ZINC000001895592   -0.0800
7      C7     -0.5499    6.2119    1.0933 C.2      1 ZINC000001895592   -0.1400
8      C8     -0.6237    7.7076    1.2048 C.3      1 ZINC000001895592    0.0800
9      N9      0.2488    8.3355    0.2044 N.3      1 ZINC000001895592   -0.5300
10     C10     0.0932    9.7962    0.2128 C.3      1 ZINC000001895592    0.0500
11     C11    -1.3173   10.1616   -0.2538 C.3      1 ZINC000001895592   -0.1600
12     C12    -1.4793   11.6829   -0.2451 C.3      1 ZINC000001895592   -0.1300
13     C13    -2.8899   12.0483   -0.7118 C.3      1 ZINC000001895592    0.1300
14     N14    -3.0450   13.5050   -0.7034 N.pl3    1 ZINC000001895592   -0.3800
15     C15    -3.4311   14.2801   -1.7317 C.2      1 ZINC000001895592    0.2500
16     N16    -3.4455   15.5221   -1.3208 N.2      1 ZINC000001895592   -0.5500
17     C17    -3.0763   15.5795   -0.0419 C.2      1 ZINC000001895592    0.2000
18     N18    -2.8257   14.3687    0.3822 N.2      1 ZINC000001895592   -0.3200
19     C19    -0.0278    7.7831   -1.1319 C.3      1 ZINC000001895592    0.0500
20     C20     0.4566    6.3299   -1.1642 C.3      1 ZINC000001895592   -0.0700
21     C21     1.1626    3.4327    0.0045 C.ar     1 ZINC000001895592   -0.0800
22     C22     1.1757    2.0535    0.0019 C.ar     1 ZINC000001895592   -0.1500
23     H23    -2.1530    1.4652    0.0400 H        1 ZINC000001895592    0.1400
24     H24    -2.1953    3.9241    0.0545 H        1 ZINC000001895592    0.1300
25     H25    -0.9048    5.6158    1.9211 H        1 ZINC000001895592    0.1100
26     H26    -1.6516    8.0316    1.0415 H        1 ZINC000001895592    0.0500
27     H27    -0.3061    8.0114    2.2022 H        1 ZINC000001895592    0.0900
28     H28     0.2504   10.1725    1.2236 H        1 ZINC000001895592    0.0800
29     H29     0.8255   10.2434   -0.4594 H        1 ZINC000001895592    0.0800
30     H30    -1.4745    9.7852   -1.2647 H        1 ZINC000001895592    0.0700
31     H31    -2.0496    9.7143    0.4183 H        1 ZINC000001895592    0.0700
32     H32    -1.3222   12.0593    0.7657 H        1 ZINC000001895592    0.0800
33     H33    -0.7470   12.1302   -0.9173 H        1 ZINC000001895592    0.0700
34     H34    -3.0471   11.6720   -1.7226 H        1 ZINC000001895592    0.1000
35     H35    -3.6222   11.6011   -0.0396 H        1 ZINC000001895592    0.0900
36     H36    -3.6847   13.9373   -2.7240 H        1 ZINC000001895592    0.2200
37     H37    -3.0005   16.4799    0.5497 H        1 ZINC000001895592    0.2200
38     H38    -1.0993    7.8198   -1.3287 H        1 ZINC000001895592    0.0400
39     H39     0.5057    8.3627   -1.8852 H        1 ZINC000001895592    0.0800
40     H40     1.5464    6.3106   -1.1556 H        1 ZINC000001895592    0.0800
41     H41     0.0932    5.8466   -2.0711 H        1 ZINC000001895592    0.0800
42     H42     2.0921    3.9826   -0.0056 H        1 ZINC000001895592    0.1300
43     H43     2.1166    1.5234   -0.0145 H        1 ZINC000001895592    0.1400
@<TRIPOS>BOND
1     1     2     1
2     2     22    ar
3     2     3     ar
4     3     4     ar
5     3     23    1
6     4     5     ar
7     4     24    1
8     5     6     1
9     5     21    ar
10    6     20    1
11    6     7     2
12    7     8     1
13    7     25    1
14    8     9     1
15    8     26    1
16    8     27    1
17    9     10    1
18    9     19    1
19    10    11    1
20    10    28    1
21    10    29    1
22    11    12    1
23    11    30    1
24    11    31    1
25    12    13    1
26    12    32    1
27    12    33    1
28    13    14    1
29    13    34    1
30    13    35    1
31    14    18    1
32    14    15    1
33    15    16    2
34    15    36    1
35    16    17    1
36    17    18    2
37    17    37    1
38    19    20    1
39    19    38    1
40    19    39    1
41    20    40    1
42    20    41    1
43    21    22    ar
44    21    42    1
45    22    43    1
@<TRIPOS>SUBSTRUCTURE
1   ZINC000001895592 1     RESIDUE    1   A     ZIN   1
