@<TRIPOS>MOLECULE
ZINC000003861637
  49   51    0    0    0
SMALL
USER_CHARGES
NO_NAME
@<TRIPOS>ATOM
    1 C1        0.0028     1.5029     0.0214 C.3    1 <0>      -0.1100
    2 C2        0.0161    -0.0040     0.0094 C.ar   1 <0>      -0.1700
    3 C3        0.0160    -0.6750    -1.1761 C.ar   1 <0>      -0.0200
    4 C4        0.0284    -2.0799    -1.1865 C.ar   1 <0>      -0.2300
    5 C5        0.0288    -2.8043    -2.4591 C.2    1 <0>       0.3500
    6 C6       -1.1148    -3.6424    -2.8248 C.ar   1 <0>      -0.2300
    7 C7       -2.3707    -3.0572    -3.0565 C.ar   1 <0>       0.0000
    8 C8       -3.4329    -3.8396    -3.3972 C.ar   1 <0>      -0.2100
    9 C9       -3.2737    -5.2245    -3.5163 C.ar   1 <0>       0.2800
   10 N10      -4.3440    -6.0089    -3.8590 N.pl3  1 <0>      -0.8400
   11 C11      -2.0239    -5.8104    -3.2865 C.ar   1 <0>      -0.1700
   12 C12      -1.8566    -7.3024    -3.4169 C.3    1 <0>      -0.1100
   13 C13      -0.9570    -5.0329    -2.9504 C.ar   1 <0>      -0.0200
   14 C14       1.1729    -2.6905    -3.3659 C.2    1 <0>      -0.2100
   15 C15       2.2733    -1.8914    -3.0138 C.2    1 <0>       0.0400
   16 C16       3.3365    -1.7879    -3.8595 C.2    1 <0>      -0.2300
   17 C17       3.3331    -2.4764    -5.0775 C.2    1 <0>       0.3400
   18 N18       4.4041    -2.3703    -5.9260 N.2    1 <0>      -0.8000
   19 H19       5.1290    -1.7602    -5.7181 H      1 <0>       0.4200
   20 H20       4.4372    -2.9052    -6.7345 H      1 <0>       0.4200
   21 C21       2.2387    -3.2735    -5.4308 C.2    1 <0>      -0.1900
   22 C22       2.2395    -4.0142    -6.7432 C.3    1 <0>      -0.1200
   23 C23       1.1748    -3.3849    -4.5874 C.2    1 <0>       0.0400
   24 C24       0.0409    -2.7883     0.0266 C.ar   1 <0>       0.0000
   25 C25       0.0410    -2.1115     1.2090 C.ar   1 <0>      -0.2100
   26 C26       0.0344    -0.7124     1.2160 C.ar   1 <0>       0.2800
   27 N27       0.0344    -0.0345     2.4070 N.pl3  1 <0>      -0.8400
   28 H28       1.0271     1.8754     0.0142 H      1 <0>       0.0700
   29 H29      -0.5231     1.8686    -0.8605 H      1 <0>       0.0800
   30 H30      -0.5054     1.8546     0.9193 H      1 <0>       0.0700
   31 H31       0.0060    -0.1276    -2.1071 H      1 <0>       0.1300
   32 H32      -2.4943    -1.9882    -2.9644 H      1 <0>       0.1300
   33 H33      -4.3987    -3.3904    -3.5751 H      1 <0>       0.1400
   34 H34      -5.2107    -5.6037    -4.0188 H      1 <0>       0.4100
   35 H35      -4.2348    -6.9691    -3.9419 H      1 <0>       0.4100
   36 H36      -1.5805    -7.5489    -4.4421 H      1 <0>       0.0700
   37 H37      -1.0735    -7.6408    -2.7383 H      1 <0>       0.0800
   38 H38      -2.7947    -7.7966    -3.1644 H      1 <0>       0.0700
   39 H39       0.0075    -5.4856    -2.7736 H      1 <0>       0.1300
   40 H40       2.2764    -1.3594    -2.0740 H      1 <0>       0.1500
   41 H41       4.1827    -1.1735    -3.5896 H      1 <0>       0.1500
   42 H42       3.0331    -4.7614    -6.7383 H      1 <0>       0.0800
   43 H43       1.2773    -4.5070    -6.8830 H      1 <0>       0.0800
   44 H44       2.4087    -3.3099    -7.5578 H      1 <0>       0.0700
   45 H45       0.3305    -4.0005    -4.8605 H      1 <0>       0.1500
   46 H46       0.0501    -3.8682     0.0219 H      1 <0>       0.1300
   47 H47       0.0506    -2.6555     2.1420 H      1 <0>       0.1400
   48 H48       0.0391    -0.5246     3.2441 H      1 <0>       0.4100
   49 H49       0.0299     0.9355     2.4130 H      1 <0>       0.4100
@<TRIPOS>BOND
   1    1    2 1
   2    1   28 1
   3    1   29 1
   4    1   30 1
   5    2   26 ar
   6    2    3 ar
   7    3    4 ar
   8    3   31 1
   9    4    5 1
  10    4   24 ar
  11    5    6 1
  12    5   14 2
  13    6   13 ar
  14    6    7 ar
  15    7    8 ar
  16    7   32 1
  17    8    9 ar
  18    8   33 1
  19    9   10 1
  20    9   11 ar
  21   10   34 1
  22   10   35 1
  23   11   12 1
  24   11   13 ar
  25   12   36 1
  26   12   37 1
  27   12   38 1
  28   13   39 1
  29   14   23 1
  30   14   15 1
  31   15   16 2
  32   15   40 1
  33   16   17 1
  34   16   41 1
  35   17   18 2
  36   17   21 1
  37   18   19 1
  38   18   20 1
  39   21   22 1
  40   21   23 2
  41   22   42 1
  42   22   43 1
  43   22   44 1
  44   23   45 1
  45   24   25 ar
  46   24   46 1
  47   25   26 ar
  48   25   47 1
  49   26   27 1
  50   27   48 1
  51   27   49 1
