@<TRIPOS>MOLECULE
ZINC000001914818
75    79    1     0     0
SMALL
USER_CHARGES
@<TRIPOS>ATOM
1      C1     -0.0187    1.5258    0.0104 C.3      1 ZINC000001914818   -0.1400
2      C2      0.0021   -0.0041    0.0020 C.3      1 ZINC000001914818   -0.0600
3      C3      0.7421   -0.5109    1.2415 C.3      1 ZINC000001914818   -0.1300
4      C4     -1.4333   -0.5336    0.0129 C.3      1 ZINC000001914818   -0.1300
5      S5      0.8511   -0.5891   -1.4904 S.3      1 ZINC000001914818   -0.0800
6      C6      2.4609    0.1092   -1.3301 C.2      1 ZINC000001914818   -0.2100
7      C7      2.8618    1.3111   -1.7857 C.2      1 ZINC000001914818    0.1900
8      C8      1.9905    2.2920   -2.5272 C.3      1 ZINC000001914818   -0.0400
9      C9      2.0823    2.0209   -4.0302 C.3      1 ZINC000001914818   -0.1200
10     C10     3.5332    2.1791   -4.4893 C.3      1 ZINC000001914818   -0.1300
11     C11     1.6078    0.5958   -4.3213 C.3      1 ZINC000001914818   -0.1200
12     C12     1.2110    3.0018   -4.7717 C.2      1 ZINC000001914818    0.5100
13     O13     0.5756    3.8400   -4.1552 O.co2    1 ZINC000001914818   -0.7000
14     O14     1.1416    2.9572   -5.9881 O.co2    1 ZINC000001914818   -0.6900
15     N15     4.1868    1.5091   -1.4716 N.pl3    1 ZINC000001914818   -0.4700
16     C16     4.9626    2.7053   -1.8085 C.3      1 ZINC000001914818    0.1300
17     C17     4.8474    3.7099   -0.6912 C.ar     1 ZINC000001914818   -0.1100
18     C18     3.8278    4.6433   -0.7036 C.ar     1 ZINC000001914818   -0.0800
19     C19     3.7216    5.5649    0.3209 C.ar     1 ZINC000001914818   -0.1100
20     C20     4.6362    5.5533    1.3590 C.ar     1 ZINC000001914818   -0.0300
21     Cl21    4.5032    6.7103    2.6464 Cl       1 ZINC000001914818   -0.0700
22     C22     5.6565    4.6190    1.3709 C.ar     1 ZINC000001914818   -0.1100
23     C23     5.7582    3.6942    0.3487 C.ar     1 ZINC000001914818   -0.0900
24     C24     4.6749    0.4130   -0.7921 C.ar     1 ZINC000001914818    0.0700
25     C25     5.9203    0.1011   -0.2566 C.ar     1 ZINC000001914818   -0.0900
26     C26     6.1126   -1.1030    0.3834 C.ar     1 ZINC000001914818   -0.1900
27     C27     5.0694   -2.0175    0.5018 C.ar     1 ZINC000001914818    0.1000
28     O28     5.2760   -3.2020    1.1373 O.3      1 ZINC000001914818   -0.3100
29     C29     6.5857   -3.4395    1.6573 C.3      1 ZINC000001914818    0.1100
30     C30     6.6248   -4.7915    2.3218 C.ar     1 ZINC000001914818    0.1600
31     C31     5.4723   -5.5736    2.3358 C.ar     1 ZINC000001914818   -0.1500
32     C32     5.4893   -6.8020    2.9332 C.ar     1 ZINC000001914818   -0.0600
33     C33     6.6912   -7.2377    3.5216 C.ar     1 ZINC000001914818   -0.1000
34     C34     6.7849   -8.4884    4.1532 C.ar     1 ZINC000001914818   -0.0900
35     C35     7.9657   -8.8739    4.7104 C.ar     1 ZINC000001914818   -0.1200
36     C36     9.0839   -8.0435    4.6623 C.ar     1 ZINC000001914818   -0.1000
37     C37     9.0287   -6.8254    4.0584 C.ar     1 ZINC000001914818   -0.0900
38     C38     7.8269   -6.3916    3.4714 C.ar     1 ZINC000001914818    0.1300
39     N39     7.7443   -5.2026    2.8666 N.ar     1 ZINC000001914818   -0.4700
40     C40     3.8259   -1.7265   -0.0230 C.ar     1 ZINC000001914818   -0.1000
41     C41     3.6178   -0.5063   -0.6688 C.ar     1 ZINC000001914818   -0.0300
42     H42     1.0039    1.9031    0.0027 H        1 ZINC000001914818    0.0600
43     H43    -0.5459    1.8868   -0.8726 H        1 ZINC000001914818    0.0700
44     H44    -0.5289    1.8773    0.9072 H        1 ZINC000001914818    0.0500
45     H45     0.2319   -0.1594    2.1383 H        1 ZINC000001914818    0.0500
46     H46     0.7568   -1.6008    1.2356 H        1 ZINC000001914818    0.0600
47     H47     1.7647   -0.1336    1.2338 H        1 ZINC000001914818    0.0600
48     H48    -1.9605   -0.1726   -0.8702 H        1 ZINC000001914818    0.0600
49     H49    -1.4185   -1.6235    0.0069 H        1 ZINC000001914818    0.0600
50     H50    -1.9435   -0.1821    0.9097 H        1 ZINC000001914818    0.0600
51     H51     0.9569    2.1793   -2.2002 H        1 ZINC000001914818    0.1000
52     H52     2.3286    3.3073   -2.3198 H        1 ZINC000001914818    0.0700
53     H53     4.1634    1.4697   -3.9530 H        1 ZINC000001914818    0.0400
54     H54     3.5986    1.9860   -5.5601 H        1 ZINC000001914818    0.0600
55     H55     3.8713    3.1944   -4.2819 H        1 ZINC000001914818    0.0400
56     H56     0.5741    0.4831   -3.9943 H        1 ZINC000001914818    0.0600
57     H57     1.6731    0.4027   -5.3921 H        1 ZINC000001914818    0.0500
58     H58     2.2379   -0.1136   -3.7850 H        1 ZINC000001914818    0.0400
59     H59     6.0090    2.4329   -1.9458 H        1 ZINC000001914818    0.1000
60     H60     4.5767    3.1410   -2.7301 H        1 ZINC000001914818    0.1200
61     H61     3.1141    4.6525   -1.5142 H        1 ZINC000001914818    0.1400
62     H62     2.9252    6.2943    0.3109 H        1 ZINC000001914818    0.1400
63     H63     6.3708    4.6096    2.1808 H        1 ZINC000001914818    0.1300
64     H64     6.5544    2.9646    0.3581 H        1 ZINC000001914818    0.1300
65     H65     6.7365    0.8030   -0.3431 H        1 ZINC000001914818    0.1200
66     H66     7.0816   -1.3403    0.7970 H        1 ZINC000001914818    0.1300
67     H67     7.3100   -3.4137    0.8431 H        1 ZINC000001914818    0.0900
68     H68     6.8321   -2.6685    2.3874 H        1 ZINC000001914818    0.0900
69     H69     4.5661   -5.2090    1.8752 H        1 ZINC000001914818    0.1500
70     H70     4.6049   -7.4215    2.9537 H        1 ZINC000001914818    0.1400
71     H71     5.9251   -9.1405    4.1971 H        1 ZINC000001914818    0.1300
72     H72     8.0368   -9.8358    5.1963 H        1 ZINC000001914818    0.1300
73     H73    10.0093   -8.3720    5.1121 H        1 ZINC000001914818    0.1300
74     H74     9.9045   -6.1940    4.0304 H        1 ZINC000001914818    0.1400
75     H75     3.0177   -2.4369    0.0693 H        1 ZINC000001914818    0.1300
@<TRIPOS>BOND
1     1     2     1
2     1     42    1
3     1     43    1
4     1     44    1
5     2     3     1
6     2     4     1
7     2     5     1
8     3     45    1
9     3     46    1
10    3     47    1
11    4     48    1
12    4     49    1
13    4     50    1
14    5     6     1
15    6     41    1
16    6     7     2
17    7     8     1
18    7     15    1
19    8     9     1
20    8     51    1
21    8     52    1
22    9     10    1
23    9     11    1
24    9     12    1
25    10    53    1
26    10    54    1
27    10    55    1
28    11    56    1
29    11    57    1
30    11    58    1
31    12    13    ar
32    12    14    ar
33    15    16    1
34    15    24    1
35    16    17    1
36    16    59    1
37    16    60    1
38    17    23    ar
39    17    18    ar
40    18    19    ar
41    18    61    1
42    19    20    ar
43    19    62    1
44    20    21    1
45    20    22    ar
46    22    23    ar
47    22    63    1
48    23    64    1
49    24    41    ar
50    24    25    ar
51    25    26    ar
52    25    65    1
53    26    27    ar
54    26    66    1
55    27    28    1
56    27    40    ar
57    28    29    1
58    29    30    1
59    29    67    1
60    29    68    1
61    30    39    ar
62    30    31    ar
63    31    32    ar
64    31    69    1
65    32    33    ar
66    32    70    1
67    33    38    ar
68    33    34    ar
69    34    35    ar
70    34    71    1
71    35    36    ar
72    35    72    1
73    36    37    ar
74    36    73    1
75    37    38    ar
76    37    74    1
77    38    39    ar
78    40    41    ar
79    40    75    1
@<TRIPOS>SUBSTRUCTURE
1   ZINC000001914818 1     RESIDUE    1   A     ZIN   1
