@<TRIPOS>MOLECULE
ZINC000003812939
  46   48    0    0    0
SMALL
USER_CHARGES
NO_NAME
@<TRIPOS>ATOM
    1 C1        0.6965     0.1162    -1.6120 C.3    1 <0>      -0.0500
    2 N2        0.1400    -1.2381    -1.4928 N.4    1 <0>      -0.3900
    3 H3        0.1478    -1.6857    -2.3970 H      1 <0>       0.4300
    4 C4        0.9530    -2.0205    -0.5521 C.3    1 <0>      -0.0500
    5 C5       -1.2408    -1.1583    -0.9978 C.3    1 <0>      -0.0100
    6 C6       -2.1146    -0.4515    -2.0359 C.3    1 <0>      -0.1800
    7 C7       -3.5527    -0.3684    -1.5204 C.3    1 <0>       0.1200
    8 N8       -4.3895     0.3084    -2.5144 N.pl3  1 <0>      -0.7400
    9 C9       -5.6594    -0.1575    -2.7782 C.ar   1 <0>       0.3800
   10 C10      -6.0681    -0.4524    -4.0937 C.ar   1 <0>      -0.1300
   11 C11      -5.1907    -0.2805    -5.1780 C.ar   1 <0>       0.0300
   12 N12      -3.8150     0.2165    -4.9499 N.pl3  1 <0>       0.0100
   13 O13      -3.5439     1.3828    -5.1733 O.2    1 <0>      -0.1200
   14 O14      -2.9542    -0.5408    -4.5389 O.2    1 <0>      -0.1200
   15 C15      -5.6114    -0.5734    -6.4383 C.ar   1 <0>      -0.0500
   16 C16      -6.9045    -1.0426    -6.6698 C.ar   1 <0>      -0.0100
   17 C17      -7.7810    -1.2210    -5.6465 C.ar   1 <0>      -0.1200
   18 C18      -7.3851    -0.9303    -4.3248 C.ar   1 <0>       0.2400
   19 N19      -8.2345    -1.1014    -3.3133 N.ar   1 <0>      -0.5000
   20 H20      -9.1285    -1.4288    -3.4992 H      1 <0>       0.4500
   21 C21      -7.8916    -0.8363    -2.0537 C.ar   1 <0>       0.2300
   22 C22      -8.8156    -1.0290    -1.0067 C.ar   1 <0>      -0.1600
   23 C23      -8.4531    -0.7546     0.2745 C.ar   1 <0>       0.0000
   24 C24      -7.1763    -0.2828     0.5771 C.ar   1 <0>      -0.1100
   25 C25      -6.2553    -0.0830    -0.4047 C.ar   1 <0>      -0.0600
   26 C26      -6.5909    -0.3605    -1.7405 C.ar   1 <0>      -0.1400
   27 H27       1.7211     0.0570    -1.9792 H      1 <0>       0.1300
   28 H28       0.0933     0.6967    -2.3100 H      1 <0>       0.1200
   29 H29       0.6881     0.5997    -0.6351 H      1 <0>       0.1200
   30 H30       0.9446    -1.5370     0.4248 H      1 <0>       0.1200
   31 H31       0.5400    -3.0254    -0.4636 H      1 <0>       0.1200
   32 H32       1.9775    -2.0797    -0.9193 H      1 <0>       0.1300
   33 H33      -1.6235    -2.1641    -0.8249 H      1 <0>       0.1300
   34 H34      -1.2600    -0.5967    -0.0638 H      1 <0>       0.1300
   35 H35      -1.7319     0.5543    -2.2088 H      1 <0>       0.1000
   36 H36      -2.0954    -1.0131    -2.9699 H      1 <0>       0.1200
   37 H37      -3.9355    -1.3742    -1.3476 H      1 <0>       0.1000
   38 H38      -3.5720     0.1932    -0.5864 H      1 <0>       0.0900
   39 H39      -4.0497     1.0844    -2.9869 H      1 <0>       0.4300
   40 H40      -4.9356    -0.4406    -7.2702 H      1 <0>       0.1700
   41 H41      -7.2146    -1.2677    -7.6796 H      1 <0>       0.1800
   42 H42      -8.7784    -1.5845    -5.8453 H      1 <0>       0.1800
   43 H43      -9.8092    -1.3934    -1.2219 H      1 <0>       0.1700
   44 H44      -9.1663    -0.9042     1.0716 H      1 <0>       0.1600
   45 H45      -6.9150    -0.0728     1.6038 H      1 <0>       0.1600
   46 H46      -5.2698     0.2835    -0.1578 H      1 <0>       0.1500
@<TRIPOS>BOND
   1    1    2 1
   2    1   27 1
   3    1   28 1
   4    1   29 1
   5    2    3 1
   6    2    4 1
   7    2    5 1
   8    4   30 1
   9    4   31 1
  10    4   32 1
  11    5    6 1
  12    5   33 1
  13    5   34 1
  14    6    7 1
  15    6   35 1
  16    6   36 1
  17    7    8 1
  18    7   37 1
  19    7   38 1
  20    8    9 1
  21    8   39 1
  22    9   26 ar
  23    9   10 ar
  24   10   18 ar
  25   10   11 ar
  26   11   12 1
  27   11   15 ar
  28   12   13 2
  29   12   14 2
  30   15   16 ar
  31   15   40 1
  32   16   17 ar
  33   16   41 1
  34   17   18 ar
  35   17   42 1
  36   18   19 ar
  37   19   20 1
  38   19   21 ar
  39   21   26 ar
  40   21   22 ar
  41   22   23 ar
  42   22   43 1
  43   23   24 ar
  44   23   44 1
  45   24   25 ar
  46   24   45 1
  47   25   26 ar
  48   25   46 1
