@<TRIPOS>MOLECULE
ZINC000256001573
  52   54    0    0    0
SMALL
USER_CHARGES
NO_NAME
@<TRIPOS>ATOM
    1 C1       -0.8562    -1.4626    -0.0090 C.3    1 <0>      -0.0500
    2 N2       -1.3630    -2.7921    -0.3744 N.4    1 <0>      -0.3900
    3 H3       -0.9501    -3.0808    -1.2487 H      1 <0>       0.4300
    4 C4       -1.0100    -3.7565     0.6760 C.3    1 <0>      -0.0500
    5 C5       -2.8240    -2.7369    -0.5175 C.3    1 <0>       0.0000
    6 C6       -3.1873    -1.8280    -1.6934 C.3    1 <0>       0.0200
    7 O7       -2.7100    -2.4081    -2.9090 O.3    1 <0>      -0.3300
    8 C8       -2.9517    -1.7223    -4.0559 C.ar   1 <0>       0.1200
    9 C9       -3.6309    -0.5107    -4.0081 C.ar   1 <0>      -0.2000
   10 C10      -3.8783     0.1891    -5.1679 C.ar   1 <0>      -0.0500
   11 C11      -3.4443    -0.3221    -6.3967 C.ar   1 <0>      -0.0800
   12 C12      -3.7050     0.4205    -7.6376 C.2    1 <0>      -0.0800
   13 C13      -2.7858     0.4199    -8.6335 C.2    1 <0>       0.0700
   14 N14      -1.5272    -0.1553    -8.4299 N.am   1 <0>      -0.6600
   15 C15      -0.7337    -0.4077    -9.4923 C.2    1 <0>       0.5700
   16 O16       0.3634    -0.9096    -9.3330 O.2    1 <0>      -0.4900
   17 C17      -1.2061    -0.0715   -10.8448 C.2    1 <0>       0.0400
   18 C18      -0.5720    -0.5702   -11.9323 C.2    1 <0>      -0.0500
   19 C19      -1.1484    -0.3789   -13.2718 C.ar   1 <0>      -0.0800
   20 C20      -0.3120    -0.1820   -14.3757 C.ar   1 <0>      -0.0900
   21 C21      -0.8603    -0.0039   -15.6281 C.ar   1 <0>      -0.1200
   22 C22      -2.2342    -0.0196   -15.7949 C.ar   1 <0>      -0.1000
   23 C23      -3.0686    -0.2138   -14.7077 C.ar   1 <0>      -0.1100
   24 C24      -2.5359    -0.3987   -13.4495 C.ar   1 <0>      -0.1200
   25 N25      -2.3142     0.7660   -10.9986 N.am   1 <0>      -0.6500
   26 C26      -3.1065     1.0182    -9.9370 C.2    1 <0>       0.5600
   27 O27      -4.0763     1.7442   -10.0546 O.2    1 <0>      -0.4900
   28 C28      -2.7606    -1.5429    -6.4391 C.ar   1 <0>      -0.0800
   29 C29      -2.5140    -2.2318    -5.2727 C.ar   1 <0>      -0.1300
   30 H30       0.2279    -1.5036     0.0971 H      1 <0>       0.1300
   31 H31      -1.1181    -0.7471    -0.7884 H      1 <0>       0.1200
   32 H32      -1.3022    -1.1507     0.9354 H      1 <0>       0.1200
   33 H33      -1.4560    -3.4446     1.6203 H      1 <0>       0.1200
   34 H34      -1.3860    -4.7430     0.4048 H      1 <0>       0.1200
   35 H35       0.0741    -3.7974     0.7821 H      1 <0>       0.1300
   36 H36      -3.2092    -3.7399    -0.7010 H      1 <0>       0.1400
   37 H37      -3.2639    -2.3405     0.3976 H      1 <0>       0.1500
   38 H38      -4.2703    -1.7159    -1.7450 H      1 <0>       0.1100
   39 H39      -2.7271    -0.8500    -1.5524 H      1 <0>       0.0900
   40 H40      -3.9656    -0.1174    -3.0595 H      1 <0>       0.1300
   41 H41      -4.4064     1.1303    -5.1297 H      1 <0>       0.1400
   42 H42      -4.6291     0.9667    -7.7560 H      1 <0>       0.1600
   43 H43      -1.2270    -0.3708    -7.5330 H      1 <0>       0.4200
   44 H44       0.3571    -1.1085   -11.8161 H      1 <0>       0.1600
   45 H45       0.7602    -0.1692   -14.2471 H      1 <0>       0.1300
   46 H46      -0.2159     0.1486   -16.4813 H      1 <0>       0.1300
   47 H47      -2.6575     0.1209   -16.7785 H      1 <0>       0.1300
   48 H48      -4.1396    -0.2243   -14.8460 H      1 <0>       0.1300
   49 H49      -3.1882    -0.5501   -12.6022 H      1 <0>       0.1300
   50 H50      -2.5135     1.1595   -11.8625 H      1 <0>       0.4300
   51 H51      -2.4240    -1.9419    -7.3846 H      1 <0>       0.1400
   52 H52      -1.9863    -3.1736    -5.3041 H      1 <0>       0.1400
@<TRIPOS>BOND
   1    1    2 1
   2    1   30 1
   3    1   31 1
   4    1   32 1
   5    2    3 1
   6    2    4 1
   7    2    5 1
   8    4   33 1
   9    4   34 1
  10    4   35 1
  11    5    6 1
  12    5   36 1
  13    5   37 1
  14    6    7 1
  15    6   38 1
  16    6   39 1
  17    7    8 1
  18    8   29 ar
  19    8    9 ar
  20    9   10 ar
  21    9   40 1
  22   10   11 ar
  23   10   41 1
  24   11   12 1
  25   11   28 ar
  26   12   13 2
  27   12   42 1
  28   13   26 1
  29   13   14 1
  30   14   15 am
  31   14   43 1
  32   15   16 2
  33   15   17 1
  34   17   18 2
  35   17   25 1
  36   18   19 1
  37   18   44 1
  38   19   24 ar
  39   19   20 ar
  40   20   21 ar
  41   20   45 1
  42   21   22 ar
  43   21   46 1
  44   22   23 ar
  45   22   47 1
  46   23   24 ar
  47   23   48 1
  48   24   49 1
  49   25   26 am
  50   25   50 1
  51   26   27 2
  52   28   29 ar
  53   28   51 1
  54   29   52 1
