@<TRIPOS>MOLECULE
ZINC000004334664
40    41    1     0     0
SMALL
USER_CHARGES
@<TRIPOS>ATOM
1      N1     -0.0167    1.3797    0.0096 N.pl3    1 ZINC000004334664   -0.8100
2      C2      0.0021   -0.0041    0.0020 C.ar     1 ZINC000004334664    0.5200
3      C3     -1.1953   -0.7393    0.0036 C.ar     1 ZINC000004334664   -0.1100
4      N4     -2.5111   -0.4171    0.0123 N.2      1 ZINC000004334664   -0.4400
5      C5     -3.2237   -1.5060    0.0097 C.2      1 ZINC000004334664    0.2400
6      N6     -2.4068   -2.5973   -0.0008 N.pl3    1 ZINC000004334664   -0.4800
7      C7     -2.8327   -3.9990   -0.0071 C.3      1 ZINC000004334664    0.1000
8      C8     -2.8531   -4.5322    1.4268 C.3      1 ZINC000004334664   -0.0300
9      N9     -3.2802   -5.9378    1.4205 N.4      1 ZINC000004334664   -0.5000
10     H10    -4.2050   -6.0065    1.0230 H        1 ZINC000004334664    0.4300
11     H11    -2.6353   -6.4828    0.8681 H        1 ZINC000004334664    0.4300
12     C12    -3.2997   -6.4498    2.7973 C.3      1 ZINC000004334664   -0.0100
13     C13    -3.7446   -7.9137    2.7907 C.3      1 ZINC000004334664   -0.1500
14     C14    -3.7649   -8.4469    4.2246 C.3      1 ZINC000004334664   -0.1200
15     C15    -4.2098   -9.9108    4.2181 C.3      1 ZINC000004334664   -0.1200
16     C16    -4.2301  -10.4441    5.6520 C.3      1 ZINC000004334664    0.0700
17     O17    -4.6456  -11.8113    5.6459 O.3      1 ZINC000004334664   -0.5800
18     C18    -1.1125   -2.1421   -0.0049 C.ar     1 ZINC000004334664    0.3000
19     N19     0.0849   -2.7183   -0.0145 N.ar     1 ZINC000004334664   -0.5700
20     C20     1.1806   -1.9886   -0.0159 C.ar     1 ZINC000004334664    0.3800
21     N21     1.1531   -0.6685   -0.0125 N.ar     1 ZINC000004334664   -0.5900
22     H22     0.8167    1.8761    0.0043 H        1 ZINC000004334664    0.4200
23     H23    -0.8632    1.8532    0.0162 H        1 ZINC000004334664    0.4200
24     H24    -4.3032   -1.5401    0.0154 H        1 ZINC000004334664    0.2300
25     H25    -3.8318   -4.0732   -0.4366 H        1 ZINC000004334664    0.1200
26     H26    -2.1361   -4.5877   -0.6038 H        1 ZINC000004334664    0.1200
27     H27    -1.8540   -4.4580    1.8563 H        1 ZINC000004334664    0.1400
28     H28    -3.5498   -3.9435    2.0236 H        1 ZINC000004334664    0.1400
29     H29    -2.3007   -6.3755    3.2267 H        1 ZINC000004334664    0.1300
30     H30    -3.9964   -5.8610    3.3940 H        1 ZINC000004334664    0.1300
31     H31    -4.7436   -7.9879    2.3612 H        1 ZINC000004334664    0.0900
32     H32    -3.0479   -8.5024    2.1940 H        1 ZINC000004334664    0.0900
33     H33    -2.7658   -8.3727    4.6541 H        1 ZINC000004334664    0.0800
34     H34    -4.4616   -7.8582    4.8214 H        1 ZINC000004334664    0.0800
35     H35    -5.2088   -9.9850    3.7886 H        1 ZINC000004334664    0.0700
36     H36    -3.5131  -10.4996    3.6213 H        1 ZINC000004334664    0.0700
37     H37    -3.2310  -10.3699    6.0814 H        1 ZINC000004334664    0.0500
38     H38    -4.9268   -9.8553    6.2487 H        1 ZINC000004334664    0.0500
39     H39    -4.6816  -12.2154    6.5236 H        1 ZINC000004334664    0.3900
40     H40     2.1380   -2.4885   -0.0238 H        1 ZINC000004334664    0.2100
@<TRIPOS>BOND
1     1     2     1
2     1     22    1
3     1     23    1
4     2     21    ar
5     2     3     ar
6     3     18    ar
7     3     4     1
8     4     5     2
9     5     6     1
10    5     24    1
11    6     7     1
12    6     18    1
13    7     8     1
14    7     25    1
15    7     26    1
16    8     9     1
17    8     27    1
18    8     28    1
19    9     10    1
20    9     11    1
21    9     12    1
22    12    13    1
23    12    29    1
24    12    30    1
25    13    14    1
26    13    31    1
27    13    32    1
28    14    15    1
29    14    33    1
30    14    34    1
31    15    16    1
32    15    35    1
33    15    36    1
34    16    17    1
35    16    37    1
36    16    38    1
37    17    39    1
38    18    19    ar
39    19    20    ar
40    20    21    ar
41    20    40    1
@<TRIPOS>SUBSTRUCTURE
1   ZINC000004334664 1     RESIDUE    1   A     ZIN   1
