@<TRIPOS>MOLECULE
ZINC000238856506
56    58    1     0     0
SMALL
USER_CHARGES
@<TRIPOS>ATOM
1      C1     -0.1150    1.8274    0.0237 C.3      1 ZINC000238856506    0.0200
2      N2     -0.0672    0.3596    0.0586 N.3      1 ZINC000238856506   -0.5400
3      C3      0.6363   -0.1159    1.2573 C.3      1 ZINC000238856506    0.0200
4      C4     -1.4176   -0.2131   -0.0211 C.3      1 ZINC000238856506    0.0900
5      C5     -2.0147    0.0942   -1.3702 C.ar     1 ZINC000238856506   -0.0800
6      C6     -2.7410    1.2556   -1.5563 C.ar     1 ZINC000238856506   -0.1100
7      C7     -3.2888    1.5375   -2.7938 C.ar     1 ZINC000238856506   -0.1200
8      C8     -3.1098    0.6582   -3.8454 C.ar     1 ZINC000238856506   -0.0800
9      C9     -3.7073    0.9653   -5.1943 C.3      1 ZINC000238856506   -0.0500
10     H10    -4.2403    1.9150   -5.1480 H        1 ZINC000238856506    0.0800
11     C11    -2.5917    1.0570   -6.2374 C.3      1 ZINC000238856506   -0.1100
12     C12    -3.1983    1.3687   -7.6069 C.3      1 ZINC000238856506   -0.1300
13     C13    -4.1725    0.2558   -7.9985 C.3      1 ZINC000238856506    0.1400
14     H14    -3.6395   -0.6939   -8.0449 H        1 ZINC000238856506    0.1000
15     N15    -4.7534    0.5543   -9.3099 N.am     1 ZINC000238856506   -0.6100
16     C16    -5.5239    1.7847   -9.5068 C.3      1 ZINC000238856506    0.0700
17     C17    -4.5789   -0.3029  -10.3352 C.2      1 ZINC000238856506    0.5600
18     O18    -4.0321   -1.3722  -10.1470 O.2      1 ZINC000238856506   -0.5300
19     C19    -5.0522    0.0571  -11.6881 C.ar     1 ZINC000238856506   -0.1300
20     C20    -4.9903    1.3825  -12.1226 C.ar     1 ZINC000238856506   -0.0800
21     C21    -5.4335    1.7123  -13.3860 C.ar     1 ZINC000238856506   -0.1200
22     C22    -5.9393    0.7318  -14.2235 C.ar     1 ZINC000238856506   -0.0100
23     Cl23   -6.4948    1.1546  -15.8129 Cl       1 ZINC000238856506   -0.0600
24     C24    -6.0032   -0.5848  -13.7980 C.ar     1 ZINC000238856506   -0.1200
25     C25    -5.5577   -0.9277  -12.5388 C.ar     1 ZINC000238856506   -0.0500
26     C26    -5.2881    0.1642   -6.9555 C.3      1 ZINC000238856506   -0.1300
27     C27    -4.6815   -0.1476   -5.5859 C.3      1 ZINC000238856506   -0.1100
28     C28    -2.3823   -0.5024   -3.6597 C.ar     1 ZINC000238856506   -0.1100
29     C29    -1.8314   -0.7825   -2.4232 C.ar     1 ZINC000238856506   -0.1000
30     H30     0.9003    2.2239    0.0134 H        1 ZINC000238856506    0.0700
31     H31    -0.6412    2.1526   -0.8738 H        1 ZINC000238856506    0.0700
32     H32    -0.6396    2.1949    0.9057 H        1 ZINC000238856506    0.0200
33     H33     0.0788    0.1784    2.1465 H        1 ZINC000238856506    0.0300
34     H34     0.7189   -1.2022    1.2232 H        1 ZINC000238856506    0.0700
35     H35     1.6333    0.3234    1.2917 H        1 ZINC000238856506    0.0700
36     H36    -1.3628   -1.2932    0.1144 H        1 ZINC000238856506    0.0800
37     H37    -2.0426    0.2198    0.7600 H        1 ZINC000238856506    0.0400
38     H38    -2.8809    1.9425   -0.7347 H        1 ZINC000238856506    0.1200
39     H39    -3.8568    2.4445   -2.9390 H        1 ZINC000238856506    0.1200
40     H40    -1.8977    1.8498   -5.9584 H        1 ZINC000238856506    0.0700
41     H41    -2.0587    0.1073   -6.2837 H        1 ZINC000238856506    0.0700
42     H42    -3.7313    2.3184   -7.5606 H        1 ZINC000238856506    0.0700
43     H43    -2.4036    1.4340   -8.3500 H        1 ZINC000238856506    0.0700
44     H44    -4.8452    2.6049   -9.7406 H        1 ZINC000238856506    0.0600
45     H45    -6.2244    1.6467  -10.3305 H        1 ZINC000238856506    0.0800
46     H46    -6.0754    2.0177   -8.5960 H        1 ZINC000238856506    0.0800
47     H47    -4.5964    2.1479  -11.4704 H        1 ZINC000238856506    0.1400
48     H48    -5.3864    2.7373  -13.7231 H        1 ZINC000238856506    0.1400
49     H49    -6.3986   -1.3450  -14.4553 H        1 ZINC000238856506    0.1400
50     H50    -5.6077   -1.9547  -12.2082 H        1 ZINC000238856506    0.1400
51     H51    -5.8210    1.1139   -6.9091 H        1 ZINC000238856506    0.0700
52     H52    -5.9821   -0.6287   -7.2345 H        1 ZINC000238856506    0.0700
53     H53    -4.1485   -1.0973   -5.6323 H        1 ZINC000238856506    0.0700
54     H54    -5.4762   -0.2129   -4.8428 H        1 ZINC000238856506    0.0700
55     H55    -2.2422   -1.1892   -4.4813 H        1 ZINC000238856506    0.1200
56     H56    -1.2630   -1.6893   -2.2781 H        1 ZINC000238856506    0.1200
@<TRIPOS>BOND
1     1     2     1
2     1     30    1
3     1     31    1
4     1     32    1
5     2     3     1
6     2     4     1
7     3     33    1
8     3     34    1
9     3     35    1
10    4     5     1
11    4     36    1
12    4     37    1
13    5     29    ar
14    5     6     ar
15    6     7     ar
16    6     38    1
17    7     8     ar
18    7     39    1
19    8     9     1
20    8     28    ar
21    9     10    1
22    9     27    1
23    9     11    1
24    11    12    1
25    11    40    1
26    11    41    1
27    12    13    1
28    12    42    1
29    12    43    1
30    13    14    1
31    13    15    1
32    13    26    1
33    15    16    1
34    15    17    am
35    16    44    1
36    16    45    1
37    16    46    1
38    17    18    2
39    17    19    1
40    19    25    ar
41    19    20    ar
42    20    21    ar
43    20    47    1
44    21    22    ar
45    21    48    1
46    22    23    1
47    22    24    ar
48    24    25    ar
49    24    49    1
50    25    50    1
51    26    27    1
52    26    51    1
53    26    52    1
54    27    53    1
55    27    54    1
56    28    29    ar
57    28    55    1
58    29    56    1
@<TRIPOS>SUBSTRUCTURE
1   ZINC000238856506 1     RESIDUE    1   A     ZIN   1
