@<TRIPOS>MOLECULE
ZINC000000005219
29    30    1     0     0
SMALL
USER_CHARGES
@<TRIPOS>ATOM
1      C1      0.0040    1.5213    0.0265 C.3      1 ZINC000000005219   -0.1200
2      C2      0.0042   -0.0086    0.0050 C.3      1 ZINC000000005219   -0.1400
3      H3     -1.0234   -0.3721    0.0046 H        1 ZINC000000005219    0.0700
4      C4      0.7204   -0.5280    1.2250 C.2      1 ZINC000000005219    0.5000
5      O5      0.2881   -1.5023    1.8169 O.co2    1 ZINC000000005219   -0.6900
6      O6      1.7320    0.0260    1.6201 O.co2    1 ZINC000000005219   -0.6900
7      C7      0.7090   -0.4934   -1.2357 C.ar     1 ZINC000000005219    0.0000
8      C8      2.0345   -0.1586   -1.4501 C.ar     1 ZINC000000005219   -0.1200
9      C9      2.6854   -0.5987   -2.5839 C.ar     1 ZINC000000005219   -0.0600
10     C10     2.0041   -1.3839   -3.5158 C.ar     1 ZINC000000005219   -0.2000
11     C11     2.6957   -1.8597   -4.7332 C.2      1 ZINC000000005219    0.4800
12     O12     3.8253   -1.4787   -4.9797 O.2      1 ZINC000000005219   -0.4500
13     C13     2.0218   -2.7891   -5.6423 C.2      1 ZINC000000005219   -0.0900
14     C14     2.5803   -3.3903   -6.7495 C.2      1 ZINC000000005219   -0.1300
15     C15     1.5796   -4.1935   -7.3151 C.2      1 ZINC000000005219   -0.2300
16     C16     0.4744   -4.0544   -6.5484 C.2      1 ZINC000000005219   -0.0100
17     O17     0.7450   -3.2141   -5.5417 O.3      1 ZINC000000005219   -0.1500
18     C18     0.6670   -1.7184   -3.2930 C.ar     1 ZINC000000005219   -0.0700
19     C19     0.0295   -1.2760   -2.1525 C.ar     1 ZINC000000005219   -0.1400
20     H20     1.0316    1.8848    0.0269 H        1 ZINC000000005219    0.0600
21     H21    -0.5139    1.8970   -0.8559 H        1 ZINC000000005219    0.0400
22     H22    -0.5058    1.8720    0.9239 H        1 ZINC000000005219    0.0500
23     H23     2.5603    0.4488   -0.7284 H        1 ZINC000000005219    0.1400
24     H24     3.7197   -0.3362   -2.7504 H        1 ZINC000000005219    0.1300
25     H25     3.5906   -3.2669   -7.1108 H        1 ZINC000000005219    0.1600
26     H26     1.6738   -4.8079   -8.1984 H        1 ZINC000000005219    0.1600
27     H27    -0.4726   -4.5448   -6.7186 H        1 ZINC000000005219    0.2100
28     H28     0.1342   -2.3252   -4.0101 H        1 ZINC000000005219    0.1400
29     H29    -1.0046   -1.5343   -1.9787 H        1 ZINC000000005219    0.1300
@<TRIPOS>BOND
1     1     2     1
2     1     20    1
3     1     21    1
4     1     22    1
5     2     3     1
6     2     4     1
7     2     7     1
8     4     5     ar
9     4     6     ar
10    7     19    ar
11    7     8     ar
12    8     9     ar
13    8     23    1
14    9     10    ar
15    9     24    1
16    10    11    1
17    10    18    ar
18    11    12    2
19    11    13    1
20    13    17    1
21    13    14    2
22    14    15    1
23    14    25    1
24    15    16    2
25    15    26    1
26    16    17    1
27    16    27    1
28    18    19    ar
29    18    28    1
30    19    29    1
@<TRIPOS>SUBSTRUCTURE
1   ZINC000000005219 1     RESIDUE    1   A     ZIN   1
