@<TRIPOS>MOLECULE
ZINC000000598353
57    60    1     0     0
SMALL
USER_CHARGES
@<TRIPOS>ATOM
1      C1     -0.0173    1.4248    0.0099 C.3      1 ZINC000000598353    0.0300
2      O2      0.0021   -0.0041    0.0020 O.3      1 ZINC000000598353   -0.3100
3      C3      0.6258   -0.6184    1.0415 C.ar     1 ZINC000000598353    0.1600
4      C4      1.2024    0.1390    2.0515 C.ar     1 ZINC000000598353   -0.2300
5      C5      1.8367   -0.4849    3.1092 C.ar     1 ZINC000000598353   -0.0500
6      C6      1.8994   -1.8637    3.1650 C.ar     1 ZINC000000598353   -0.1900
7      C7      1.3239   -2.6267    2.1568 C.ar     1 ZINC000000598353    0.2000
8      C8      0.6820   -2.0019    1.0972 C.ar     1 ZINC000000598353   -0.1600
9      C9      0.0574   -2.8299    0.0046 C.3      1 ZINC000000598353   -0.0700
10     C10     0.8911   -4.0918   -0.2203 C.3      1 ZINC000000598353   -0.1400
11     C11     1.1813   -4.7559    1.0987 C.2      1 ZINC000000598353    0.5200
12     O12     1.2279   -5.9662    1.1630 O.2      1 ZINC000000598353   -0.5200
13     N13     1.3851   -4.0226    2.2102 N.am     1 ZINC000000598353   -0.5500
14     C14     1.6837   -4.6920    3.4787 C.3      1 ZINC000000598353    0.1100
15     C15     3.1974   -4.8633    3.6210 C.3      1 ZINC000000598353   -0.1400
16     C16     3.5092   -5.5624    4.9457 C.3      1 ZINC000000598353    0.0600
17     N17     4.9626   -5.7269    5.0823 N.3      1 ZINC000000598353   -0.5400
18     C18     5.5533   -6.2430    3.8396 C.3      1 ZINC000000598353    0.0500
19     C19     7.0736   -6.3245    3.9961 C.3      1 ZINC000000598353    0.0500
20     N20     7.4004   -7.1965    5.1330 N.3      1 ZINC000000598353   -0.4900
21     C21     8.7823   -7.3529    5.2629 C.ar     1 ZINC000000598353    0.1300
22     C22     9.6412   -6.7138    4.3779 C.ar     1 ZINC000000598353   -0.1700
23     C23    11.0074   -6.8697    4.5089 C.ar     1 ZINC000000598353   -0.0800
24     C24    11.5209   -7.6613    5.5193 C.ar     1 ZINC000000598353   -0.1400
25     C25    10.6682   -8.3002    6.4029 C.ar     1 ZINC000000598353   -0.0100
26     Cl26   11.3175   -9.2938    7.6698 Cl       1 ZINC000000598353   -0.0700
27     C27     9.3006   -8.1432    6.2809 C.ar     1 ZINC000000598353   -0.1300
28     C28     6.8097   -6.6804    6.3757 C.3      1 ZINC000000598353    0.0600
29     C29     5.2894   -6.5989    6.2192 C.3      1 ZINC000000598353    0.0500
30     H30     1.0053    1.8021    0.0021 H        1 ZINC000000598353    0.0600
31     H31    -0.5445    1.7859   -0.8732 H        1 ZINC000000598353    0.1000
32     H32    -0.5275    1.7763    0.9067 H        1 ZINC000000598353    0.0600
33     H33     1.1556    1.2172    2.0108 H        1 ZINC000000598353    0.1300
34     H34     2.2848    0.1069    3.8936 H        1 ZINC000000598353    0.1300
35     H35     2.3962   -2.3485    3.9923 H        1 ZINC000000598353    0.1300
36     H36    -0.9550   -3.1105    0.2952 H        1 ZINC000000598353    0.0800
37     H37     0.0226   -2.2486   -0.9168 H        1 ZINC000000598353    0.1000
38     H38     0.3392   -4.7813   -0.8592 H        1 ZINC000000598353    0.1100
39     H39     1.8300   -3.8239   -0.7050 H        1 ZINC000000598353    0.1000
40     H40     1.3069   -4.0893    4.3051 H        1 ZINC000000598353    0.0900
41     H41     1.2042   -5.6708    3.4946 H        1 ZINC000000598353    0.0900
42     H42     3.5741   -5.4660    2.7946 H        1 ZINC000000598353    0.0700
43     H43     3.6769   -3.8845    3.6050 H        1 ZINC000000598353    0.0800
44     H44     3.1325   -4.9597    5.7721 H        1 ZINC000000598353    0.0800
45     H45     3.0297   -6.5412    4.9617 H        1 ZINC000000598353    0.0400
46     H46     5.1552   -7.2364    3.6329 H        1 ZINC000000598353    0.0500
47     H47     5.3080   -5.5737    3.0150 H        1 ZINC000000598353    0.0900
48     H48     7.5114   -6.7343    3.0859 H        1 ZINC000000598353    0.0900
49     H49     7.4748   -5.3271    4.1758 H        1 ZINC000000598353    0.0600
50     H50     9.2411   -6.0957    3.5878 H        1 ZINC000000598353    0.1300
51     H51    11.6753   -6.3728    3.8209 H        1 ZINC000000598353    0.1300
52     H52    12.5895   -7.7817    5.6191 H        1 ZINC000000598353    0.1300
53     H53     8.6354   -8.6417    6.9703 H        1 ZINC000000598353    0.1400
54     H54     7.0550   -7.3497    7.2003 H        1 ZINC000000598353    0.0900
55     H55     7.2078   -5.6870    6.5824 H        1 ZINC000000598353    0.0600
56     H56     4.8516   -6.1890    7.1294 H        1 ZINC000000598353    0.0900
57     H57     4.8883   -7.5963    6.0395 H        1 ZINC000000598353    0.0500
@<TRIPOS>BOND
1     1     2     1
2     1     30    1
3     1     31    1
4     1     32    1
5     2     3     1
6     3     8     ar
7     3     4     ar
8     4     5     ar
9     4     33    1
10    5     6     ar
11    5     34    1
12    6     7     ar
13    6     35    1
14    7     13    1
15    7     8     ar
16    8     9     1
17    9     10    1
18    9     36    1
19    9     37    1
20    10    11    1
21    10    38    1
22    10    39    1
23    11    12    2
24    11    13    am
25    13    14    1
26    14    15    1
27    14    40    1
28    14    41    1
29    15    16    1
30    15    42    1
31    15    43    1
32    16    17    1
33    16    44    1
34    16    45    1
35    17    29    1
36    17    18    1
37    18    19    1
38    18    46    1
39    18    47    1
40    19    20    1
41    19    48    1
42    19    49    1
43    20    21    1
44    20    28    1
45    21    27    ar
46    21    22    ar
47    22    23    ar
48    22    50    1
49    23    24    ar
50    23    51    1
51    24    25    ar
52    24    52    1
53    25    26    1
54    25    27    ar
55    27    53    1
56    28    29    1
57    28    54    1
58    28    55    1
59    29    56    1
60    29    57    1
@<TRIPOS>SUBSTRUCTURE
1   ZINC000000598353 1     RESIDUE    1   A     ZIN   1
