@<TRIPOS>MOLECULE
ZINC000004214715
  39   38    0    0    0
SMALL
USER_CHARGES
NO_NAME
@<TRIPOS>ATOM
    1 C1       -0.1599     1.3915    -2.6498 C.3    1 <0>      -0.1700
    2 C2       -0.0747    -0.1074    -2.5195 C.2    1 <0>       0.5100
    3 O3       -0.0183    -0.8002    -3.5134 O.2    1 <0>      -0.5300
    4 N4       -0.0612    -0.6780    -1.2986 N.am   1 <0>      -0.7300
    5 C5       -0.0887    -2.1373    -1.1718 C.3    1 <0>       0.0800
    6 H6       -0.0264    -2.5893    -2.1617 H      1 <0>       0.1200
    7 C7        1.0996    -2.5980    -0.3251 C.3    1 <0>       0.0800
    8 H8        1.0373    -2.1460     0.6648 H      1 <0>       0.1200
    9 O9        1.0728    -4.0214    -0.2014 O.3    1 <0>      -0.5400
   10 C10       2.4037    -2.1692    -1.0005 C.3    1 <0>       0.0500
   11 H11       2.4647    -1.0810    -1.0150 H      1 <0>       0.1100
   12 O12       2.4321    -2.6657    -2.3402 O.3    1 <0>      -0.5400
   13 C13       3.5920    -2.7362    -0.2212 C.3    1 <0>       0.0800
   14 H14       3.5311    -3.8244    -0.2067 H      1 <0>       0.1100
   15 O15       3.5637    -2.2397     1.1185 O.3    1 <0>      -0.5400
   16 C16       4.8962    -2.3074    -0.8966 C.3    1 <0>       0.0500
   17 O17       6.0008    -2.9313    -0.2387 O.3    1 <0>      -0.5700
   18 C18      -1.3928    -2.5661    -0.4964 C.3    1 <0>       0.1100
   19 H19      -1.4223    -3.6530    -0.4203 H      1 <0>       0.1100
   20 O20      -1.4620    -1.9950     0.8117 O.3    1 <0>      -0.5400
   21 C21      -2.5816    -2.0806    -1.3283 C.3    1 <0>      -0.1900
   22 C22      -3.8611    -2.6067    -0.7308 C.2    1 <0>       0.3000
   23 O23      -3.8259    -3.2986     0.2585 O.2    1 <0>      -0.4400
   24 C24      -5.1728    -2.2725    -1.3620 C.2    1 <0>       0.4600
   25 O25      -6.2091    -2.6985    -0.8781 O.co2  1 <0>      -0.6600
   26 O26      -5.2084    -1.5733    -2.3617 O.co2  1 <0>      -0.6700
   27 H27      -1.2062     1.6932    -2.6978 H      1 <0>       0.1000
   28 H28       0.3137     1.8588    -1.7864 H      1 <0>       0.0800
   29 H29       0.3512     1.7068    -3.5594 H      1 <0>       0.0900
   30 H30      -0.0334    -0.1226    -0.5039 H      1 <0>       0.4000
   31 H31       1.1248    -4.4906    -1.0453 H      1 <0>       0.3700
   32 H32       2.3813    -3.6293    -2.4036 H      1 <0>       0.3700
   33 H33       3.6145    -1.2761     1.1819 H      1 <0>       0.3700
   34 H34       4.8794    -2.6093    -1.9438 H      1 <0>       0.0600
   35 H35       4.9996    -1.2243    -0.8323 H      1 <0>       0.0500
   36 H36       6.8621    -2.7041    -0.6151 H      1 <0>       0.3800
   37 H37      -1.3666    -1.0328     0.8264 H      1 <0>       0.3600
   38 H38      -2.6027    -0.9908    -1.3304 H      1 <0>       0.0900
   39 H39      -2.4819    -2.4441    -2.3511 H      1 <0>       0.1000
@<TRIPOS>BOND
   1    1    2 1
   2    1   27 1
   3    1   28 1
   4    1   29 1
   5    2    3 2
   6    2    4 am
   7    4    5 1
   8    4   30 1
   9    5    6 1
  10    5    7 1
  11    5   18 1
  12    7    8 1
  13    7    9 1
  14    7   10 1
  15    9   31 1
  16   10   11 1
  17   10   12 1
  18   10   13 1
  19   12   32 1
  20   13   14 1
  21   13   15 1
  22   13   16 1
  23   15   33 1
  24   16   17 1
  25   16   34 1
  26   16   35 1
  27   17   36 1
  28   18   19 1
  29   18   20 1
  30   18   21 1
  31   20   37 1
  32   21   22 1
  33   21   38 1
  34   21   39 1
  35   22   23 2
  36   22   24 1
  37   24   25 ar
  38   24   26 ar
