@<TRIPOS>MOLECULE
ZINC000254442039
70    73    1     0     0
SMALL
USER_CHARGES
@<TRIPOS>ATOM
1      C1     -1.1606    2.0607   -1.3783 C.3      1 ZINC000254442039   -0.1500
2      C2     -0.8628    0.5862   -1.0988 C.3      1 ZINC000254442039   -0.1200
3      C3     -2.1771   -0.1692   -0.8917 C.3      1 ZINC000254442039   -0.1100
4      C4     -1.8794   -1.6437   -0.6122 C.3      1 ZINC000254442039   -0.1100
5      C5     -3.1740   -2.3876   -0.4082 C.2      1 ZINC000254442039    0.4500
6      O6     -4.2267   -1.7989   -0.4790 O.2      1 ZINC000254442039   -0.4900
7      O7     -3.1575   -3.7043   -0.1478 O.3      1 ZINC000254442039   -0.3400
8      C8     -4.4341   -4.3369    0.1324 C.3      1 ZINC000254442039    0.0900
9      C9     -5.0694   -3.7091    1.3462 C.2      1 ZINC000254442039    0.3600
10     O10    -6.2671   -3.5616    1.3927 O.2      1 ZINC000254442039   -0.4000
11     C11    -4.2101   -3.2653    2.5019 C.3      1 ZINC000254442039    0.0200
12     O12    -5.0220   -2.5983    3.4705 O.3      1 ZINC000254442039   -0.5400
13     C13    -5.3705   -4.2088   -1.0867 C.3      1 ZINC000254442039   -0.1300
14     C14    -5.7056   -5.6487   -1.5342 C.3      1 ZINC000254442039   -0.1200
15     C15    -5.4943   -6.4977   -0.2448 C.3      1 ZINC000254442039   -0.0800
16     H16    -5.3357   -7.5526   -0.4685 H        1 ZINC000254442039    0.1000
17     C17    -6.7403   -6.2785    0.6233 C.3      1 ZINC000254442039   -0.1000
18     H18    -7.0037   -5.2214    0.5871 H        1 ZINC000254442039    0.1000
19     C19    -7.8763   -7.0806   -0.0061 C.3      1 ZINC000254442039   -0.1100
20     C20    -8.9560   -7.4594    0.9965 C.3      1 ZINC000254442039   -0.0900
21     C21    -8.9629   -6.4596    2.1258 C.2      1 ZINC000254442039   -0.0200
22     C22   -10.0489   -5.7391    2.3862 C.2      1 ZINC000254442039   -0.2400
23     C23   -10.0603   -4.7594    3.4708 C.2      1 ZINC000254442039    0.3900
24     O24   -11.0690   -4.1282    3.7081 O.2      1 ZINC000254442039   -0.4700
25     C25    -8.8176   -4.5339    4.2953 C.3      1 ZINC000254442039   -0.1700
26     C26    -7.5886   -4.8673    3.4426 C.3      1 ZINC000254442039   -0.1200
27     C27    -7.7083   -6.3086    2.9435 C.3      1 ZINC000254442039   -0.0200
28     C28    -7.7625   -7.2597    4.1408 C.3      1 ZINC000254442039   -0.1400
29     C29    -6.4962   -6.6645    2.0710 C.3      1 ZINC000254442039   -0.0500
30     H30    -6.2870   -7.7310    2.1531 H        1 ZINC000254442039    0.0800
31     C31    -5.3036   -5.8621    2.6131 C.3      1 ZINC000254442039    0.0500
32     H32    -5.5081   -4.7957    2.5173 H        1 ZINC000254442039    0.1000
33     O33    -5.0951   -6.1868    3.9890 O.3      1 ZINC000254442039   -0.5500
34     C34    -4.0562   -6.2167    1.8088 C.3      1 ZINC000254442039   -0.1500
35     C35    -4.2412   -5.8426    0.3550 C.3      1 ZINC000254442039   -0.0300
36     C36    -3.0124   -6.2932   -0.4374 C.3      1 ZINC000254442039   -0.1400
37     H37    -0.2242    2.5988   -1.5258 H        1 ZINC000254442039    0.0600
38     H38    -1.7729    2.1439   -2.2762 H        1 ZINC000254442039    0.0600
39     H39    -1.6967    2.4898   -0.5318 H        1 ZINC000254442039    0.0600
40     H40    -0.3266    0.1570   -1.9453 H        1 ZINC000254442039    0.0700
41     H41    -0.2505    0.5030   -0.2009 H        1 ZINC000254442039    0.0600
42     H42    -2.7133    0.2600   -0.0453 H        1 ZINC000254442039    0.0700
43     H43    -2.7894   -0.0860   -1.7896 H        1 ZINC000254442039    0.0700
44     H44    -1.3432   -2.0728   -1.4587 H        1 ZINC000254442039    0.1100
45     H45    -1.2671   -1.7269    0.2857 H        1 ZINC000254442039    0.1100
46     H46    -3.7392   -4.1353    2.9596 H        1 ZINC000254442039    0.0800
47     H47    -3.4403   -2.5831    2.1414 H        1 ZINC000254442039    0.0700
48     H48    -4.5337   -2.2846    4.2440 H        1 ZINC000254442039    0.3900
49     H49    -6.2826   -3.6833   -0.8040 H        1 ZINC000254442039    0.1000
50     H50    -4.8652   -3.6751   -1.8918 H        1 ZINC000254442039    0.0800
51     H51    -6.7405   -5.7140   -1.8701 H        1 ZINC000254442039    0.0800
52     H52    -5.0253   -5.9729   -2.3217 H        1 ZINC000254442039    0.0700
53     H53    -8.3275   -6.4870   -0.8012 H        1 ZINC000254442039    0.0700
54     H54    -7.4648   -7.9916   -0.4407 H        1 ZINC000254442039    0.0700
55     H55    -9.9278   -7.4569    0.5027 H        1 ZINC000254442039    0.0800
56     H56    -8.7516   -8.4541    1.3926 H        1 ZINC000254442039    0.0800
57     H57   -10.9364   -5.8794    1.7870 H        1 ZINC000254442039    0.1300
58     H58    -8.7720   -3.4910    4.6092 H        1 ZINC000254442039    0.0900
59     H59    -8.8393   -5.1803    5.1727 H        1 ZINC000254442039    0.1000
60     H60    -7.5402   -4.1889    2.5909 H        1 ZINC000254442039    0.1000
61     H61    -6.6866   -4.7636    4.0458 H        1 ZINC000254442039    0.0900
62     H62    -8.6264   -7.0163    4.7593 H        1 ZINC000254442039    0.0500
63     H63    -7.8478   -8.2866    3.7854 H        1 ZINC000254442039    0.0500
64     H64    -6.8519   -7.1537    4.7305 H        1 ZINC000254442039    0.0900
65     H65    -4.3558   -5.7153    4.3967 H        1 ZINC000254442039    0.3700
66     H66    -3.2043   -5.6614    2.2011 H        1 ZINC000254442039    0.0700
67     H67    -3.8598   -7.2850    1.9005 H        1 ZINC000254442039    0.0900
68     H68    -2.9058   -7.3751   -0.3584 H        1 ZINC000254442039    0.0600
69     H69    -3.1334   -6.0155   -1.4845 H        1 ZINC000254442039    0.0600
70     H70    -2.1226   -5.8100   -0.0339 H        1 ZINC000254442039    0.0700
@<TRIPOS>BOND
1     1     2     1
2     1     37    1
3     1     38    1
4     1     39    1
5     2     3     1
6     2     40    1
7     2     41    1
8     3     4     1
9     3     42    1
10    3     43    1
11    4     5     1
12    4     44    1
13    4     45    1
14    5     6     2
15    5     7     1
16    7     8     1
17    8     35    1
18    8     9     1
19    8     13    1
20    9     10    2
21    9     11    1
22    11    12    1
23    11    46    1
24    11    47    1
25    12    48    1
26    13    14    1
27    13    49    1
28    13    50    1
29    14    15    1
30    14    51    1
31    14    52    1
32    15    16    1
33    15    35    1
34    15    17    1
35    17    18    1
36    17    29    1
37    17    19    1
38    19    20    1
39    19    53    1
40    19    54    1
41    20    21    1
42    20    55    1
43    20    56    1
44    21    27    1
45    21    22    2
46    22    23    1
47    22    57    1
48    23    24    2
49    23    25    1
50    25    26    1
51    25    58    1
52    25    59    1
53    26    27    1
54    26    60    1
55    26    61    1
56    27    28    1
57    27    29    1
58    28    62    1
59    28    63    1
60    28    64    1
61    29    30    1
62    29    31    1
63    31    32    1
64    31    33    1
65    31    34    1
66    33    65    1
67    34    35    1
68    34    66    1
69    34    67    1
70    35    36    1
71    36    68    1
72    36    69    1
73    36    70    1
@<TRIPOS>SUBSTRUCTURE
1   ZINC000254442039 1     RESIDUE    1   A     ZIN   1
