@<TRIPOS>MOLECULE
ZINC000000575546
  51   53    0    0    0
SMALL
USER_CHARGES
NO_NAME
@<TRIPOS>ATOM
    1 O1        0.0280     0.0035    -0.2272 O.2    1 <0>      -0.5300
    2 C2       -0.0029     1.1937     0.0037 C.2    1 <0>       0.5300
    3 C3        1.2677     2.0028    -0.0392 C.3    1 <0>      -0.1100
    4 C4        2.4248     1.1029    -0.3890 C.ar   1 <0>      -0.0500
    5 C5        3.1317     0.4649     0.6130 C.ar   1 <0>      -0.1000
    6 C6        4.1931    -0.3606     0.2921 C.ar   1 <0>      -0.0700
    7 C7        4.5472    -0.5485    -1.0308 C.ar   1 <0>      -0.1700
    8 C8        5.7046    -1.4481    -1.3806 C.3    1 <0>       0.5100
    9 F9        5.2407    -2.7553    -1.5628 F      1 <0>      -0.1800
   10 F10       6.3051    -0.9976    -2.5611 F      1 <0>      -0.1700
   11 F11       6.6423    -1.4264    -0.3426 F      1 <0>      -0.1700
   12 C12       3.8394     0.0885    -2.0329 C.ar   1 <0>      -0.0700
   13 C13       2.7757     0.9110    -1.7122 C.ar   1 <0>      -0.1100
   14 N14      -1.1745     1.7938     0.2930 N.am   1 <0>      -0.6000
   15 C15      -1.2140     3.2097     0.6833 C.3    1 <0>       0.1000
   16 C16      -2.2032     3.9446    -0.2268 C.3    1 <0>      -0.1400
   17 C17      -3.5605     3.2396    -0.1728 C.3    1 <0>      -0.1200
   18 C18      -3.4119     1.8036    -0.6807 C.3    1 <0>      -0.1600
   19 C19      -2.4371     1.0461     0.2183 C.3    1 <0>       0.1300
   20 H20      -2.8596     0.9530     1.2188 H      1 <0>       0.0900
   21 C21      -2.1806    -0.3463    -0.3617 C.3    1 <0>       0.0000
   22 N22      -3.4531    -1.0714    -0.4753 N.4    1 <0>      -0.4000
   23 H23      -4.0542    -0.8441     0.3025 H      1 <0>       0.4200
   24 C24      -4.1233    -0.7321    -1.7567 C.3    1 <0>      -0.0200
   25 C25      -5.0803    -1.9292    -1.9841 C.3    1 <0>      -0.1500
   26 C26      -4.2545    -3.1333    -1.4759 C.3    1 <0>      -0.1400
   27 C27      -3.2072    -2.5291    -0.5208 C.3    1 <0>       0.0000
   28 H28       1.1751     2.7851    -0.7926 H      1 <0>       0.1200
   29 H29       1.4425     2.4568     0.9363 H      1 <0>       0.1200
   30 H30       2.8550     0.6116     1.6466 H      1 <0>       0.1300
   31 H31       4.7458    -0.8586     1.0751 H      1 <0>       0.1400
   32 H32       4.1159    -0.0586    -3.0665 H      1 <0>       0.1400
   33 H33       2.2227     1.4086    -2.4952 H      1 <0>       0.1300
   34 H34      -1.5394     3.2940     1.7201 H      1 <0>       0.0800
   35 H35      -0.2217     3.6470     0.5729 H      1 <0>       0.1000
   36 H36      -2.3143     4.9743     0.1130 H      1 <0>       0.0900
   37 H37      -1.8300     3.9372    -1.2509 H      1 <0>       0.0700
   38 H38      -3.9217     3.2255     0.8556 H      1 <0>       0.0700
   39 H39      -4.2730     3.7749    -0.8004 H      1 <0>       0.0800
   40 H40      -4.3834     1.3095    -0.6639 H      1 <0>       0.0800
   41 H41      -3.0273     1.8164    -1.7005 H      1 <0>       0.0800
   42 H42      -1.7273    -0.2510    -1.3484 H      1 <0>       0.1400
   43 H43      -1.5070    -0.8955     0.2961 H      1 <0>       0.1600
   44 H44      -4.6851     0.1971    -1.6628 H      1 <0>       0.1400
   45 H45      -3.3953    -0.6627    -2.5650 H      1 <0>       0.1300
   46 H46      -5.9915    -1.8113    -1.3976 H      1 <0>       0.1000
   47 H47      -5.3136    -2.0408    -3.0429 H      1 <0>       0.1200
   48 H48      -4.8959    -3.8324    -0.9392 H      1 <0>       0.1000
   49 H49      -3.7628    -3.6338    -2.3101 H      1 <0>       0.1000
   50 H50      -2.2036    -2.7238    -0.8990 H      1 <0>       0.1300
   51 H51      -3.3214    -2.9580     0.4748 H      1 <0>       0.1300
@<TRIPOS>BOND
   1    1    2 2
   2    2    3 1
   3    2   14 am
   4    3    4 1
   5    3   28 1
   6    3   29 1
   7    4   13 ar
   8    4    5 ar
   9    5    6 ar
  10    5   30 1
  11    6    7 ar
  12    6   31 1
  13    7    8 1
  14    7   12 ar
  15    8    9 1
  16    8   10 1
  17    8   11 1
  18   12   13 ar
  19   12   32 1
  20   13   33 1
  21   14   19 1
  22   14   15 1
  23   15   16 1
  24   15   34 1
  25   15   35 1
  26   16   17 1
  27   16   36 1
  28   16   37 1
  29   17   18 1
  30   17   38 1
  31   17   39 1
  32   18   19 1
  33   18   40 1
  34   18   41 1
  35   19   20 1
  36   19   21 1
  37   21   22 1
  38   21   42 1
  39   21   43 1
  40   22   23 1
  41   22   27 1
  42   22   24 1
  43   24   25 1
  44   24   44 1
  45   24   45 1
  46   25   26 1
  47   25   46 1
  48   25   47 1
  49   26   27 1
  50   26   48 1
  51   26   49 1
  52   27   50 1
  53   27   51 1
