@<TRIPOS>MOLECULE
ZINC000031291771
45    48    1     0     0
SMALL
USER_CHARGES
@<TRIPOS>ATOM
1      C1     -0.0187    1.5258    0.0104 C.3      1 ZINC000031291771   -0.1500
2      C2      0.0021   -0.0041    0.0020 C.3      1 ZINC000031291771   -0.1200
3      C3     -1.4072   -0.5253    0.1843 C.3      1 ZINC000031291771   -0.1000
4      C4     -1.9729    0.0967    1.4749 C.3      1 ZINC000031291771   -0.1200
5      C5     -1.0821   -0.2294    2.6658 C.3      1 ZINC000031291771   -0.0600
6      H6     -1.0895   -1.3080    2.8233 H        1 ZINC000031291771    0.0800
7      C7      0.3648    0.2221    2.4212 C.3      1 ZINC000031291771   -0.0500
8      H8      0.3683    1.2926    2.2161 H        1 ZINC000031291771    0.1000
9      C9      1.2223   -0.0427    3.6158 C.2      1 ZINC000031291771   -0.1400
10     C10     0.7308   -0.1657    4.8479 C.2      1 ZINC000031291771   -0.1100
11     C11    -0.7141   -0.0658    5.0819 C.2      1 ZINC000031291771   -0.1500
12     C12    -1.2258   -0.3991    6.2900 C.2      1 ZINC000031291771    0.1100
13     N13    -0.3719   -0.7330    7.3412 N.pl3    1 ZINC000031291771   -0.8600
14     C14    -2.6811   -0.4087    6.4938 C.2      1 ZINC000031291771    0.4200
15     O15    -3.1534   -0.6088    7.5985 O.2      1 ZINC000031291771   -0.4500
16     C16    -3.5557   -0.1716    5.3335 C.2      1 ZINC000031291771   -0.2200
17     C17    -3.0338    0.1960    4.1724 C.2      1 ZINC000031291771   -0.0600
18     C18    -1.5737    0.4535    3.9374 C.3      1 ZINC000031291771    0.0200
19     C19    -1.3861    1.9632    3.7741 C.3      1 ZINC000031291771   -0.1400
20     C20     0.8621   -0.5115    1.1932 C.3      1 ZINC000031291771   -0.0700
21     H21     0.7582   -1.5893    1.3184 H        1 ZINC000031291771    0.0900
22     C22     2.2779   -0.1508    0.7259 C.3      1 ZINC000031291771   -0.1100
23     C23     2.2372   -0.5101   -0.7846 C.3      1 ZINC000031291771   -0.1800
24     C24     0.7512   -0.4831   -1.2046 C.2      1 ZINC000031291771    0.3800
25     O25     0.2952   -0.7726   -2.2846 O.2      1 ZINC000031291771   -0.4400
26     H26     1.0040    1.9030    0.0172 H        1 ZINC000031291771    0.0600
27     H27    -0.5333    1.8871   -0.8799 H        1 ZINC000031291771    0.0600
28     H28    -0.5414    1.8772    0.9000 H        1 ZINC000031291771    0.0800
29     H29    -2.0221   -0.2333   -0.6670 H        1 ZINC000031291771    0.0700
30     H30    -1.3907   -1.6114    0.2740 H        1 ZINC000031291771    0.0700
31     H31    -2.0316    1.1786    1.3562 H        1 ZINC000031291771    0.0700
32     H32    -2.9725   -0.2986    1.6556 H        1 ZINC000031291771    0.0700
33     H33     2.2886   -0.1390    3.4741 H        1 ZINC000031291771    0.1100
34     H34     1.3989   -0.3402    5.6782 H        1 ZINC000031291771    0.1100
35     H35     0.5887   -0.7263    7.2066 H        1 ZINC000031291771    0.4000
36     H36    -0.7387   -0.9718    8.2068 H        1 ZINC000031291771    0.4000
37     H37    -4.6240   -0.2979    5.4287 H        1 ZINC000031291771    0.1400
38     H38    -3.7029    0.3423    3.3374 H        1 ZINC000031291771    0.1300
39     H39    -1.7189    2.4707    4.6796 H        1 ZINC000031291771    0.0600
40     H40    -0.3323    2.1817    3.6016 H        1 ZINC000031291771    0.0700
41     H41    -1.9735    2.3126    2.9250 H        1 ZINC000031291771    0.0700
42     H42     2.4723    0.9126    0.8655 H        1 ZINC000031291771    0.0800
43     H43     3.0224   -0.7530    1.2468 H        1 ZINC000031291771    0.0800
44     H44     2.8136    0.2168   -1.3569 H        1 ZINC000031291771    0.1000
45     H45     2.6380   -1.5116   -0.9411 H        1 ZINC000031291771    0.0900
@<TRIPOS>BOND
1     1     2     1
2     1     26    1
3     1     27    1
4     1     28    1
5     2     20    1
6     2     24    1
7     2     3     1
8     3     4     1
9     3     29    1
10    3     30    1
11    4     5     1
12    4     31    1
13    4     32    1
14    5     6     1
15    5     18    1
16    5     7     1
17    7     8     1
18    7     9     1
19    7     20    1
20    9     10    2
21    9     33    1
22    10    11    1
23    10    34    1
24    11    18    1
25    11    12    2
26    12    13    1
27    12    14    1
28    13    35    1
29    13    36    1
30    14    15    2
31    14    16    1
32    16    17    2
33    16    37    1
34    17    18    1
35    17    38    1
36    18    19    1
37    19    39    1
38    19    40    1
39    19    41    1
40    20    21    1
41    20    22    1
42    22    23    1
43    22    42    1
44    22    43    1
45    23    24    1
46    23    44    1
47    23    45    1
48    24    25    2
@<TRIPOS>SUBSTRUCTURE
1   ZINC000031291771 1     RESIDUE    1   A     ZIN   1
