@<TRIPOS>MOLECULE
ZINC000035826342
54    57    1     0     0
SMALL
USER_CHARGES
@<TRIPOS>ATOM
1      C1     -0.0187    1.5258    0.0104 C.3      1 ZINC000035826342   -0.1500
2      C2      0.0021   -0.0041    0.0020 C.3      1 ZINC000035826342   -0.0900
3      C3      0.7309   -0.5033    1.2229 C.ar     1 ZINC000035826342   -0.0800
4      C4      2.0970   -0.7095    1.1762 C.ar     1 ZINC000035826342   -0.1200
5      C5      2.7656   -1.1675    2.2961 C.ar     1 ZINC000035826342   -0.1100
6      C6      2.0682   -1.4187    3.4629 C.ar     1 ZINC000035826342   -0.0800
7      C7      2.7970   -1.9184    4.6836 C.3      1 ZINC000035826342   -0.0400
8      C8      3.2575   -0.7448    5.5092 C.ar     1 ZINC000035826342   -0.0700
9      C9      4.4981   -0.1813    5.2767 C.ar     1 ZINC000035826342   -0.1000
10     C10     4.9215    0.8966    6.0334 C.ar     1 ZINC000035826342   -0.0900
11     C11     4.1050    1.4081    7.0200 C.ar     1 ZINC000035826342   -0.1100
12     C12     4.2697    2.5498    7.9961 C.3      1 ZINC000035826342    0.0900
13     O13     2.9464    2.8561    8.4745 O.3      1 ZINC000035826342   -0.3500
14     C14     2.2247    1.6174    8.3812 C.3      1 ZINC000035826342    0.3200
15     O15     2.3411    0.8947    9.6049 O.3      1 ZINC000035826342   -0.3500
16     C16     1.8075    1.5798   10.7407 C.3      1 ZINC000035826342    0.0600
17     H17     2.3264    2.5298   10.8690 H        1 ZINC000035826342    0.0900
18     C18     1.9995    0.7203   11.9918 C.3      1 ZINC000035826342    0.0800
19     O19     3.3955    0.5745   12.2599 O.3      1 ZINC000035826342   -0.5600
20     C20     0.3145    1.8388   10.5228 C.3      1 ZINC000035826342    0.0500
21     H21    -0.2101    0.8879   10.4297 H        1 ZINC000035826342    0.0800
22     O22    -0.2108    2.5669   11.6345 O.3      1 ZINC000035826342   -0.5500
23     C23     0.1257    2.6548    9.2403 C.3      1 ZINC000035826342    0.0800
24     H24     0.6119    3.6241    9.3499 H        1 ZINC000035826342    0.0800
25     O25    -1.2693    2.8446    8.9953 O.3      1 ZINC000035826342   -0.5600
26     C26     0.7554    1.8950    8.0679 C.3      1 ZINC000035826342    0.1100
27     H27     0.2297    0.9514    7.9210 H        1 ZINC000035826342    0.0800
28     O28     0.6600    2.6846    6.8807 O.3      1 ZINC000035826342   -0.5400
29     C29     2.8604    0.8420    7.2545 C.ar     1 ZINC000035826342   -0.1000
30     C30     2.4361   -0.2286    6.4953 C.ar     1 ZINC000035826342   -0.0600
31     C31     0.7023   -1.2112    3.5100 C.ar     1 ZINC000035826342   -0.1100
32     C32     0.0343   -0.7496    2.3912 C.ar     1 ZINC000035826342   -0.1200
33     H33     1.0039    1.9031    0.0027 H        1 ZINC000035826342    0.0600
34     H34    -0.5459    1.8868   -0.8726 H        1 ZINC000035826342    0.0600
35     H35    -0.5289    1.8773    0.9072 H        1 ZINC000035826342    0.0600
36     H36    -1.0205   -0.3814    0.0098 H        1 ZINC000035826342    0.0700
37     H37     0.5123   -0.3556   -0.8948 H        1 ZINC000035826342    0.0700
38     H38     2.6419   -0.5132    0.2646 H        1 ZINC000035826342    0.1200
39     H39     3.8328   -1.3293    2.2593 H        1 ZINC000035826342    0.1200
40     H40     2.1270   -2.5399    5.2777 H        1 ZINC000035826342    0.0800
41     H41     3.6610   -2.5071    4.3753 H        1 ZINC000035826342    0.0900
42     H42     5.1372   -0.5830    4.5043 H        1 ZINC000035826342    0.1300
43     H43     5.8909    1.3369    5.8519 H        1 ZINC000035826342    0.1300
44     H44     4.9079    2.2456    8.8257 H        1 ZINC000035826342    0.0900
45     H45     4.6965    3.4166    7.4915 H        1 ZINC000035826342    0.1000
46     H46     1.5147    1.2016   12.8411 H        1 ZINC000035826342    0.0600
47     H47     1.5562   -0.2621   11.8292 H        1 ZINC000035826342    0.0600
48     H48     3.5922    0.0399   13.0413 H        1 ZINC000035826342    0.3800
49     H49    -0.1216    2.1095   12.4818 H        1 ZINC000035826342    0.3800
50     H50    -1.7324    3.3143    9.7024 H        1 ZINC000035826342    0.3900
51     H51    -0.2468    2.9023    6.6250 H        1 ZINC000035826342    0.3900
52     H52     1.4645   -0.6656    6.6727 H        1 ZINC000035826342    0.1200
53     H53     0.1575   -1.4071    4.4217 H        1 ZINC000035826342    0.1200
54     H54    -1.0328   -0.5874    2.4281 H        1 ZINC000035826342    0.1200
@<TRIPOS>BOND
1     1     2     1
2     1     33    1
3     1     34    1
4     1     35    1
5     2     3     1
6     2     36    1
7     2     37    1
8     3     32    ar
9     3     4     ar
10    4     5     ar
11    4     38    1
12    5     6     ar
13    5     39    1
14    6     7     1
15    6     31    ar
16    7     8     1
17    7     40    1
18    7     41    1
19    8     30    ar
20    8     9     ar
21    9     10    ar
22    9     42    1
23    10    11    ar
24    10    43    1
25    11    29    ar
26    11    12    1
27    12    13    1
28    12    44    1
29    12    45    1
30    13    14    1
31    14    26    1
32    14    15    1
33    14    29    1
34    15    16    1
35    16    17    1
36    16    18    1
37    16    20    1
38    18    19    1
39    18    46    1
40    18    47    1
41    19    48    1
42    20    21    1
43    20    22    1
44    20    23    1
45    22    49    1
46    23    24    1
47    23    25    1
48    23    26    1
49    25    50    1
50    26    27    1
51    26    28    1
52    28    51    1
53    29    30    ar
54    30    52    1
55    31    32    ar
56    31    53    1
57    32    54    1
@<TRIPOS>SUBSTRUCTURE
1   ZINC000035826342 1     RESIDUE    1   A     ZIN   1
