@<TRIPOS>MOLECULE
ZINC000070647144
53    55    1     0     0
SMALL
USER_CHARGES
@<TRIPOS>ATOM
1      C1     -0.0184    1.5028    0.0103 C.3      1 ZINC000070647144   -0.0800
2      C2      0.0021   -0.0041    0.0020 C.2      1 ZINC000070647144    0.1300
3      N3      0.0079   -0.7607   -1.0710 N.2      1 ZINC000070647144   -0.3000
4      N4      0.0287   -2.1035   -0.6764 N.pl3    1 ZINC000070647144   -0.3200
5      C5      0.0419   -3.2665   -1.3828 C.2      1 ZINC000070647144    0.2500
6      C6      0.0619   -4.4640   -0.6958 C.2      1 ZINC000070647144   -0.2600
7      C7      0.0772   -5.7465   -1.4262 C.2      1 ZINC000070647144    0.5900
8      O8      0.0723   -5.7538   -2.6420 O.2      1 ZINC000070647144   -0.5300
9      N9      0.0966   -6.9095   -0.7453 N.am     1 ZINC000070647144   -0.7200
10     C10     0.1119   -8.1825   -1.4703 C.3      1 ZINC000070647144    0.1300
11     C11     0.1325   -9.3393   -0.4691 C.3      1 ZINC000070647144    0.1000
12     C12     0.1484  -10.6687   -1.2262 C.3      1 ZINC000070647144   -0.1400
13     C13     1.3840   -9.2351    0.4049 C.3      1 ZINC000070647144   -0.1900
14     N14    -1.0645   -9.2735    0.3799 N.3      1 ZINC000070647144   -0.6600
15     C15    -1.0787  -10.3715    1.3557 C.3      1 ZINC000070647144    0.0400
16     C16    -2.3184  -10.2712    2.2067 C.2      1 ZINC000070647144    0.5300
17     O17    -3.1120   -9.3734    2.0188 O.2      1 ZINC000070647144   -0.5100
18     N18    -2.5453  -11.1791    3.1766 N.am     1 ZINC000070647144   -0.6200
19     C19    -1.6652  -12.3121    3.5157 C.3      1 ZINC000070647144    0.0900
20     C20    -2.5965  -13.3489    4.1922 C.3      1 ZINC000070647144   -0.1300
21     C21    -3.5545  -12.4298    4.9952 C.3      1 ZINC000070647144   -0.1200
22     C22    -3.7083  -11.1998    4.0758 C.3      1 ZINC000070647144    0.2400
23     H23    -4.6227  -11.2875    3.4892 H        1 ZINC000070647144    0.1200
24     C24    -3.7492   -9.9714    4.8858 C.1      1 ZINC000070647144    0.1900
25     N25    -3.7808   -9.0233    5.5109 N.1      1 ZINC000070647144   -0.4100
26     C26     0.0679   -4.4430    0.7195 C.2      1 ZINC000070647144    0.2100
27     N27     0.0542   -3.3007    1.3586 N.2      1 ZINC000070647144   -0.4600
28     C28     0.0352   -2.1345    0.6959 C.2      1 ZINC000070647144    0.2600
29     C29     0.0238   -0.8164    1.1278 C.2      1 ZINC000070647144   -0.2500
30     H30     1.0042    1.8801    0.0026 H        1 ZINC000070647144    0.0900
31     H31    -0.5455    1.8639   -0.8728 H        1 ZINC000070647144    0.0800
32     H32    -0.5286    1.8543    0.9071 H        1 ZINC000070647144    0.0900
33     H33     0.0366   -3.2530   -2.4627 H        1 ZINC000070647144    0.2000
34     H34     0.1006   -6.9036    0.2246 H        1 ZINC000070647144    0.4000
35     H35    -0.7797   -8.2567   -2.0929 H        1 ZINC000070647144    0.0900
36     H36     1.0000   -8.2313   -2.1002 H        1 ZINC000070647144    0.0800
37     H37     1.0366  -10.7175   -1.8562 H        1 ZINC000070647144    0.0700
38     H38     0.1631  -11.4929   -0.5130 H        1 ZINC000070647144    0.0600
39     H39    -0.7432  -10.7430   -1.8488 H        1 ZINC000070647144    0.0700
40     H40     1.3727   -8.2879    0.9442 H        1 ZINC000070647144    0.0600
41     H41     1.3987  -10.0592    1.1181 H        1 ZINC000070647144    0.0700
42     H42     2.2722   -9.2839   -0.2251 H        1 ZINC000070647144    0.0700
43     H43    -1.1318   -8.3787    0.8413 H        1 ZINC000070647144    0.3500
44     H44    -1.0758  -11.3258    0.8290 H        1 ZINC000070647144    0.1100
45     H45    -0.1956  -10.3044    1.9910 H        1 ZINC000070647144    0.0700
46     H46    -1.2226  -12.7322    2.6126 H        1 ZINC000070647144    0.0900
47     H47    -0.8861  -11.9933    4.2081 H        1 ZINC000070647144    0.0800
48     H48    -3.1430  -13.9276    3.4476 H        1 ZINC000070647144    0.0900
49     H49    -2.0340  -14.0036    4.8578 H        1 ZINC000070647144    0.0900
50     H50    -4.5158  -12.9188    5.1530 H        1 ZINC000070647144    0.1000
51     H51    -3.1062  -12.1423    5.9462 H        1 ZINC000070647144    0.0900
52     H52     0.0834   -5.3705    1.2726 H        1 ZINC000070647144    0.1800
53     H53     0.0290   -0.4822    2.1548 H        1 ZINC000070647144    0.1700
@<TRIPOS>BOND
1     1     2     1
2     1     30    1
3     1     31    1
4     1     32    1
5     2     29    1
6     2     3     2
7     3     4     1
8     4     28    1
9     4     5     1
10    5     6     2
11    5     33    1
12    6     7     1
13    6     26    1
14    7     8     2
15    7     9     am
16    9     10    1
17    9     34    1
18    10    11    1
19    10    35    1
20    10    36    1
21    11    12    1
22    11    13    1
23    11    14    1
24    12    37    1
25    12    38    1
26    12    39    1
27    13    40    1
28    13    41    1
29    13    42    1
30    14    15    1
31    14    43    1
32    15    16    1
33    15    44    1
34    15    45    1
35    16    17    2
36    16    18    am
37    18    22    1
38    18    19    1
39    19    20    1
40    19    46    1
41    19    47    1
42    20    21    1
43    20    48    1
44    20    49    1
45    21    22    1
46    21    50    1
47    21    51    1
48    22    23    1
49    22    24    1
50    24    25    3
51    26    27    2
52    26    52    1
53    27    28    1
54    28    29    2
55    29    53    1
@<TRIPOS>SUBSTRUCTURE
1   ZINC000070647144 1     RESIDUE    1   A     ZIN   1
