@<TRIPOS>MOLECULE
ZINC000000004014
23    26    1     0     0
SMALL
USER_CHARGES
@<TRIPOS>ATOM
1      C1      3.1662    5.4361    0.0022 C.ar     1 ZINC000000004014   -0.1100
2      C2      1.7815    5.3405    0.0149 C.ar     1 ZINC000000004014   -0.1000
3      C3      1.1638    4.1088    0.0141 C.ar     1 ZINC000000004014   -0.1100
4      C4      1.9299    2.9472   -0.0005 C.ar     1 ZINC000000004014    0.1400
5      C5      3.3343    3.0462   -0.0134 C.ar     1 ZINC000000004014   -0.0400
6      C6      3.9392    4.3114   -0.0118 C.ar     1 ZINC000000004014   -0.0800
7      C7      4.1310    1.8735   -0.0274 C.2      1 ZINC000000004014   -0.0800
8      C8      3.5275    0.6469   -0.0282 C.2      1 ZINC000000004014    0.1000
9      C9      4.3423   -0.5852   -0.0432 C.2      1 ZINC000000004014    0.0600
10     N10     3.8911   -1.8419   -0.0403 N.2      1 ZINC000000004014   -0.3300
11     N11     4.9176   -2.6217   -0.0593 N.2      1 ZINC000000004014   -0.1800
12     N12     5.9910   -1.9118   -0.0660 N.2      1 ZINC000000004014   -0.1800
13     N13     5.6753   -0.6619   -0.0565 N.pl3    1 ZINC000000004014   -0.3600
14     C14     2.0633    0.5662   -0.0146 C.2      1 ZINC000000004014    0.2800
15     N15     1.2107   -0.4419   -0.0119 N.2      1 ZINC000000004014   -0.2700
16     N16     0.0021   -0.0041    0.0020 N.2      1 ZINC000000004014   -0.0300
17     N17    -0.0154    1.2860    0.0091 N.2      1 ZINC000000004014   -0.1100
18     N18     1.3206    1.7105   -0.0014 N.pl3    1 ZINC000000004014   -0.3100
19     H19     3.6358    6.4087    0.0030 H        1 ZINC000000004014    0.1300
20     H20     1.1830    6.2394    0.0259 H        1 ZINC000000004014    0.1300
21     H21     0.0857    4.0450    0.0240 H        1 ZINC000000004014    0.1400
22     H22     5.0159    4.3957   -0.0220 H        1 ZINC000000004014    0.1400
23     H23     5.2083    1.9488   -0.0369 H        1 ZINC000000004014    0.1700
@<TRIPOS>BOND
1     1     6     ar
2     1     2     ar
3     1     19    1
4     2     3     ar
5     2     20    1
6     3     4     ar
7     3     21    1
8     4     18    1
9     4     5     ar
10    5     6     ar
11    5     7     1
12    6     22    1
13    7     8     2
14    7     23    1
15    8     9     1
16    8     14    1
17    9     13    1
18    9     10    2
19    10    11    1
20    11    12    2
21    12    13    1
22    14    18    1
23    14    15    2
24    15    16    1
25    16    17    2
26    17    18    1
@<TRIPOS>SUBSTRUCTURE
1   ZINC000000004014 1     RESIDUE    1   A     ZIN   1
