@<TRIPOS>MOLECULE
ZINC000003787614
  65   64    0    0    0
SMALL
USER_CHARGES
NO_NAME
@<TRIPOS>ATOM
    1 C1       -0.0187     1.5258     0.0104 C.3    1 <0>      -0.1900
    2 C2        0.0021    -0.0041     0.0020 C.3    1 <0>      -0.0100
    3 N3        0.6897    -0.4778    -1.2066 N.4    1 <0>      -0.5100
    4 H4        0.2017    -0.1436    -2.0240 H      1 <0>       0.4300
    5 H5        1.6363    -0.1286    -1.2138 H      1 <0>       0.4300
    6 C6        0.7096    -1.9467    -1.2147 C.3    1 <0>       0.0000
    7 C7        1.4257    -2.4401    -2.4735 C.3    1 <0>      -0.1900
    8 C8        1.4465    -3.9699    -2.4819 C.3    1 <0>       0.0000
    9 N9        2.1341    -4.4437    -3.6905 N.4    1 <0>      -0.5100
   10 H10       1.6461    -4.1094    -4.5079 H      1 <0>       0.4300
   11 H11       3.0807    -4.0944    -3.6977 H      1 <0>       0.4300
   12 C12       2.1540    -5.9125    -3.6986 C.3    1 <0>      -0.0100
   13 C13       2.8701    -6.4059    -4.9574 C.3    1 <0>      -0.1500
   14 C14       2.8909    -7.9358    -4.9658 C.3    1 <0>      -0.1200
   15 C15       3.6070    -8.4292    -6.2246 C.3    1 <0>      -0.1200
   16 C16       3.6278    -9.9590    -6.2330 C.3    1 <0>      -0.1200
   17 C17       4.3439   -10.4524    -7.4918 C.3    1 <0>      -0.1500
   18 C18       4.3647   -11.9823    -7.5002 C.3    1 <0>      -0.0100
   19 N19       5.0523   -12.4560    -8.7088 N.4    1 <0>      -0.5100
   20 H20       4.5642   -12.1218    -9.5263 H      1 <0>       0.4300
   21 H21       5.9989   -12.1068    -8.7160 H      1 <0>       0.4300
   22 C22       5.0722   -13.9249    -8.7169 C.3    1 <0>       0.0000
   23 C23       5.7883   -14.4183    -9.9757 C.3    1 <0>      -0.1900
   24 C24       5.8091   -15.9481    -9.9841 C.3    1 <0>       0.0000
   25 N25       6.4967   -16.4219   -11.1927 N.4    1 <0>      -0.5100
   26 H26       6.0087   -16.0876   -12.0102 H      1 <0>       0.4300
   27 H27       7.4433   -16.0726   -11.1999 H      1 <0>       0.4300
   28 C28       6.5166   -17.8907   -11.2008 C.3    1 <0>      -0.0100
   29 C29       7.2327   -18.3841   -12.4596 C.3    1 <0>      -0.1900
   30 H30       1.0039     1.9031     0.0027 H      1 <0>       0.0800
   31 H31      -0.5459     1.8868    -0.8726 H      1 <0>       0.0800
   32 H32      -0.5289     1.8773     0.9072 H      1 <0>       0.1200
   33 H33       0.5293    -0.3651     0.8851 H      1 <0>       0.1400
   34 H34      -1.0205    -0.3814     0.0098 H      1 <0>       0.1400
   35 H35       1.2368    -2.3077    -0.3316 H      1 <0>       0.1400
   36 H36      -0.3130    -2.3239    -1.2069 H      1 <0>       0.1400
   37 H37       0.8985    -2.0790    -3.3565 H      1 <0>       0.1100
   38 H38       2.4483    -2.0628    -2.4812 H      1 <0>       0.1100
   39 H39       1.9737    -4.3310    -1.5988 H      1 <0>       0.1400
   40 H40       0.4239    -4.3472    -2.4742 H      1 <0>       0.1400
   41 H41       2.6812    -6.2736    -2.8155 H      1 <0>       0.1400
   42 H42       1.1314    -6.2898    -3.6908 H      1 <0>       0.1400
   43 H43       2.3429    -6.0448    -5.8404 H      1 <0>       0.0900
   44 H44       3.8927    -6.0286    -4.9651 H      1 <0>       0.0900
   45 H45       3.4181    -8.2968    -4.0827 H      1 <0>       0.0800
   46 H46       1.8683    -8.3130    -4.9581 H      1 <0>       0.0800
   47 H47       3.0798    -8.0681    -7.1077 H      1 <0>       0.0700
   48 H48       4.6296    -8.0519    -6.2323 H      1 <0>       0.0700
   49 H49       4.1550   -10.3201    -5.3499 H      1 <0>       0.0800
   50 H50       2.6052   -10.3363    -6.2253 H      1 <0>       0.0800
   51 H51       3.8167   -10.0914    -8.3749 H      1 <0>       0.0900
   52 H52       5.3665   -10.0751    -7.4995 H      1 <0>       0.0900
   53 H53       4.8919   -12.3433    -6.6172 H      1 <0>       0.1400
   54 H54       3.3421   -12.3596    -7.4925 H      1 <0>       0.1400
   55 H55       5.5994   -14.2859    -7.8338 H      1 <0>       0.1400
   56 H56       4.0496   -14.3021    -8.7092 H      1 <0>       0.1400
   57 H57       5.2611   -14.0572   -10.8588 H      1 <0>       0.1100
   58 H58       6.8109   -14.0410    -9.9834 H      1 <0>       0.1100
   59 H59       6.3363   -16.3092    -9.1011 H      1 <0>       0.1400
   60 H60       4.7865   -16.3254    -9.9764 H      1 <0>       0.1400
   61 H61       7.0438   -18.2518   -10.3177 H      1 <0>       0.1400
   62 H62       5.4940   -18.2680   -11.1931 H      1 <0>       0.1400
   63 H63       7.2475   -19.4740   -12.4656 H      1 <0>       0.1200
   64 H64       6.7055   -18.0230   -13.3427 H      1 <0>       0.0800
   65 H65       8.2553   -18.0068   -12.4673 H      1 <0>       0.0800
@<TRIPOS>BOND
   1    1    2 1
   2    1   30 1
   3    1   31 1
   4    1   32 1
   5    2    3 1
   6    2   33 1
   7    2   34 1
   8    3    4 1
   9    3    5 1
  10    3    6 1
  11    6    7 1
  12    6   35 1
  13    6   36 1
  14    7    8 1
  15    7   37 1
  16    7   38 1
  17    8    9 1
  18    8   39 1
  19    8   40 1
  20    9   10 1
  21    9   11 1
  22    9   12 1
  23   12   13 1
  24   12   41 1
  25   12   42 1
  26   13   14 1
  27   13   43 1
  28   13   44 1
  29   14   15 1
  30   14   45 1
  31   14   46 1
  32   15   16 1
  33   15   47 1
  34   15   48 1
  35   16   17 1
  36   16   49 1
  37   16   50 1
  38   17   18 1
  39   17   51 1
  40   17   52 1
  41   18   19 1
  42   18   53 1
  43   18   54 1
  44   19   20 1
  45   19   21 1
  46   19   22 1
  47   22   23 1
  48   22   55 1
  49   22   56 1
  50   23   24 1
  51   23   57 1
  52   23   58 1
  53   24   25 1
  54   24   59 1
  55   24   60 1
  56   25   26 1
  57   25   27 1
  58   25   28 1
  59   28   29 1
  60   28   61 1
  61   28   62 1
  62   29   63 1
  63   29   64 1
  64   29   65 1
