@<TRIPOS>MOLECULE
ZINC000056898864
79    83    1     0     0
SMALL
USER_CHARGES
@<TRIPOS>ATOM
1      C1     -3.3274   -0.2437    1.5917 C.3      1 ZINC000056898864   -0.1200
2      C2     -2.5530   -1.5250    1.4192 C.ar     1 ZINC000056898864   -0.0300
3      C3     -2.6155   -2.2140    0.2231 C.ar     1 ZINC000056898864   -0.1900
4      C4     -1.9034   -3.3911    0.0647 C.ar     1 ZINC000056898864    0.1200
5      F5     -1.9634   -4.0654   -1.1044 F        1 ZINC000056898864   -0.1400
6      C6     -1.1297   -3.8762    1.1052 C.ar     1 ZINC000056898864   -0.2000
7      C7     -1.0688   -3.1852    2.3008 C.ar     1 ZINC000056898864    0.0200
8      C8     -1.7758   -2.0076    2.4559 C.ar     1 ZINC000056898864   -0.1500
9      C9     -1.7081   -1.2550    3.7597 C.3      1 ZINC000056898864    0.2100
10     H10    -1.7462   -0.1831    3.5652 H        1 ZINC000056898864    0.0900
11     C11    -2.8896   -1.6582    4.6474 C.3      1 ZINC000056898864   -0.1200
12     C12    -2.7399   -0.9981    6.0200 C.3      1 ZINC000056898864    0.0900
13     H13    -2.7012    0.0846    5.9000 H        1 ZINC000056898864    0.0900
14     N14    -3.8882   -1.3562    6.8632 N.3      1 ZINC000056898864   -0.5400
15     C15    -3.9213   -2.7997    7.1208 C.3      1 ZINC000056898864    0.0400
16     C16    -5.2339   -3.1773    7.8289 C.3      1 ZINC000056898864    0.1300
17     N17    -5.3517   -2.2764    8.9896 N.am     1 ZINC000056898864   -0.6300
18     C18    -5.5478   -2.5981   10.2705 C.2      1 ZINC000056898864    0.5200
19     O19    -6.0147   -3.6436   10.6702 O.2      1 ZINC000056898864   -0.5300
20     C20    -5.0928   -1.4468   11.1449 C.3      1 ZINC000056898864   -0.1600
21     C21    -5.2287   -0.2073   10.2315 C.3      1 ZINC000056898864   -0.1300
22     C22    -5.2288   -0.8124    8.8228 C.3      1 ZINC000056898864    0.1300
23     H23    -6.0678   -0.4251    8.2446 H        1 ZINC000056898864    0.0900
24     C24    -3.9044   -0.5577    8.0991 C.3      1 ZINC000056898864    0.0500
25     C25    -1.4492   -1.4839    6.6836 C.3      1 ZINC000056898864   -0.1700
26     C26    -0.2514   -1.0787    5.8189 C.3      1 ZINC000056898864    0.0900
27     N27    -0.4564   -1.5852    4.4546 N.am     1 ZINC000056898864   -0.6300
28     C28     0.4836   -2.3422    3.8547 C.2      1 ZINC000056898864    0.7000
29     O29     0.6065   -2.3136    2.6454 O.2      1 ZINC000056898864   -0.5300
30     N30     1.2872   -3.1310    4.5953 N.am     1 ZINC000056898864   -0.6200
31     C31     1.0203   -3.3130    6.0242 C.3      1 ZINC000056898864    0.0600
32     C32     2.4278   -3.8063    3.9714 C.3      1 ZINC000056898864    0.1900
33     H33     2.4043   -3.6392    2.8945 H        1 ZINC000056898864    0.1300
34     C34     2.3500   -5.3075    4.2565 C.3      1 ZINC000056898864   -0.1700
35     C35     3.7102   -3.2533    4.5377 C.ar     1 ZINC000056898864   -0.1000
36     C36     3.8741   -1.8872    4.6720 C.ar     1 ZINC000056898864   -0.0200
37     C37     5.0504   -1.3800    5.1915 C.ar     1 ZINC000056898864   -0.1800
38     C38     5.2292    0.1093    5.3375 C.3      1 ZINC000056898864    0.5100
39     F39     4.7731    0.5124    6.5971 F        1 ZINC000056898864   -0.1700
40     F40     6.5844    0.4312    5.2072 F        1 ZINC000056898864   -0.1700
41     F41     4.4960    0.7666    4.3437 F        1 ZINC000056898864   -0.1700
42     C42     6.0625   -2.2387    5.5774 C.ar     1 ZINC000056898864   -0.0200
43     C43     5.8985   -3.6048    5.4435 C.ar     1 ZINC000056898864   -0.1800
44     C44     7.0021   -4.5410    5.8638 C.3      1 ZINC000056898864    0.5100
45     F45     8.0820   -3.7987    6.3538 F        1 ZINC000056898864   -0.1700
46     F46     6.5315   -5.3966    6.8656 F        1 ZINC000056898864   -0.1700
47     F47     7.4173   -5.2967    4.7622 F        1 ZINC000056898864   -0.1700
48     C48     4.7205   -4.1122    4.9280 C.ar     1 ZINC000056898864   -0.0300
49     H49    -2.7103    0.5986    1.2790 H        1 ZINC000056898864    0.0700
50     H50    -4.2296   -0.2795    0.9812 H        1 ZINC000056898864    0.0700
51     H51    -3.6022   -0.1236    2.6396 H        1 ZINC000056898864    0.0700
52     H52    -3.2196   -1.8349   -0.5878 H        1 ZINC000056898864    0.1300
53     H53    -0.5743   -4.7943    0.9830 H        1 ZINC000056898864    0.1200
54     H54    -0.4653   -3.5634    3.1127 H        1 ZINC000056898864    0.1300
55     H55    -3.8206   -1.3297    4.1854 H        1 ZINC000056898864    0.0900
56     H56    -2.9035   -2.7418    4.7645 H        1 ZINC000056898864    0.0700
57     H57    -3.8525   -3.3376    6.1753 H        1 ZINC000056898864    0.0900
58     H58    -3.0770   -3.0738    7.7534 H        1 ZINC000056898864    0.0400
59     H59    -6.0780   -3.0318    7.1549 H        1 ZINC000056898864    0.0800
60     H60    -5.1943   -4.2143    8.1625 H        1 ZINC000056898864    0.0900
61     H61    -5.7388   -1.3511   12.0176 H        1 ZINC000056898864    0.1000
62     H62    -4.0554   -1.5851   11.4495 H        1 ZINC000056898864    0.1000
63     H63    -6.1658    0.3141   10.4268 H        1 ZINC000056898864    0.0900
64     H64    -4.3792    0.4629   10.3627 H        1 ZINC000056898864    0.0900
65     H65    -3.0739   -0.8561    8.7390 H        1 ZINC000056898864    0.0500
66     H66    -3.8191    0.5007    7.8527 H        1 ZINC000056898864    0.0900
67     H67    -1.3550   -1.0314    7.6707 H        1 ZINC000056898864    0.0800
68     H68    -1.4767   -2.5692    6.7814 H        1 ZINC000056898864    0.0800
69     H69    -0.1693    0.0079    5.7945 H        1 ZINC000056898864    0.0700
70     H70     0.6608   -1.5068    6.2346 H        1 ZINC000056898864    0.1100
71     H71    -0.0435   -3.1722    6.2159 H        1 ZINC000056898864    0.0900
72     H72     1.3132   -4.3194    6.3233 H        1 ZINC000056898864    0.0800
73     H73     1.5924   -2.5829    6.5967 H        1 ZINC000056898864    0.0600
74     H74     2.3735   -5.4745    5.3333 H        1 ZINC000056898864    0.0700
75     H75     1.4224   -5.7075    3.8469 H        1 ZINC000056898864    0.0700
76     H76     3.1986   -5.8099    3.7922 H        1 ZINC000056898864    0.0800
77     H77     3.0831   -1.2163    4.3708 H        1 ZINC000056898864    0.1400
78     H78     6.9815   -1.8424    5.9833 H        1 ZINC000056898864    0.1500
79     H79     4.5924   -5.1795    4.8234 H        1 ZINC000056898864    0.1500
@<TRIPOS>BOND
1     1     2     1
2     1     49    1
3     1     50    1
4     1     51    1
5     2     8     ar
6     2     3     ar
7     3     4     ar
8     3     52    1
9     4     5     1
10    4     6     ar
11    6     7     ar
12    6     53    1
13    7     8     ar
14    7     54    1
15    8     9     1
16    9     10    1
17    9     27    1
18    9     11    1
19    11    12    1
20    11    55    1
21    11    56    1
22    12    13    1
23    12    14    1
24    12    25    1
25    14    24    1
26    14    15    1
27    15    16    1
28    15    57    1
29    15    58    1
30    16    17    1
31    16    59    1
32    16    60    1
33    17    22    1
34    17    18    am
35    18    19    2
36    18    20    1
37    20    21    1
38    20    61    1
39    20    62    1
40    21    22    1
41    21    63    1
42    21    64    1
43    22    23    1
44    22    24    1
45    24    65    1
46    24    66    1
47    25    26    1
48    25    67    1
49    25    68    1
50    26    27    1
51    26    69    1
52    26    70    1
53    27    28    am
54    28    29    2
55    28    30    am
56    30    31    1
57    30    32    1
58    31    71    1
59    31    72    1
60    31    73    1
61    32    33    1
62    32    34    1
63    32    35    1
64    34    74    1
65    34    75    1
66    34    76    1
67    35    48    ar
68    35    36    ar
69    36    37    ar
70    36    77    1
71    37    38    1
72    37    42    ar
73    38    39    1
74    38    40    1
75    38    41    1
76    42    43    ar
77    42    78    1
78    43    44    1
79    43    48    ar
80    44    45    1
81    44    46    1
82    44    47    1
83    48    79    1
@<TRIPOS>SUBSTRUCTURE
1   ZINC000056898864 1     RESIDUE    1   A     ZIN   1
