@<TRIPOS>MOLECULE
ZINC000019862646
74    77    1     0     0
SMALL
USER_CHARGES
@<TRIPOS>ATOM
1      C1      2.6431   -0.1994   -1.7602 C.3      1 ZINC000019862646   -0.1000
2      C2      2.5467   -1.6711   -1.4506 C.ar     1 ZINC000019862646   -0.2800
3      C3      2.5570   -2.6083   -2.4650 C.ar     1 ZINC000019862646    0.2100
4      N4      2.4712   -3.8949   -2.1599 N.ar     1 ZINC000019862646   -0.5800
5      C5      2.3761   -4.2910   -0.8992 C.ar     1 ZINC000019862646    0.5900
6      N6      2.2888   -5.6449   -0.6216 N.pl3    1 ZINC000019862646   -0.6400
7      C7      2.4216   -6.5814   -1.6544 C.ar     1 ZINC000019862646    0.1600
8      C8      3.2905   -6.3340   -2.7089 C.ar     1 ZINC000019862646   -0.0700
9      C9      3.4212   -7.2582   -3.7267 C.ar     1 ZINC000019862646   -0.1200
10     C10     2.6846   -8.4332   -3.6960 C.ar     1 ZINC000019862646    0.0900
11     O11     2.8136   -9.3426   -4.6988 O.3      1 ZINC000019862646   -0.3300
12     C12     2.0248  -10.5303   -4.6030 C.3      1 ZINC000019862646    0.0300
13     C13     2.3026  -11.4259   -5.8120 C.3      1 ZINC000019862646    0.0000
14     N14     3.6984  -11.8822   -5.7730 N.4      1 ZINC000019862646   -0.4000
15     H15     4.3214  -11.0917   -5.7014 H        1 ZINC000019862646    0.4300
16     C16     3.9046  -12.8023   -4.6254 C.3      1 ZINC000019862646   -0.0100
17     C17     5.1678  -13.6011   -5.0339 C.3      1 ZINC000019862646   -0.1400
18     C18     4.9801  -13.7895   -6.5569 C.3      1 ZINC000019862646   -0.1500
19     C19     4.0115  -12.6701   -6.9848 C.3      1 ZINC000019862646   -0.0100
20     C20     1.8168   -8.6813   -2.6427 C.ar     1 ZINC000019862646   -0.1800
21     C21     1.6888   -7.7605   -1.6215 C.ar     1 ZINC000019862646   -0.1100
22     N22     2.3628   -3.4242    0.1025 N.ar     1 ZINC000019862646   -0.6000
23     C23     2.4509   -2.1187   -0.1309 C.ar     1 ZINC000019862646    0.4700
24     N24     2.4372   -1.2139    0.9194 N.pl3    1 ZINC000019862646   -0.6500
25     C25     2.2192   -1.6623    2.2254 C.ar     1 ZINC000019862646    0.1400
26     C26     1.3787   -2.7429    2.4590 C.ar     1 ZINC000019862646   -0.0600
27     C27     1.1659   -3.1837    3.7506 C.ar     1 ZINC000019862646   -0.1200
28     C28     1.7884   -2.5503    4.8103 C.ar     1 ZINC000019862646   -0.0300
29     C29     2.6257   -1.4735    4.5812 C.ar     1 ZINC000019862646   -0.6500
30     S30     3.4165   -0.6700    5.9352 S.o2     1 ZINC000019862646    2.6900
31     O31     3.5246    0.7017    5.5802 O.2      1 ZINC000019862646   -0.9600
32     O32     2.7552   -1.1189    7.1101 O.2      1 ZINC000019862646   -0.9500
33     N33     4.9635   -1.2552    6.0169 N.am     1 ZINC000019862646   -1.1100
34     C34     5.1994   -2.6526    6.3880 C.3      1 ZINC000019862646    0.1700
35     C35     4.3800   -3.5678    5.4759 C.3      1 ZINC000019862646   -0.1900
36     C36     6.6865   -2.9774    6.2334 C.3      1 ZINC000019862646   -0.1500
37     C37     4.7780   -2.8722    7.8424 C.3      1 ZINC000019862646   -0.1800
38     C38     2.8473   -1.0314    3.2919 C.ar     1 ZINC000019862646   -0.0500
39     H39     3.6910    0.1000   -1.7792 H        1 ZINC000019862646    0.0700
40     H40     2.1912   -0.0022   -2.7323 H        1 ZINC000019862646    0.0800
41     H41     2.1168    0.3685   -0.9930 H        1 ZINC000019862646    0.0600
42     H42     2.6338   -2.2959   -3.4960 H        1 ZINC000019862646    0.1700
43     H43     2.1356   -5.9446    0.2881 H        1 ZINC000019862646    0.4200
44     H44     3.8636   -5.4190   -2.7333 H        1 ZINC000019862646    0.1500
45     H45     4.0970   -7.0660   -4.5470 H        1 ZINC000019862646    0.1300
46     H46     2.2821  -11.0645   -3.6883 H        1 ZINC000019862646    0.0800
47     H47     0.9680  -10.2640   -4.5832 H        1 ZINC000019862646    0.1100
48     H48     1.6374  -12.2890   -5.7853 H        1 ZINC000019862646    0.1500
49     H49     2.1300  -10.8624   -6.7289 H        1 ZINC000019862646    0.1400
50     H50     4.0846  -12.2402   -3.7090 H        1 ZINC000019862646    0.1300
51     H51     3.0497  -13.4683   -4.5078 H        1 ZINC000019862646    0.1300
52     H52     6.0710  -13.0279   -4.8246 H        1 ZINC000019862646    0.1000
53     H53     5.1953  -14.5653   -4.5265 H        1 ZINC000019862646    0.1200
54     H54     5.9344  -13.6801   -7.0720 H        1 ZINC000019862646    0.1100
55     H55     4.5460  -14.7671   -6.7665 H        1 ZINC000019862646    0.1000
56     H56     3.0978  -13.1047   -7.3904 H        1 ZINC000019862646    0.1300
57     H57     4.4862  -12.0335   -7.7314 H        1 ZINC000019862646    0.1300
58     H58     1.2436   -9.5963   -2.6195 H        1 ZINC000019862646    0.1300
59     H59     1.0131   -7.9538   -0.8014 H        1 ZINC000019862646    0.1300
60     H60     2.5790   -0.2697    0.7480 H        1 ZINC000019862646    0.4300
61     H61     0.8919   -3.2379    1.6317 H        1 ZINC000019862646    0.1400
62     H62     0.5121   -4.0238    3.9330 H        1 ZINC000019862646    0.1400
63     H63     1.6203   -2.8969    5.8193 H        1 ZINC000019862646    0.1500
64     H64     5.7135   -0.6727    5.8190 H        1 ZINC000019862646    0.4200
65     H65     4.4961   -3.2474    4.4406 H        1 ZINC000019862646    0.0700
66     H66     4.7319   -4.5942    5.5802 H        1 ZINC000019862646    0.0800
67     H67     3.3283   -3.5140    5.7572 H        1 ZINC000019862646    0.0700
68     H68     7.2703   -2.3254    6.8832 H        1 ZINC000019862646    0.0700
69     H69     6.8620   -4.0171    6.5095 H        1 ZINC000019862646    0.0700
70     H70     6.9867   -2.8210    5.1973 H        1 ZINC000019862646    0.0600
71     H71     3.6936   -2.7956    7.9219 H        1 ZINC000019862646    0.0900
72     H72     5.0971   -3.8624    8.1676 H        1 ZINC000019862646    0.0700
73     H73     5.2430   -2.1150    8.4736 H        1 ZINC000019862646    0.0600
74     H74     3.5012   -0.1906    3.1137 H        1 ZINC000019862646    0.1400
@<TRIPOS>BOND
1     1     2     1
2     1     39    1
3     1     40    1
4     1     41    1
5     2     23    ar
6     2     3     ar
7     3     4     ar
8     3     42    1
9     4     5     ar
10    5     6     1
11    5     22    ar
12    6     7     1
13    6     43    1
14    7     21    ar
15    7     8     ar
16    8     9     ar
17    8     44    1
18    9     10    ar
19    9     45    1
20    10    11    1
21    10    20    ar
22    11    12    1
23    12    13    1
24    12    46    1
25    12    47    1
26    13    14    1
27    13    48    1
28    13    49    1
29    14    15    1
30    14    19    1
31    14    16    1
32    16    17    1
33    16    50    1
34    16    51    1
35    17    18    1
36    17    52    1
37    17    53    1
38    18    19    1
39    18    54    1
40    18    55    1
41    19    56    1
42    19    57    1
43    20    21    ar
44    20    58    1
45    21    59    1
46    22    23    ar
47    23    24    1
48    24    25    1
49    24    60    1
50    25    38    ar
51    25    26    ar
52    26    27    ar
53    26    61    1
54    27    28    ar
55    27    62    1
56    28    29    ar
57    28    63    1
58    29    30    1
59    29    38    ar
60    30    31    2
61    30    32    2
62    30    33    am
63    33    34    1
64    33    64    1
65    34    35    1
66    34    36    1
67    34    37    1
68    35    65    1
69    35    66    1
70    35    67    1
71    36    68    1
72    36    69    1
73    36    70    1
74    37    71    1
75    37    72    1
76    37    73    1
77    38    74    1
@<TRIPOS>SUBSTRUCTURE
1   ZINC000019862646 1     RESIDUE    1   A     ZIN   1
