@<TRIPOS>MOLECULE
ZINC000000007670
27    28    1     0     0
SMALL
USER_CHARGES
@<TRIPOS>ATOM
1      O1      0.0021   -0.0041    0.0020 O.co2    1 ZINC000000007670   -0.6900
2      C2     -0.0145    1.2150    0.0087 C.2      1 ZINC000000007670    0.4900
3      O3      1.0330    1.8389    0.0021 O.co2    1 ZINC000000007670   -0.6900
4      C4     -1.3296    1.9507    0.0190 C.3      1 ZINC000000007670    0.0500
5      N5     -2.4301    0.9837    0.0189 N.am     1 ZINC000000007670   -0.6700
6      C6     -3.7068    1.4156    0.0273 C.2      1 ZINC000000007670    0.5500
7      O7     -3.9452    2.6081    0.0349 O.2      1 ZINC000000007670   -0.5400
8      C8     -4.8143    0.4424    0.0273 C.ar     1 ZINC000000007670    0.0500
9      N9     -4.5375   -0.8661    0.0243 N.ar     1 ZINC000000007670   -0.4300
10     C10    -5.4679   -1.7860    0.0242 C.ar     1 ZINC000000007670    0.2000
11     Cl11   -5.0222   -3.4638    0.0208 Cl       1 ZINC000000007670   -0.0100
12     C12    -6.8305   -1.4230    0.0272 C.ar     1 ZINC000000007670   -0.0700
13     C13    -7.8510   -2.3838    0.0276 C.ar     1 ZINC000000007670   -0.0900
14     C14    -9.1538   -1.9818    0.0309 C.ar     1 ZINC000000007670   -0.1000
15     C15    -9.4884   -0.6304    0.0339 C.ar     1 ZINC000000007670   -0.1000
16     C16    -8.5213    0.3311    0.0331 C.ar     1 ZINC000000007670   -0.0900
17     C17    -7.1728   -0.0471    0.0302 C.ar     1 ZINC000000007670   -0.0500
18     C18    -6.1277    0.9032    0.0360 C.ar     1 ZINC000000007670    0.1500
19     O19    -6.3971    2.2308    0.0447 O.3      1 ZINC000000007670   -0.4600
20     H20    -1.3917    2.5717    0.9126 H        1 ZINC000000007670    0.0700
21     H21    -1.4001    2.5813   -0.8673 H        1 ZINC000000007670    0.0700
22     H22    -2.2400    0.0325    0.0128 H        1 ZINC000000007670    0.4200
23     H23    -7.6069   -3.4358    0.0250 H        1 ZINC000000007670    0.1400
24     H24    -9.9388   -2.7236    0.0309 H        1 ZINC000000007670    0.1300
25     H25   -10.5285   -0.3394    0.0364 H        1 ZINC000000007670    0.1300
26     H26    -8.7932    1.3763    0.0354 H        1 ZINC000000007670    0.1400
27     H27    -6.4750    2.6106    0.9306 H        1 ZINC000000007670    0.4000
@<TRIPOS>BOND
1     1     2     ar
2     2     3     ar
3     2     4     1
4     4     5     1
5     4     20    1
6     4     21    1
7     5     6     am
8     5     22    1
9     6     7     2
10    6     8     1
11    8     18    ar
12    8     9     ar
13    9     10    ar
14    10    11    1
15    10    12    ar
16    12    17    ar
17    12    13    ar
18    13    14    ar
19    13    23    1
20    14    15    ar
21    14    24    1
22    15    16    ar
23    15    25    1
24    16    17    ar
25    16    26    1
26    17    18    ar
27    18    19    1
28    19    27    1
@<TRIPOS>SUBSTRUCTURE
1   ZINC000000007670 1     RESIDUE    1   A     ZIN   1
