@<TRIPOS>MOLECULE
ZINC000059817101
78    82    1     0     0
SMALL
USER_CHARGES
@<TRIPOS>ATOM
1      C1     -0.3122    1.3368   -1.2669 C.3      1 ZINC000059817101    0.0200
2      O2     -0.2886   -0.0298   -0.8498 O.3      1 ZINC000059817101   -0.2800
3      C3      0.4415   -0.8909   -1.6021 C.2      1 ZINC000059817101    0.1300
4      C4      1.1281   -0.5568   -2.6767 C.2      1 ZINC000059817101   -0.3400
5      C5      1.8220   -1.7916   -3.2573 C.3      1 ZINC000059817101    0.1300
6      C6      3.2140   -1.3622   -3.7578 C.3      1 ZINC000059817101   -0.1200
7      C7      2.9674   -0.9123   -5.2164 C.3      1 ZINC000059817101   -0.1400
8      C8      1.4538   -1.1260   -5.4477 C.3      1 ZINC000059817101    0.0000
9      N9      1.0802   -2.1813   -4.4539 N.4      1 ZINC000059817101   -0.3700
10     H10     0.0876   -2.1604   -4.2742 H        1 ZINC000059817101    0.4300
11     C11     1.4638   -3.4559   -5.0032 C.3      1 ZINC000059817101   -0.0100
12     C12     0.8599   -4.6577   -4.3548 C.3      1 ZINC000059817101   -0.1100
13     C13     1.5527   -5.0725   -3.0946 C.ar     1 ZINC000059817101   -0.0400
14     C14     1.6087   -6.4623   -2.9014 C.ar     1 ZINC000059817101   -0.1100
15     C15     2.3091   -6.9561   -1.8196 C.ar     1 ZINC000059817101    0.0600
16     C16     2.9637   -6.0773   -0.9426 C.ar     1 ZINC000059817101    0.0400
17     C17     2.8751   -4.7134   -1.1213 C.ar     1 ZINC000059817101   -0.1100
18     C18     2.1064   -4.2071   -2.1914 C.ar     1 ZINC000059817101   -0.0700
19     C19     1.8698   -2.7400   -2.1096 C.3      1 ZINC000059817101    0.0100
20     C20     2.9825   -2.2062   -1.2053 C.3      1 ZINC000059817101   -0.1700
21     C21     0.5901   -2.3774   -1.3228 C.3      1 ZINC000059817101    0.1100
22     H22     0.7223   -2.5703   -0.2582 H        1 ZINC000059817101    0.1200
23     O23    -0.5560   -3.1047   -1.8383 O.3      1 ZINC000059817101   -0.3400
24     C24    -1.5340   -3.3979   -0.9669 C.2      1 ZINC000059817101    0.4400
25     O25    -1.4355   -3.0581    0.1884 O.2      1 ZINC000059817101   -0.4800
26     C26    -2.7546   -4.1509   -1.4295 C.3      1 ZINC000059817101    0.1900
27     O27    -2.3789   -5.0977   -2.4317 O.3      1 ZINC000059817101   -0.5100
28     C28    -3.3806   -4.8859   -0.2426 C.3      1 ZINC000059817101   -0.1400
29     C29    -2.3799   -5.9005    0.3143 C.3      1 ZINC000059817101   -0.1200
30     C30    -2.9583   -6.5488    1.5737 C.3      1 ZINC000059817101   -0.1400
31     C31    -1.9576   -7.5633    2.1306 C.3      1 ZINC000059817101    0.1300
32     C32    -0.6492   -6.8507    2.4788 C.3      1 ZINC000059817101   -0.1400
33     C33    -2.5360   -8.2117    3.3900 C.3      1 ZINC000059817101   -0.1800
34     O34    -1.7047   -8.5709    1.1493 O.3      1 ZINC000059817101   -0.5600
35     C35    -3.7703   -3.1666   -2.0130 C.3      1 ZINC000059817101   -0.1800
36     C36    -4.9725   -3.9239   -2.5152 C.2      1 ZINC000059817101    0.5000
37     O37    -4.9626   -5.1430   -2.5298 O.co2    1 ZINC000059817101   -0.6700
38     O38    -5.9551   -3.3176   -2.9069 O.co2    1 ZINC000059817101   -0.7000
39     O39     3.6092   -6.8050   -0.0023 O.3      1 ZINC000059817101   -0.3000
40     C40     3.0072   -8.1155   -0.0510 C.3      1 ZINC000059817101    0.2100
41     O41     2.5165   -8.2253   -1.4032 O.3      1 ZINC000059817101   -0.3000
42     H42     0.7026    1.7347   -1.2656 H        1 ZINC000059817101    0.0600
43     H43    -0.7269    1.4025   -2.2728 H        1 ZINC000059817101    0.0600
44     H44    -0.9302    1.9156   -0.5805 H        1 ZINC000059817101    0.1100
45     H45     1.1913    0.4403   -3.0868 H        1 ZINC000059817101    0.1600
46     H46     3.5950   -0.5330   -3.1617 H        1 ZINC000059817101    0.1200
47     H47     3.9062   -2.2037   -3.7296 H        1 ZINC000059817101    0.1000
48     H48     3.2245    0.1400   -5.3372 H        1 ZINC000059817101    0.1100
49     H49     3.5467   -1.5266   -5.9057 H        1 ZINC000059817101    0.1000
50     H50     0.9037   -0.2055   -5.2524 H        1 ZINC000059817101    0.1300
51     H51     1.2680   -1.4750   -6.4635 H        1 ZINC000059817101    0.1400
52     H52     1.1922   -3.4666   -6.0587 H        1 ZINC000059817101    0.1300
53     H53     2.5483   -3.5423   -4.9360 H        1 ZINC000059817101    0.1200
54     H54    -0.1833   -4.4419   -4.1241 H        1 ZINC000059817101    0.1200
55     H55     0.8933   -5.4879   -5.0602 H        1 ZINC000059817101    0.1200
56     H56     1.1121   -7.1329   -3.5870 H        1 ZINC000059817101    0.1500
57     H57     3.3876   -4.0400   -0.4502 H        1 ZINC000059817101    0.1600
58     H58     3.9461   -2.5712   -1.5608 H        1 ZINC000059817101    0.0900
59     H59     2.9766   -1.1164   -1.2264 H        1 ZINC000059817101    0.0800
60     H60     2.8177   -2.5507   -0.1844 H        1 ZINC000059817101    0.0800
61     H61    -1.7356   -5.7541   -2.1312 H        1 ZINC000059817101    0.3600
62     H62    -3.6396   -4.1668    0.5345 H        1 ZINC000059817101    0.0700
63     H63    -4.2806   -5.4059   -0.5709 H        1 ZINC000059817101    0.1200
64     H64    -2.1870   -6.6690   -0.4342 H        1 ZINC000059817101    0.0700
65     H65    -1.4478   -5.3928    0.5624 H        1 ZINC000059817101    0.0500
66     H66    -3.1512   -5.7803    2.3222 H        1 ZINC000059817101    0.0700
67     H67    -3.8904   -7.0565    1.3256 H        1 ZINC000059817101    0.0700
68     H68    -0.8421   -6.0822    3.2273 H        1 ZINC000059817101    0.0700
69     H69     0.0638   -7.5735    2.8755 H        1 ZINC000059817101    0.0600
70     H70    -0.2371   -6.3889    1.5816 H        1 ZINC000059817101    0.0600
71     H71    -3.4681   -8.7194    3.1419 H        1 ZINC000059817101    0.0600
72     H72    -1.8230   -8.9345    3.7867 H        1 ZINC000059817101    0.0600
73     H73    -2.7289   -7.4431    4.1385 H        1 ZINC000059817101    0.0600
74     H74    -2.4916   -9.0644    0.8805 H        1 ZINC000059817101    0.3800
75     H75    -4.0806   -2.4637   -1.2399 H        1 ZINC000059817101    0.0800
76     H76    -3.3140   -2.6204   -2.8386 H        1 ZINC000059817101    0.0600
77     H77     3.7522   -8.8857    0.1488 H        1 ZINC000059817101    0.1400
78     H78     2.1846   -8.1847    0.6607 H        1 ZINC000059817101    0.1000
@<TRIPOS>BOND
1     1     2     1
2     1     42    1
3     1     43    1
4     1     44    1
5     2     3     1
6     3     21    1
7     3     4     2
8     4     5     1
9     4     45    1
10    5     9     1
11    5     19    1
12    5     6     1
13    6     7     1
14    6     46    1
15    6     47    1
16    7     8     1
17    7     48    1
18    7     49    1
19    8     9     1
20    8     50    1
21    8     51    1
22    9     10    1
23    9     11    1
24    11    12    1
25    11    52    1
26    11    53    1
27    12    13    1
28    12    54    1
29    12    55    1
30    13    18    ar
31    13    14    ar
32    14    15    ar
33    14    56    1
34    15    41    1
35    15    16    ar
36    16    17    ar
37    16    39    1
38    17    18    ar
39    17    57    1
40    18    19    1
41    19    20    1
42    19    21    1
43    20    58    1
44    20    59    1
45    20    60    1
46    21    22    1
47    21    23    1
48    23    24    1
49    24    25    2
50    24    26    1
51    26    27    1
52    26    28    1
53    26    35    1
54    27    61    1
55    28    29    1
56    28    62    1
57    28    63    1
58    29    30    1
59    29    64    1
60    29    65    1
61    30    31    1
62    30    66    1
63    30    67    1
64    31    32    1
65    31    33    1
66    31    34    1
67    32    68    1
68    32    69    1
69    32    70    1
70    33    71    1
71    33    72    1
72    33    73    1
73    34    74    1
74    35    36    1
75    35    75    1
76    35    76    1
77    36    37    ar
78    36    38    ar
79    39    40    1
80    40    41    1
81    40    77    1
82    40    78    1
@<TRIPOS>SUBSTRUCTURE
1   ZINC000059817101 1     RESIDUE    1   A     ZIN   1
