@<TRIPOS>MOLECULE
ZINC000006718442
61    66    1     0     0
SMALL
USER_CHARGES
@<TRIPOS>ATOM
1      C1      0.1207    1.5962    0.0842 C.3      1 ZINC000006718442   -0.1500
2      C2      0.1653    0.0671    0.0586 C.3      1 ZINC000006718442   -0.0300
3      C3     -1.2366   -0.4744    0.2136 C.3      1 ZINC000006718442   -0.1000
4      C4     -1.8341    0.1928    1.4644 C.3      1 ZINC000006718442   -0.1200
5      C5     -0.9781   -0.0437    2.7045 C.3      1 ZINC000006718442   -0.0700
6      H6     -1.0096   -1.1066    2.9439 H        1 ZINC000006718442    0.0700
7      C7      0.4881    0.3578    2.4862 C.3      1 ZINC000006718442   -0.0700
8      H8      0.5644    1.4304    2.3080 H        1 ZINC000006718442    0.0900
9      C9      1.2799   -0.0306    3.7400 C.3      1 ZINC000006718442   -0.0800
10     C10     0.6557    0.6213    4.9393 C.2      1 ZINC000006718442   -0.1500
11     C11    -0.6012    0.9529    4.9913 C.2      1 ZINC000006718442   -0.1000
12     C12    -1.1215    1.6013    6.2632 C.3      1 ZINC000006718442   -0.1200
13     C13    -2.3679    0.8379    6.7206 C.3      1 ZINC000006718442    0.1100
14     H14    -2.0902   -0.1798    6.9952 H        1 ZINC000006718442    0.0500
15     O15    -2.9416    1.4966    7.8515 O.3      1 ZINC000006718442   -0.5700
16     C16    -3.3882    0.7984    5.5816 C.3      1 ZINC000006718442   -0.1200
17     C17    -2.8128    0.0121    4.4018 C.3      1 ZINC000006718442   -0.1000
18     C18    -1.5550    0.7263    3.8811 C.3      1 ZINC000006718442   -0.0200
19     C19    -1.9723    2.1016    3.3563 C.3      1 ZINC000006718442   -0.1500
20     C20     0.9872   -0.4394    1.2803 C.3      1 ZINC000006718442   -0.0800
21     H21     0.8713   -1.5115    1.4394 H        1 ZINC000006718442    0.0900
22     C22     2.3936   -0.0980    0.7666 C.3      1 ZINC000006718442   -0.0900
23     C23     2.2788   -0.4571   -0.7149 C.2      1 ZINC000006718442   -0.1300
24     C24     0.9828   -0.3810   -1.1056 C.2      1 ZINC000006718442    0.0600
25     N25     0.5012   -0.6663   -2.3828 N.pl3    1 ZINC000006718442   -0.4300
26     C26    -0.1905   -1.7800   -2.7560 C.2      1 ZINC000006718442    0.2700
27     N27    -0.4848   -1.7196   -4.0219 N.2      1 ZINC000006718442   -0.4900
28     C28    -0.0033   -0.5644   -4.5494 C.ar     1 ZINC000006718442    0.0400
29     C29    -0.0337   -0.0047   -5.8291 C.ar     1 ZINC000006718442   -0.0600
30     C30     0.5610    1.2159   -6.0556 C.ar     1 ZINC000006718442   -0.1300
31     C31     1.1911    1.8952   -5.0229 C.ar     1 ZINC000006718442   -0.1000
32     C32     1.2307    1.3569   -3.7540 C.ar     1 ZINC000006718442   -0.1100
33     C33     0.6312    0.1307   -3.5056 C.ar     1 ZINC000006718442    0.0500
34     H34     1.1372    1.9895    0.0747 H        1 ZINC000006718442    0.0600
35     H35    -0.4173    1.9587   -0.7917 H        1 ZINC000006718442    0.0500
36     H36    -0.3895    1.9298    0.9878 H        1 ZINC000006718442    0.0800
37     H37    -1.8324   -0.2226   -0.6637 H        1 ZINC000006718442    0.0600
38     H38    -1.2059   -1.5558    0.3467 H        1 ZINC000006718442    0.0700
39     H39    -1.9149    1.2656    1.2891 H        1 ZINC000006718442    0.0800
40     H40    -2.8309   -0.2118    1.6396 H        1 ZINC000006718442    0.0700
41     H41     1.2600   -1.1135    3.8625 H        1 ZINC000006718442    0.0700
42     H42     2.3116    0.3063    3.6381 H        1 ZINC000006718442    0.0700
43     H43     1.2784    0.8246    5.7980 H        1 ZINC000006718442    0.1000
44     H44    -0.3569    1.5538    7.0386 H        1 ZINC000006718442    0.0700
45     H45    -1.3802    2.6415    6.0655 H        1 ZINC000006718442    0.0800
46     H46    -2.3492    1.5582    8.6133 H        1 ZINC000006718442    0.3800
47     H47    -4.3012    0.3148    5.9291 H        1 ZINC000006718442    0.0700
48     H48    -3.6158    1.8157    5.2631 H        1 ZINC000006718442    0.0700
49     H49    -2.5383   -0.9898    4.7318 H        1 ZINC000006718442    0.0600
50     H50    -3.5604   -0.0569    3.6116 H        1 ZINC000006718442    0.0700
51     H51    -2.2995    2.7242    4.1890 H        1 ZINC000006718442    0.0600
52     H52    -1.1242    2.5740    2.8607 H        1 ZINC000006718442    0.0600
53     H53    -2.7905    1.9862    2.6454 H        1 ZINC000006718442    0.0600
54     H54     2.6092    0.9627    0.8954 H        1 ZINC000006718442    0.0900
55     H55     3.1484   -0.7108    1.2593 H        1 ZINC000006718442    0.0800
56     H56     3.1054   -0.7372   -1.3510 H        1 ZINC000006718442    0.1300
57     H57    -0.4555   -2.5937   -2.0971 H        1 ZINC000006718442    0.2100
58     H58    -0.5217   -0.5280   -6.6380 H        1 ZINC000006718442    0.1300
59     H59     0.5371    1.6480   -7.0450 H        1 ZINC000006718442    0.1300
60     H60     1.6541    2.8520   -5.2142 H        1 ZINC000006718442    0.1300
61     H61     1.7234    1.8904   -2.9547 H        1 ZINC000006718442    0.1200
@<TRIPOS>BOND
1     1     2     1
2     1     34    1
3     1     35    1
4     1     36    1
5     2     20    1
6     2     24    1
7     2     3     1
8     3     4     1
9     3     37    1
10    3     38    1
11    4     5     1
12    4     39    1
13    4     40    1
14    5     6     1
15    5     18    1
16    5     7     1
17    7     8     1
18    7     9     1
19    7     20    1
20    9     10    1
21    9     41    1
22    9     42    1
23    10    11    2
24    10    43    1
25    11    18    1
26    11    12    1
27    12    13    1
28    12    44    1
29    12    45    1
30    13    14    1
31    13    15    1
32    13    16    1
33    15    46    1
34    16    17    1
35    16    47    1
36    16    48    1
37    17    18    1
38    17    49    1
39    17    50    1
40    18    19    1
41    19    51    1
42    19    52    1
43    19    53    1
44    20    21    1
45    20    22    1
46    22    23    1
47    22    54    1
48    22    55    1
49    23    24    2
50    23    56    1
51    24    25    1
52    25    33    1
53    25    26    1
54    26    27    2
55    26    57    1
56    27    28    1
57    28    33    ar
58    28    29    ar
59    29    30    ar
60    29    58    1
61    30    31    ar
62    30    59    1
63    31    32    ar
64    31    60    1
65    32    33    ar
66    32    61    1
@<TRIPOS>SUBSTRUCTURE
1   ZINC000006718442 1     RESIDUE    1   A     ZIN   1
