@<TRIPOS>MOLECULE
ZINC000008214647
  17   16    0    0    0
SMALL
USER_CHARGES
NO_NAME
@<TRIPOS>ATOM
    1 F1        0.0021    -0.0041     0.0020 F      1 <0>      -0.1400
    2 C2       -0.0169     1.3948     0.0097 C.3    1 <0>       0.4400
    3 F3        1.2956     1.8790    -0.0002 F      1 <0>      -0.1400
    4 F4       -0.6935     1.8582    -1.1237 F      1 <0>      -0.1400
    5 C5       -0.7330     1.8882     1.2685 C.3    1 <0>       0.2300
    6 F6       -0.0564     1.4248     2.4019 F      1 <0>      -0.1200
    7 F7       -0.7520     3.2871     1.2762 F      1 <0>      -0.1200
    8 C8       -2.1684     1.3586     1.2794 C.3    1 <0>       0.2200
    9 F9       -2.8451     1.8221     0.1460 F      1 <0>      -0.1200
   10 F10      -2.1494    -0.0402     1.2717 F      1 <0>      -0.1200
   11 C11      -2.8846     1.8520     2.5382 C.3    1 <0>       0.2300
   12 F12      -2.2079     1.3886     3.6716 F      1 <0>      -0.1200
   13 F13      -2.9035     3.2509     2.5459 F      1 <0>      -0.1200
   14 C14      -4.3199     1.3225     2.5490 C.3    1 <0>       0.4400
   15 F15      -4.3010    -0.0764     2.5413 F      1 <0>      -0.1400
   16 F16      -4.9748     1.7736     3.7001 F      1 <0>      -0.1400
   17 F17      -4.9966     1.7859     1.4156 F      1 <0>      -0.1400
@<TRIPOS>BOND
   1    1    2 1
   2    2    3 1
   3    2    4 1
   4    2    5 1
   5    5    6 1
   6    5    7 1
   7    5    8 1
   8    8    9 1
   9    8   10 1
  10    8   11 1
  11   11   12 1
  12   11   13 1
  13   11   14 1
  14   14   15 1
  15   14   16 1
  16   14   17 1
