@<TRIPOS>MOLECULE
ZINC000004632133
  72   71    0    0    0
SMALL
USER_CHARGES
NO_NAME
@<TRIPOS>ATOM
    1 C1       -1.0344     2.4218     0.3760 C.3    1 <0>      -0.1500
    2 C2       -0.8347     0.9212     0.1543 C.3    1 <0>      -0.1200
    3 C3       -2.1634     0.1930     0.3665 C.3    1 <0>      -0.1200
    4 C4       -1.9637    -1.3076     0.1448 C.3    1 <0>      -0.1100
    5 C5       -3.2925    -2.0358     0.3570 C.3    1 <0>      -0.1000
    6 C6       -3.0957    -3.5139     0.1386 C.2    1 <0>      -0.1600
    7 C7       -3.4800    -4.3681     1.0544 C.2    1 <0>      -0.1500
    8 C8       -4.2525    -3.8880     2.2560 C.3    1 <0>      -0.0800
    9 C9       -5.5150    -4.6985     2.3982 C.2    1 <0>      -0.1500
   10 C10      -5.7900    -5.3068     3.5519 C.2    1 <0>      -0.1200
   11 C11      -4.9414    -5.0744     4.7229 C.2    1 <0>      -0.1400
   12 C12      -5.1676    -5.7547     5.8656 C.2    1 <0>      -0.1000
   13 C13      -4.3191    -5.5222     7.0367 C.2    1 <0>      -0.1400
   14 C14      -4.5426    -6.1945     8.1657 C.2    1 <0>      -0.1000
   15 C15      -3.6695    -5.9553     9.3705 C.3    1 <0>      -0.0800
   16 H16      -2.9163    -5.2050     9.1302 H      1 <0>       0.0900
   17 S17      -4.6904    -5.3671    10.7498 S.3    1 <0>      -0.1700
   18 C18      -5.3040    -3.7686    10.1507 C.3    1 <0>      -0.0900
   19 C19      -6.0916    -3.0749    11.2639 C.3    1 <0>       0.0900
   20 H20      -5.4412    -2.9152    12.1239 H      1 <0>       0.1100
   21 N21      -7.2274    -3.9185    11.6590 N.3    1 <0>      -0.8100
   22 C22      -6.6014    -1.7470    10.7661 C.2    1 <0>       0.4700
   23 O23      -7.7520    -1.6383    10.3985 O.2    1 <0>      -0.5600
   24 N24      -5.7786    -0.6801    10.7295 N.am   1 <0>      -0.6900
   25 C25      -6.2742     0.6108    10.2456 C.3    1 <0>       0.0500
   26 C26      -5.1651     1.6293    10.3060 C.2    1 <0>       0.4900
   27 O27      -4.0629     1.3068    10.7153 O.co2  1 <0>      -0.6900
   28 O28      -5.3701     2.7759     9.9455 O.co2  1 <0>      -0.6900
   29 C29      -2.9794    -7.2618     9.7677 C.3    1 <0>       0.1400
   30 H30      -3.7305    -7.9939    10.0640 H      1 <0>       0.1100
   31 O31      -2.2362    -7.7651     8.6558 O.3    1 <0>      -0.5500
   32 C32      -2.0307    -7.0016    10.9395 C.3    1 <0>      -0.1500
   33 C33      -1.4410    -8.3282    11.4226 C.3    1 <0>      -0.0900
   34 C34      -0.4923    -8.0681    12.5944 C.3    1 <0>      -0.1800
   35 C35       0.0885    -9.3747    13.0702 C.2    1 <0>       0.4900
   36 O36      -0.2272   -10.4174    12.5227 O.co2  1 <0>      -0.7000
   37 O37       0.8740    -9.3892    14.0025 O.co2  1 <0>      -0.7100
   38 H38      -0.0878     2.9406     0.2248 H      1 <0>       0.0500
   39 H39      -1.7723     2.7986    -0.3322 H      1 <0>       0.0500
   40 H40      -1.3854     2.5952     1.3932 H      1 <0>       0.0600
   41 H41      -0.4837     0.7477    -0.8630 H      1 <0>       0.0600
   42 H42      -0.0967     0.5443     0.8625 H      1 <0>       0.0600
   43 H43      -2.5144     0.3664     1.3837 H      1 <0>       0.0600
   44 H44      -2.9014     0.5698    -0.3417 H      1 <0>       0.0600
   45 H45      -1.6127    -1.4811    -0.8725 H      1 <0>       0.0600
   46 H46      -1.2258    -1.6845     0.8530 H      1 <0>       0.0600
   47 H47      -3.6435    -1.8624     1.3742 H      1 <0>       0.0800
   48 H48      -4.0304    -1.6590    -0.3512 H      1 <0>       0.0700
   49 H49      -2.6380    -3.8689    -0.7729 H      1 <0>       0.1100
   50 H50      -3.2432    -5.4165     0.9483 H      1 <0>       0.1100
   51 H51      -3.6421    -4.0061     3.1513 H      1 <0>       0.0800
   52 H52      -4.5084    -2.8364     2.1269 H      1 <0>       0.0900
   53 H53      -6.1969    -4.7865     1.5654 H      1 <0>       0.1100
   54 H54      -6.6385    -5.9712     3.6233 H      1 <0>       0.1100
   55 H55      -4.1346    -4.3583     4.6715 H      1 <0>       0.1200
   56 H56      -5.9745    -6.4708     5.9170 H      1 <0>       0.1100
   57 H57      -3.5122    -4.8061     6.9853 H      1 <0>       0.1100
   58 H58      -5.3494    -6.9106     8.2171 H      1 <0>       0.1200
   59 H59      -4.4612    -3.1426     9.8575 H      1 <0>       0.0900
   60 H60      -5.9544    -3.9283     9.2907 H      1 <0>       0.0800
   61 H61      -7.7260    -3.5127    12.4367 H      1 <0>       0.3400
   62 H62      -7.8457    -4.0813    10.8785 H      1 <0>       0.3500
   63 H63      -4.8584    -0.7670    11.0235 H      1 <0>       0.4100
   64 H64      -6.6156     0.5061     9.2157 H      1 <0>       0.0600
   65 H65      -7.1037     0.9394    10.8717 H      1 <0>       0.0600
   66 H66      -1.5484    -7.1642     8.3381 H      1 <0>       0.3700
   67 H67      -1.2252    -6.3426    10.6155 H      1 <0>       0.0600
   68 H68      -2.5803    -6.5302    11.7543 H      1 <0>       0.0800
   69 H69      -2.2465    -8.9873    11.7466 H      1 <0>       0.0600
   70 H70      -0.8914    -8.7996    10.6078 H      1 <0>       0.0600
   71 H71       0.3132    -7.4090    12.2703 H      1 <0>       0.0500
   72 H72      -1.0419    -7.5967    13.4091 H      1 <0>       0.0600
@<TRIPOS>BOND
   1    1    2 1
   2    1   38 1
   3    1   39 1
   4    1   40 1
   5    2    3 1
   6    2   41 1
   7    2   42 1
   8    3    4 1
   9    3   43 1
  10    3   44 1
  11    4    5 1
  12    4   45 1
  13    4   46 1
  14    5    6 1
  15    5   47 1
  16    5   48 1
  17    6    7 2
  18    6   49 1
  19    7    8 1
  20    7   50 1
  21    8    9 1
  22    8   51 1
  23    8   52 1
  24    9   10 2
  25    9   53 1
  26   10   11 1
  27   10   54 1
  28   11   12 2
  29   11   55 1
  30   12   13 1
  31   12   56 1
  32   13   14 2
  33   13   57 1
  34   14   15 1
  35   14   58 1
  36   15   16 1
  37   15   17 1
  38   15   29 1
  39   17   18 1
  40   18   19 1
  41   18   59 1
  42   18   60 1
  43   19   20 1
  44   19   21 1
  45   19   22 1
  46   21   61 1
  47   21   62 1
  48   22   23 2
  49   22   24 am
  50   24   25 1
  51   24   63 1
  52   25   26 1
  53   25   64 1
  54   25   65 1
  55   26   27 ar
  56   26   28 ar
  57   29   30 1
  58   29   31 1
  59   29   32 1
  60   31   66 1
  61   32   33 1
  62   32   67 1
  63   32   68 1
  64   33   34 1
  65   33   69 1
  66   33   70 1
  67   34   35 1
  68   34   71 1
  69   34   72 1
  70   35   36 ar
  71   35   37 ar
