@<TRIPOS>MOLECULE
ZINC000000002131
41    43    1     0     0
SMALL
USER_CHARGES
@<TRIPOS>ATOM
1      C1      0.0149    1.3482   -0.5824 C.2      1 ZINC000000002131   -0.1400
2      C2      1.1214    1.9510   -0.1448 C.2      1 ZINC000000002131   -0.1800
3      S3      2.3118    0.7395    0.3120 S.3      1 ZINC000000002131    0.1000
4      C4      1.2072   -0.5558   -0.1300 C.2      1 ZINC000000002131   -0.2600
5      C5      1.5083   -2.0286   -0.0232 C.3      1 ZINC000000002131    0.1500
6      N6      2.9550   -2.2438   -0.1595 N.4      1 ZINC000000002131   -0.3800
7      H7      3.1399   -3.2314   -0.2517 H        1 ZINC000000002131    0.4200
8      C8      3.6392   -1.7286    1.0325 C.3      1 ZINC000000002131   -0.0200
9      C9      5.1375   -2.0228    0.9324 C.3      1 ZINC000000002131   -0.1400
10     C10     5.7035   -1.3420   -0.3172 C.3      1 ZINC000000002131   -0.1400
11     C11     4.9325   -1.8314   -1.5466 C.3      1 ZINC000000002131   -0.1400
12     C12     3.4421   -1.5428   -1.3536 C.3      1 ZINC000000002131   -0.0300
13     C13     1.0416   -2.5471    1.3385 C.3      1 ZINC000000002131   -0.1400
14     C14     1.3472   -4.0423    1.4469 C.3      1 ZINC000000002131   -0.1400
15     C15     0.6128   -4.7949    0.3355 C.3      1 ZINC000000002131   -0.1300
16     C16     1.0795   -4.2764   -1.0262 C.3      1 ZINC000000002131   -0.1300
17     C17     0.7738   -2.7812   -1.1346 C.3      1 ZINC000000002131   -0.1300
18     C18     0.0623   -0.0352   -0.5742 C.2      1 ZINC000000002131   -0.0600
19     H19    -0.8538    1.8977   -0.9137 H        1 ZINC000000002131    0.1600
20     H20     1.2646    3.0196   -0.0811 H        1 ZINC000000002131    0.1800
21     H21     3.4848   -0.6519    1.1027 H        1 ZINC000000002131    0.1200
22     H22     3.2332   -2.2116    1.9212 H        1 ZINC000000002131    0.1400
23     H23     5.6440   -1.6379    1.8175 H        1 ZINC000000002131    0.1100
24     H24     5.2932   -3.0994    0.8624 H        1 ZINC000000002131    0.0900
25     H25     5.5942   -0.2615   -0.2247 H        1 ZINC000000002131    0.0800
26     H26     6.7583   -1.5950   -0.4240 H        1 ZINC000000002131    0.1000
27     H27     5.2924   -1.3097   -2.4334 H        1 ZINC000000002131    0.1100
28     H28     5.0839   -2.9040   -1.6680 H        1 ZINC000000002131    0.0900
29     H29     2.8893   -1.8894   -2.2268 H        1 ZINC000000002131    0.1300
30     H30     3.2929   -0.4698   -1.2327 H        1 ZINC000000002131    0.1400
31     H31     1.5648   -2.0110    2.1302 H        1 ZINC000000002131    0.0900
32     H32    -0.0319   -2.3874    1.4396 H        1 ZINC000000002131    0.1100
33     H33     2.4207   -4.2020    1.3458 H        1 ZINC000000002131    0.0600
34     H34     1.0147   -4.4117    2.4170 H        1 ZINC000000002131    0.1000
35     H35     0.8305   -5.8601    0.4128 H        1 ZINC000000002131    0.0800
36     H36    -0.4607   -4.6352    0.4367 H        1 ZINC000000002131    0.0800
37     H37     2.1530   -4.4361   -1.1273 H        1 ZINC000000002131    0.0600
38     H38     0.5562   -4.8125   -1.8179 H        1 ZINC000000002131    0.1000
39     H39    -0.2997   -2.6215   -1.0335 H        1 ZINC000000002131    0.1100
40     H40     1.1063   -2.4117   -2.1047 H        1 ZINC000000002131    0.0900
41     H41    -0.7653   -0.6468   -0.9023 H        1 ZINC000000002131    0.1500
@<TRIPOS>BOND
1     1     18    1
2     1     2     2
3     1     19    1
4     2     3     1
5     2     20    1
6     3     4     1
7     4     5     1
8     4     18    2
9     5     17    1
10    5     6     1
11    5     13    1
12    6     7     1
13    6     12    1
14    6     8     1
15    8     9     1
16    8     21    1
17    8     22    1
18    9     10    1
19    9     23    1
20    9     24    1
21    10    11    1
22    10    25    1
23    10    26    1
24    11    12    1
25    11    27    1
26    11    28    1
27    12    29    1
28    12    30    1
29    13    14    1
30    13    31    1
31    13    32    1
32    14    15    1
33    14    33    1
34    14    34    1
35    15    16    1
36    15    35    1
37    15    36    1
38    16    17    1
39    16    37    1
40    16    38    1
41    17    39    1
42    17    40    1
43    18    41    1
@<TRIPOS>SUBSTRUCTURE
1   ZINC000000002131 1     RESIDUE    1   A     ZIN   1
