@<TRIPOS>MOLECULE
ZINC000022444780
70    73    1     0     0
SMALL
USER_CHARGES
@<TRIPOS>ATOM
1      C1     -0.3576    2.4622    3.0387 C.2      1 ZINC000022444780   -0.1900
2      C2     -0.8605    1.5038    3.7767 C.2      1 ZINC000022444780   -0.1500
3      C3     -1.1453    0.1548    3.1683 C.3      1 ZINC000022444780    0.0800
4      N4     -0.4558   -0.8866    3.9417 N.3      1 ZINC000022444780   -0.5300
5      C5      0.9348   -0.5018    4.2203 C.3      1 ZINC000022444780    0.0700
6      C6      1.5928   -1.5733    5.0929 C.3      1 ZINC000022444780    0.0900
7      H7      1.0621   -1.6455    6.0423 H        1 ZINC000022444780    0.0500
8      C8      3.0526   -1.1955    5.3515 C.3      1 ZINC000022444780   -0.1600
9      N9      1.5363   -2.8681    4.4001 N.3      1 ZINC000022444780   -0.5200
10     C10     2.2258   -3.9095    5.1734 C.3      1 ZINC000022444780    0.1700
11     H11     1.9708   -3.8075    6.2283 H        1 ZINC000022444780    0.0600
12     C12     1.7962   -5.2677    4.6818 C.ar     1 ZINC000022444780   -0.0600
13     C13     2.0346   -5.6347    3.3705 C.ar     1 ZINC000022444780   -0.1000
14     C14     1.6416   -6.8803    2.9162 C.ar     1 ZINC000022444780   -0.1000
15     C15     1.0095   -7.7610    3.7722 C.ar     1 ZINC000022444780   -0.1400
16     C16     0.7691   -7.3951    5.0888 C.ar     1 ZINC000022444780    0.1100
17     O17     0.1478   -8.2600    5.9331 O.3      1 ZINC000022444780   -0.5000
18     C18     1.1694   -6.1472    5.5435 C.ar     1 ZINC000022444780   -0.1400
19     C19     3.7154   -3.7606    5.0001 C.ar     1 ZINC000022444780   -0.0700
20     C20     4.2316   -3.3582    3.7813 C.ar     1 ZINC000022444780   -0.0600
21     C21     5.5982   -3.2190    3.6137 C.ar     1 ZINC000022444780   -0.1300
22     C22     6.4550   -3.4810    4.6624 C.ar     1 ZINC000022444780   -0.1100
23     C23     5.9407   -3.8874    5.8950 C.ar     1 ZINC000022444780   -0.1300
24     C24     6.8529   -4.1698    7.0233 C.2      1 ZINC000022444780    0.5600
25     O25     6.4853   -3.9750    8.1655 O.2      1 ZINC000022444780   -0.5000
26     N26     8.0922   -4.6433    6.7856 N.am     1 ZINC000022444780   -0.5500
27     C27     8.5884   -4.7393    5.4106 C.3      1 ZINC000022444780    0.0500
28     C28     8.9044   -5.0429    7.8516 C.ar     1 ZINC000022444780    0.1800
29     C29     8.3798   -5.1192    9.1353 C.ar     1 ZINC000022444780   -0.1700
30     C30     9.1835   -5.5145   10.1870 C.ar     1 ZINC000022444780   -0.0700
31     C31    10.5097   -5.8341    9.9638 C.ar     1 ZINC000022444780   -0.1800
32     C32    11.0372   -5.7590    8.6851 C.ar     1 ZINC000022444780    0.1200
33     F33    12.3338   -6.0715    8.4700 F        1 ZINC000022444780   -0.1400
34     C34    10.2354   -5.3697    7.6275 C.ar     1 ZINC000022444780   -0.2000
35     C35     4.5610   -4.0204    6.0590 C.ar     1 ZINC000022444780   -0.0600
36     C36     0.1457   -3.2529    4.1214 C.3      1 ZINC000022444780    0.0600
37     C37    -0.5122   -2.1813    3.2488 C.3      1 ZINC000022444780    0.0900
38     H38     0.0184   -2.1092    2.2995 H        1 ZINC000022444780    0.0500
39     C39    -1.9721   -2.5592    2.9902 C.3      1 ZINC000022444780   -0.1500
40     H40    -0.1470    2.2855    1.9943 H        1 ZINC000022444780    0.0900
41     H41    -0.1576    3.4303    3.4737 H        1 ZINC000022444780    0.1000
42     H42    -1.0711    1.6805    4.8211 H        1 ZINC000022444780    0.1100
43     H43    -2.2191   -0.0317    3.1844 H        1 ZINC000022444780    0.0900
44     H44    -0.7891    0.1383    2.1383 H        1 ZINC000022444780    0.0400
45     H45     1.4819   -0.4106    3.2820 H        1 ZINC000022444780    0.0400
46     H46     0.9497    0.4537    4.7446 H        1 ZINC000022444780    0.0800
47     H47     3.0939   -0.2342    5.8638 H        1 ZINC000022444780    0.0600
48     H48     3.5209   -1.9588    5.9729 H        1 ZINC000022444780    0.0700
49     H49     3.5832   -1.1242    4.4020 H        1 ZINC000022444780    0.0700
50     H50     2.5283   -4.9474    2.6995 H        1 ZINC000022444780    0.1300
51     H51     1.8286   -7.1646    1.8913 H        1 ZINC000022444780    0.1300
52     H52     0.7025   -8.7336    3.4169 H        1 ZINC000022444780    0.1300
53     H53     0.7516   -8.8432    6.4131 H        1 ZINC000022444780    0.3900
54     H54     0.9833   -5.8600    6.5679 H        1 ZINC000022444780    0.1300
55     H55     3.5651   -3.1522    2.9568 H        1 ZINC000022444780    0.1400
56     H56     5.9947   -2.9049    2.6595 H        1 ZINC000022444780    0.1300
57     H57     7.5213   -3.3723    4.5301 H        1 ZINC000022444780    0.1400
58     H58     9.0691   -3.8016    5.1315 H        1 ZINC000022444780    0.0800
59     H59     9.3107   -5.5526    5.3409 H        1 ZINC000022444780    0.0800
60     H60     7.7547   -4.9350    4.7362 H        1 ZINC000022444780    0.1000
61     H61     7.3440   -4.8691    9.3113 H        1 ZINC000022444780    0.1800
62     H62     8.7751   -5.5737   11.1850 H        1 ZINC000022444780    0.1400
63     H63    11.1358   -6.1426   10.7880 H        1 ZINC000022444780    0.1400
64     H64    10.6460   -5.3113    6.6303 H        1 ZINC000022444780    0.1400
65     H65     4.1567   -4.3343    7.0100 H        1 ZINC000022444780    0.1300
66     H66     0.1308   -4.2084    3.5971 H        1 ZINC000022444780    0.0900
67     H67    -0.4014   -3.3441    5.0598 H        1 ZINC000022444780    0.0400
68     H68    -2.5027   -2.6305    3.9397 H        1 ZINC000022444780    0.0600
69     H69    -2.4404   -1.7959    2.3688 H        1 ZINC000022444780    0.0600
70     H70    -2.0134   -3.5204    2.4779 H        1 ZINC000022444780    0.0600
@<TRIPOS>BOND
1     1     2     2
2     1     40    1
3     1     41    1
4     2     3     1
5     2     42    1
6     3     4     1
7     3     43    1
8     3     44    1
9     4     37    1
10    4     5     1
11    5     6     1
12    5     45    1
13    5     46    1
14    6     7     1
15    6     8     1
16    6     9     1
17    8     47    1
18    8     48    1
19    8     49    1
20    9     10    1
21    9     36    1
22    10    11    1
23    10    12    1
24    10    19    1
25    12    18    ar
26    12    13    ar
27    13    14    ar
28    13    50    1
29    14    15    ar
30    14    51    1
31    15    16    ar
32    15    52    1
33    16    17    1
34    16    18    ar
35    17    53    1
36    18    54    1
37    19    35    ar
38    19    20    ar
39    20    21    ar
40    20    55    1
41    21    22    ar
42    21    56    1
43    22    23    ar
44    22    57    1
45    23    24    1
46    23    35    ar
47    24    25    2
48    24    26    am
49    26    27    1
50    26    28    1
51    27    58    1
52    27    59    1
53    27    60    1
54    28    34    ar
55    28    29    ar
56    29    30    ar
57    29    61    1
58    30    31    ar
59    30    62    1
60    31    32    ar
61    31    63    1
62    32    33    1
63    32    34    ar
64    34    64    1
65    35    65    1
66    36    37    1
67    36    66    1
68    36    67    1
69    37    38    1
70    37    39    1
71    39    68    1
72    39    69    1
73    39    70    1
@<TRIPOS>SUBSTRUCTURE
1   ZINC000022444780 1     RESIDUE    1   A     ZIN   1
