@<TRIPOS>MOLECULE
ZINC000004214702
47    50    1     0     0
SMALL
USER_CHARGES
@<TRIPOS>ATOM
1      C1     -3.5947    1.8216    0.0285 C.3      1 ZINC000004214702    0.0300
2      O2     -2.3860    1.0594    0.0186 O.3      1 ZINC000004214702   -0.3100
3      C3     -1.2178    1.7549    0.0173 C.ar     1 ZINC000004214702    0.1500
4      C4     -1.2405    3.1465    0.0309 C.ar     1 ZINC000004214702   -0.2000
5      C5     -0.0765    3.8612    0.0236 C.ar     1 ZINC000004214702   -0.0100
6      C6      1.1513    3.1947    0.0083 C.ar     1 ZINC000004214702    0.0100
7      N7      2.4436    3.6144   -0.0018 N.2      1 ZINC000004214702   -0.4600
8      C8      3.2379    2.5846   -0.0150 C.2      1 ZINC000004214702    0.2600
9      C9      4.7431    2.6554   -0.0286 C.3      1 ZINC000004214702    0.1400
10     O10     5.2065    2.6848   -1.3800 O.3      1 ZINC000004214702   -0.3100
11     C11     6.5505    2.7490   -1.5702 C.ar     1 ZINC000004214702    0.1400
12     C12     7.4056    2.7888   -0.4785 C.ar     1 ZINC000004214702   -0.2100
13     C13     8.7718    2.8487   -0.6745 C.ar     1 ZINC000004214702   -0.0700
14     C14     9.2866    2.8797   -1.9573 C.ar     1 ZINC000004214702   -0.1400
15     C15    10.7771    2.9509   -2.1682 C.3      1 ZINC000004214702   -0.0500
16     C16    11.2139    4.4158   -2.2314 C.3      1 ZINC000004214702   -0.1000
17     H17    10.8751    4.9561   -1.3474 H        1 ZINC000004214702    0.1600
18     S18    10.5903    5.2100   -3.7513 S.3      1 ZINC000004214702   -0.1000
19     C19    12.2133    5.5685   -4.3822 C.2      1 ZINC000004214702    0.5400
20     O20    12.4676    6.1268   -5.4318 O.2      1 ZINC000004214702   -0.4300
21     N21    13.1021    5.1161   -3.4952 N.am     1 ZINC000004214702   -0.6800
22     C22    12.7160    4.5204   -2.3794 C.2      1 ZINC000004214702    0.5400
23     O23    13.4939    4.0975   -1.5513 O.2      1 ZINC000004214702   -0.4600
24     C24     8.4363    2.8459   -3.0470 C.ar     1 ZINC000004214702   -0.0600
25     C25     7.0696    2.7807   -2.8564 C.ar     1 ZINC000004214702   -0.1400
26     N26     2.5112    1.4332   -0.0143 N.pl3    1 ZINC000004214702   -0.4800
27     C27     3.0454    0.0692   -0.0263 C.3      1 ZINC000004214702    0.0800
28     C28     1.1774    1.7896    0.0004 C.ar     1 ZINC000004214702    0.1000
29     C29    -0.0126    1.0758    0.0080 C.ar     1 ZINC000004214702   -0.1600
30     H30    -3.6240    2.4448    0.9222 H        1 ZINC000004214702    0.0600
31     H31    -3.6320    2.4552   -0.8577 H        1 ZINC000004214702    0.0600
32     H32    -4.4502    1.1461    0.0284 H        1 ZINC000004214702    0.1000
33     H33    -2.1872    3.6661    0.0428 H        1 ZINC000004214702    0.1400
34     H34    -0.1053    4.9408    0.0301 H        1 ZINC000004214702    0.1400
35     H35     5.0690    3.5588    0.4870 H        1 ZINC000004214702    0.1000
36     H36     5.1526    1.7808    0.4770 H        1 ZINC000004214702    0.0800
37     H37     7.0038    2.7688    0.5238 H        1 ZINC000004214702    0.1300
38     H38     9.4381    2.8759    0.1751 H        1 ZINC000004214702    0.1300
39     H39    11.2852    2.4556   -1.3408 H        1 ZINC000004214702    0.1000
40     H40    11.0359    2.4539   -3.1032 H        1 ZINC000004214702    0.0900
41     H41    14.0494    5.2260   -3.6726 H        1 ZINC000004214702    0.4200
42     H42     8.8408    2.8709   -4.0481 H        1 ZINC000004214702    0.1400
43     H43     6.4058    2.7539   -3.7079 H        1 ZINC000004214702    0.1300
44     H44     3.1680   -0.2639   -1.0569 H        1 ZINC000004214702    0.0800
45     H45     4.0116    0.0529    0.4781 H        1 ZINC000004214702    0.0900
46     H46     2.3543   -0.5963    0.4909 H        1 ZINC000004214702    0.0900
47     H47     0.0021   -0.0041    0.0020 H        1 ZINC000004214702    0.1300
@<TRIPOS>BOND
1     1     2     1
2     1     30    1
3     1     31    1
4     1     32    1
5     2     3     1
6     3     29    ar
7     3     4     ar
8     4     5     ar
9     4     33    1
10    5     6     ar
11    5     34    1
12    6     28    ar
13    6     7     1
14    7     8     2
15    8     9     1
16    8     26    1
17    9     10    1
18    9     35    1
19    9     36    1
20    10    11    1
21    11    25    ar
22    11    12    ar
23    12    13    ar
24    12    37    1
25    13    14    ar
26    13    38    1
27    14    15    1
28    14    24    ar
29    15    16    1
30    15    39    1
31    15    40    1
32    16    17    1
33    16    22    1
34    16    18    1
35    18    19    1
36    19    20    2
37    19    21    am
38    21    22    am
39    21    41    1
40    22    23    2
41    24    25    ar
42    24    42    1
43    25    43    1
44    26    27    1
45    26    28    1
46    27    44    1
47    27    45    1
48    27    46    1
49    28    29    ar
50    29    47    1
@<TRIPOS>SUBSTRUCTURE
1   ZINC000004214702 1     RESIDUE    1   A     ZIN   1
