@<TRIPOS>MOLECULE
ZINC000003929810
75    77    1     0     0
SMALL
USER_CHARGES
@<TRIPOS>ATOM
1      C1     -0.0721    1.5090    0.0174 C.3      1 ZINC000003929810   -0.1700
2      C2     -0.0529   -0.0208    0.0109 C.3      1 ZINC000003929810    0.2500
3      C3     -1.4874   -0.5529    0.0179 C.3      1 ZINC000003929810   -0.1500
4      O4      0.6275   -0.4903   -1.1652 O.3      1 ZINC000003929810   -0.3700
5      C5      1.9895   -0.7272   -0.7351 C.3      1 ZINC000003929810    0.0300
6      C6      1.7771   -1.2593    0.7042 C.3      1 ZINC000003929810    0.0500
7      H7      1.5467   -2.3246    0.6910 H        1 ZINC000003929810    0.1000
8      C8      3.0088   -0.9851    1.5694 C.3      1 ZINC000003929810    0.0700
9      O9      2.8297   -1.5967    2.8740 O.3      1 ZINC000003929810   -0.3500
10     C10     3.8280   -1.4479    3.7590 C.2      1 ZINC000003929810    0.4600
11     O11     4.8186   -0.8272    3.4536 O.2      1 ZINC000003929810   -0.5100
12     C12     3.7132   -2.0551    5.1335 C.3      1 ZINC000003929810   -0.1100
13     C13     4.9765   -1.7404    5.9372 C.3      1 ZINC000003929810   -0.0600
14     C14     4.8617   -2.3476    7.3117 C.ar     1 ZINC000003929810   -0.1200
15     C15     4.2966   -1.6199    8.3426 C.ar     1 ZINC000003929810   -0.0700
16     C16     4.1902   -2.1742    9.6035 C.ar     1 ZINC000003929810   -0.1500
17     C17     4.6505   -3.4623    9.8347 C.ar     1 ZINC000003929810    0.1300
18     O18     4.5466   -4.0100   11.0741 O.3      1 ZINC000003929810   -0.3000
19     C19     5.0415   -5.3404   11.2391 C.3      1 ZINC000003929810    0.0300
20     C20     4.8397   -5.7834   12.6896 C.3      1 ZINC000003929810    0.1100
21     H21     5.3061   -5.0601   13.3586 H        1 ZINC000003929810    0.1100
22     O22     3.4414   -5.8622   12.9735 O.3      1 ZINC000003929810   -0.5400
23     C23     5.4805   -7.1571   12.8971 C.3      1 ZINC000003929810    0.0300
24     N24     5.2868   -7.5825   14.2898 N.3      1 ZINC000003929810   -0.6700
25     C25     5.8906   -8.9006   14.5265 C.3      1 ZINC000003929810    0.0500
26     C26     5.6689   -9.3087   15.9843 C.3      1 ZINC000003929810    0.1400
27     N27     6.2710  -10.6232   16.2203 N.am     1 ZINC000003929810   -0.7500
28     C28     6.1990  -11.1879   17.4420 C.2      1 ZINC000003929810    0.7100
29     O29     5.7149  -10.5692   18.3701 O.2      1 ZINC000003929810   -0.5800
30     N30     6.6635  -12.4382   17.6349 N.am     1 ZINC000003929810   -0.6300
31     C31     7.3611  -13.1614   16.5599 C.3      1 ZINC000003929810    0.0800
32     C32     8.6791  -13.7075   17.1207 C.3      1 ZINC000003929810    0.0500
33     O33     8.4121  -14.4477   18.3143 O.3      1 ZINC000003929810   -0.3800
34     C34     7.8491  -13.6685   19.3725 C.3      1 ZINC000003929810    0.0500
35     C35     6.4935  -13.1183   18.9288 C.3      1 ZINC000003929810    0.0900
36     C36     5.2167   -4.1905    8.7985 C.ar     1 ZINC000003929810   -0.2100
37     C37     5.3164   -3.6335    7.5383 C.ar     1 ZINC000003929810   -0.0700
38     O38     0.6438   -0.4987    1.1692 O.3      1 ZINC000003929810   -0.3700
39     H39     0.9508    1.8853    0.0053 H        1 ZINC000003929810    0.0600
40     H40    -0.6023    1.8695   -0.8641 H        1 ZINC000003929810    0.0800
41     H41    -0.5786    1.8622    0.9156 H        1 ZINC000003929810    0.0800
42     H42    -2.0162   -0.1836   -0.8608 H        1 ZINC000003929810    0.0800
43     H43    -1.4708   -1.6426    0.0007 H        1 ZINC000003929810    0.0700
44     H44    -1.9971   -0.2115    0.9189 H        1 ZINC000003929810    0.0800
45     H45     2.4715   -1.4779   -1.3615 H        1 ZINC000003929810    0.1200
46     H46     2.5633    0.1995   -0.7278 H        1 ZINC000003929810    0.0800
47     H47     3.8916   -1.4065    1.0886 H        1 ZINC000003929810    0.0900
48     H48     3.1379    0.0908    1.6871 H        1 ZINC000003929810    0.0800
49     H49     2.8448   -1.6381    5.6435 H        1 ZINC000003929810    0.1100
50     H50     3.5985   -3.1354    5.0450 H        1 ZINC000003929810    0.1100
51     H51     5.8449   -2.1574    5.4271 H        1 ZINC000003929810    0.0800
52     H52     5.0911   -0.6601    6.0256 H        1 ZINC000003929810    0.0800
53     H53     3.9384   -0.6171    8.1621 H        1 ZINC000003929810    0.1300
54     H54     3.7493   -1.6051   10.4086 H        1 ZINC000003929810    0.1300
55     H55     4.5004   -6.0142   10.5748 H        1 ZINC000003929810    0.0700
56     H56     6.1037   -5.3657   10.9958 H        1 ZINC000003929810    0.0700
57     H57     2.9613   -6.4884   12.4145 H        1 ZINC000003929810    0.3700
58     H58     5.0142   -7.8804   12.2281 H        1 ZINC000003929810    0.0800
59     H59     6.5471   -7.0970   12.6806 H        1 ZINC000003929810    0.0400
60     H60     5.6538   -6.8961   14.9319 H        1 ZINC000003929810    0.3500
61     H61     5.4271   -9.6359   13.8688 H        1 ZINC000003929810    0.0800
62     H62     6.9600   -8.8525   14.3212 H        1 ZINC000003929810    0.0400
63     H63     6.1324   -8.5734   16.6420 H        1 ZINC000003929810    0.0700
64     H64     4.5995   -9.3568   16.1895 H        1 ZINC000003929810    0.0800
65     H65     6.7215  -11.0872   15.4974 H        1 ZINC000003929810    0.3900
66     H66     6.7409  -13.9868   16.2102 H        1 ZINC000003929810    0.0800
67     H67     7.5675  -12.4811   15.7337 H        1 ZINC000003929810    0.0800
68     H68     9.1453  -14.3613   16.3836 H        1 ZINC000003929810    0.1100
69     H69     9.3491  -12.8785   17.3486 H        1 ZINC000003929810    0.0600
70     H70     7.7182  -14.2941   20.2554 H        1 ZINC000003929810    0.1100
71     H71     8.5161  -12.8393   19.6086 H        1 ZINC000003929810    0.0600
72     H72     6.1236  -12.4110   19.6711 H        1 ZINC000003929810    0.1100
73     H73     5.7838  -13.9378   18.8161 H        1 ZINC000003929810    0.0800
74     H74     5.5761   -5.1934    8.9761 H        1 ZINC000003929810    0.1300
75     H75     5.7568   -4.2001    6.7312 H        1 ZINC000003929810    0.1300
@<TRIPOS>BOND
1     1     2     1
2     1     39    1
3     1     40    1
4     1     41    1
5     2     38    1
6     2     3     1
7     2     4     1
8     3     42    1
9     3     43    1
10    3     44    1
11    4     5     1
12    5     6     1
13    5     45    1
14    5     46    1
15    6     7     1
16    6     8     1
17    6     38    1
18    8     9     1
19    8     47    1
20    8     48    1
21    9     10    1
22    10    11    2
23    10    12    1
24    12    13    1
25    12    49    1
26    12    50    1
27    13    14    1
28    13    51    1
29    13    52    1
30    14    37    ar
31    14    15    ar
32    15    16    ar
33    15    53    1
34    16    17    ar
35    16    54    1
36    17    18    1
37    17    36    ar
38    18    19    1
39    19    20    1
40    19    55    1
41    19    56    1
42    20    21    1
43    20    22    1
44    20    23    1
45    22    57    1
46    23    24    1
47    23    58    1
48    23    59    1
49    24    25    1
50    24    60    1
51    25    26    1
52    25    61    1
53    25    62    1
54    26    27    1
55    26    63    1
56    26    64    1
57    27    28    am
58    27    65    1
59    28    29    2
60    28    30    am
61    30    35    1
62    30    31    1
63    31    32    1
64    31    66    1
65    31    67    1
66    32    33    1
67    32    68    1
68    32    69    1
69    33    34    1
70    34    35    1
71    34    70    1
72    34    71    1
73    35    72    1
74    35    73    1
75    36    37    ar
76    36    74    1
77    37    75    1
@<TRIPOS>SUBSTRUCTURE
1   ZINC000003929810 1     RESIDUE    1   A     ZIN   1
