@<TRIPOS>MOLECULE
ZINC000003653374
  33   34    0    0    0
SMALL
USER_CHARGES
NO_NAME
@<TRIPOS>ATOM
    1 O1        0.0018    -0.0037    -0.0235 O.2    1 <0>      -0.5000
    2 C2       -0.0146     1.2132    -0.0047 C.2    1 <0>       0.5600
    3 N3       -1.1844     1.8859     0.0167 N.am   1 <0>      -0.6600
    4 C4       -1.1945     3.2302     0.0369 C.2    1 <0>       0.7000
    5 O5       -2.2617     3.8125     0.0560 O.2    1 <0>      -0.4700
    6 N6       -0.0598     3.9482     0.0370 N.am   1 <0>      -0.5200
    7 C7       -0.1368     5.4110     0.0601 C.3    1 <0>       0.3100
    8 H8        0.8581     5.8451     0.1587 H      1 <0>       0.1300
    9 O9       -0.9950     5.8581     1.1317 O.3    1 <0>      -0.3400
   10 C10      -1.4254     7.1882     0.7975 C.3    1 <0>       0.0600
   11 H11      -0.7518     7.9191     1.2448 H      1 <0>       0.0900
   12 C12      -2.8510     7.4165     1.3040 C.3    1 <0>       0.0800
   13 O13      -2.8568     7.4016     2.7329 O.3    1 <0>      -0.5600
   14 C14      -1.3858     7.3103    -0.7382 C.3    1 <0>       0.0500
   15 H15      -2.3871     7.4821    -1.1332 H      1 <0>       0.0900
   16 O16      -0.5058     8.3644    -1.1337 O.3    1 <0>      -0.5500
   17 C17      -0.8395     5.9407    -1.2158 C.3    1 <0>       0.0700
   18 H18      -0.1281     6.0688    -2.0317 H      1 <0>       0.1000
   19 O19      -1.9067     5.0735    -1.6044 O.3    1 <0>      -0.5100
   20 C20       1.1645     3.3436     0.0166 C.2    1 <0>       0.1900
   21 C21       1.2398     1.9803     0.0013 C.2    1 <0>      -0.2200
   22 C22       2.5474     1.2941    -0.0210 C.2    1 <0>      -0.0600
   23 C23       2.6047    -0.0287     0.0775 C.2    1 <0>      -0.1500
   24 Br24      4.2808    -0.8966     0.1921 Br     1 <0>      -0.0800
   25 H25      -2.0222     1.3970     0.0172 H      1 <0>       0.4300
   26 H26      -3.2125     8.3816     0.9492 H      1 <0>       0.0600
   27 H27      -3.5006     6.6252     0.9298 H      1 <0>       0.0600
   28 H28      -3.7301     7.5406     3.1242 H      1 <0>       0.3800
   29 H29      -0.7688     9.2377    -0.8124 H      1 <0>       0.3900
   30 H30      -2.4359     5.4070    -2.3418 H      1 <0>       0.3800
   31 H31       2.0657     3.9387     0.0171 H      1 <0>       0.1800
   32 H32       3.4570     1.8683    -0.1174 H      1 <0>       0.1400
   33 H33       1.6940    -0.6090     0.0923 H      1 <0>       0.1800
@<TRIPOS>BOND
   1    1    2 2
   2    2   21 1
   3    2    3 am
   4    3    4 am
   5    3   25 1
   6    4    5 2
   7    4    6 am
   8    6    7 1
   9    6   20 1
  10    7    8 1
  11    7   17 1
  12    7    9 1
  13    9   10 1
  14   10   11 1
  15   10   12 1
  16   10   14 1
  17   12   13 1
  18   12   26 1
  19   12   27 1
  20   13   28 1
  21   14   15 1
  22   14   16 1
  23   14   17 1
  24   16   29 1
  25   17   18 1
  26   17   19 1
  27   19   30 1
  28   20   21 2
  29   20   31 1
  30   21   22 1
  31   22   23 2
  32   22   32 1
  33   23   24 1
  34   23   33 1
