@<TRIPOS>MOLECULE
ZINC000072266997
110   111   1     0     0
SMALL
USER_CHARGES
@<TRIPOS>ATOM
1      C1      1.6489   -3.8826   -3.3123 C.3      1 ZINC000072266997   -0.1800
2      C2      0.7058   -3.4799   -2.2080 C.2      1 ZINC000072266997    0.2300
3      N3      0.7192   -4.1180   -1.0787 N.2      1 ZINC000072266997   -0.2900
4      N4      1.6104   -5.1816   -0.8856 N.pl3    1 ZINC000072266997   -0.5600
5      C5      1.6246   -5.8556    0.3073 C.cat    1 ZINC000072266997    0.7700
6      N6      0.7908   -5.4996    1.2836 N.pl3    1 ZINC000072266997   -0.7800
7      N7      2.4722   -6.8670    0.4909 N.pl3    1 ZINC000072266997   -0.7900
8      H8      3.0792   -7.1263   -0.2198 H        1 ZINC000072266997    0.4400
9      H9      2.4822   -7.3442    1.3354 H        1 ZINC000072266997    0.4500
10     C10    -0.2328   -2.3599   -2.4113 C.ar     1 ZINC000072266997   -0.0600
11     C11    -0.2520   -1.6760   -3.6289 C.ar     1 ZINC000072266997   -0.0500
12     C12    -1.1343   -0.6232   -3.8212 C.ar     1 ZINC000072266997    0.1600
13     N13    -1.1507    0.0594   -5.0431 N.am     1 ZINC000072266997   -0.6800
14     C14    -0.8887   -0.6018   -6.1879 C.2      1 ZINC000072266997    0.5200
15     O15    -0.7304   -1.8042   -6.1712 O.2      1 ZINC000072266997   -0.5200
16     C16    -0.7923    0.1529   -7.4888 C.3      1 ZINC000072266997   -0.1400
17     C17    -0.4891   -0.8259   -8.6250 C.3      1 ZINC000072266997   -0.1100
18     C18    -0.3912   -0.0597   -9.9457 C.3      1 ZINC000072266997   -0.1200
19     C19    -0.0880   -1.0385  -11.0819 C.3      1 ZINC000072266997   -0.1200
20     C20     0.0098   -0.2723  -12.4026 C.3      1 ZINC000072266997   -0.1200
21     C21     0.3131   -1.2511  -13.5388 C.3      1 ZINC000072266997   -0.1200
22     C22     0.4109   -0.4849  -14.8595 C.3      1 ZINC000072266997   -0.1100
23     C23     0.7141   -1.4637  -15.9957 C.3      1 ZINC000072266997   -0.1400
24     C24     0.8105   -0.7090  -17.2965 C.2      1 ZINC000072266997    0.5200
25     O25     0.6522    0.4933  -17.3132 O.2      1 ZINC000072266997   -0.5200
26     N26     1.0726   -1.3702  -18.4414 N.am     1 ZINC000072266997   -0.6800
27     C27     1.2684   -0.6592  -19.6310 C.ar     1 ZINC000072266997    0.1600
28     C28     1.8680    0.5910  -19.5989 C.ar     1 ZINC000072266997   -0.0500
29     C29     2.0652    1.3037  -20.7837 C.ar     1 ZINC000072266997   -0.0600
30     C30     2.7034    2.6333  -20.7484 C.2      1 ZINC000072266997    0.2300
31     C31     3.1431    3.2234  -19.4333 C.3      1 ZINC000072266997   -0.1800
32     N32     2.8862    3.2945  -21.8494 N.2      1 ZINC000072266997   -0.2900
33     N33     3.4923    4.5571  -21.8160 N.pl3    1 ZINC000072266997   -0.5600
34     C34     3.6853    5.2555  -22.9789 C.cat    1 ZINC000072266997    0.7700
35     N35     3.2966    4.7337  -24.1416 N.pl3    1 ZINC000072266997   -0.7800
36     N36     4.2618    6.4562  -22.9471 N.pl3    1 ZINC000072266997   -0.7900
37     H37     4.3984    6.9506  -23.7704 H        1 ZINC000072266997    0.4500
38     H38     4.5447    6.8361  -22.1006 H        1 ZINC000072266997    0.4400
39     C39     1.6584    0.7566  -22.0001 C.ar     1 ZINC000072266997   -0.0400
40     C40     1.0560   -0.5007  -22.0282 C.ar     1 ZINC000072266997   -0.0600
41     C41     0.6243   -1.0844  -23.3125 C.2      1 ZINC000072266997    0.2300
42     C42    -0.0267   -2.4433  -23.3417 C.3      1 ZINC000072266997   -0.1800
43     N43     0.8049   -0.4279  -24.4166 N.2      1 ZINC000072266997   -0.2900
44     N44     0.3949   -0.9822  -25.6362 N.pl3    1 ZINC000072266997   -0.5600
45     C45     0.5857   -0.2888  -26.8025 C.cat    1 ZINC000072266997    0.7700
46     N46     1.1611    0.9126  -26.7768 N.pl3    1 ZINC000072266997   -0.7800
47     N47     0.1957   -0.8159  -27.9624 N.pl3    1 ZINC000072266997   -0.7900
48     H48     0.3308   -0.3250  -28.7880 H        1 ZINC000072266997    0.4500
49     H49    -0.2232   -1.6906  -27.9812 H        1 ZINC000072266997    0.4400
50     C50     0.8676   -1.2094  -20.8395 C.ar     1 ZINC000072266997   -0.0800
51     C51    -2.0007   -0.2453   -2.8062 C.ar     1 ZINC000072266997   -0.0800
52     C52    -1.9877   -0.9241   -1.5857 C.ar     1 ZINC000072266997   -0.0600
53     C53    -2.9100   -0.5216   -0.5068 C.2      1 ZINC000072266997    0.2300
54     C54    -3.8669    0.6226   -0.7213 C.3      1 ZINC000072266997   -0.1800
55     N55    -2.8972   -1.1527    0.6265 N.2      1 ZINC000072266997   -0.2900
56     N56    -3.7730   -0.7705    1.6510 N.pl3    1 ZINC000072266997   -0.5600
57     C57    -3.7595   -1.4371    2.8481 C.cat    1 ZINC000072266997    0.7700
58     N58    -2.9135   -2.4488    3.0377 N.pl3    1 ZINC000072266997   -0.7800
59     N59    -4.5924   -1.0736    3.8224 N.pl3    1 ZINC000072266997   -0.7900
60     H60    -5.2083   -0.3371    3.6843 H        1 ZINC000072266997    0.4400
61     H61    -4.5829   -1.5455    4.6698 H        1 ZINC000072266997    0.4500
62     C62    -1.1058   -1.9865   -1.3902 C.ar     1 ZINC000072266997   -0.0400
63     H63     1.1725   -4.6352   -3.9405 H        1 ZINC000072266997    0.1100
64     H64     1.8960   -3.0091   -3.9156 H        1 ZINC000072266997    0.1100
65     H65     2.5603   -4.2948   -2.8793 H        1 ZINC000072266997    0.0800
66     H66     2.2175   -5.4408   -1.5964 H        1 ZINC000072266997    0.4200
67     H67     0.1737   -4.7632    1.1499 H        1 ZINC000072266997    0.4400
68     H68     0.8008   -5.9767    2.1280 H        1 ZINC000072266997    0.4400
69     H69     0.4213   -1.9670   -4.4216 H        1 ZINC000072266997    0.1600
70     H70    -1.3507    1.0082   -5.0659 H        1 ZINC000072266997    0.4200
71     H71    -1.7378    0.6578   -7.6868 H        1 ZINC000072266997    0.1000
72     H72     0.0069    0.8911   -7.4222 H        1 ZINC000072266997    0.1000
73     H73     0.4564   -1.3308   -8.4269 H        1 ZINC000072266997    0.0700
74     H74    -1.2882   -1.5642   -8.6916 H        1 ZINC000072266997    0.0700
75     H75    -1.3367    0.4452  -10.1437 H        1 ZINC000072266997    0.0600
76     H76     0.4079    0.6785   -9.8791 H        1 ZINC000072266997    0.0600
77     H77     0.8575   -1.5434  -10.8838 H        1 ZINC000072266997    0.0600
78     H78    -0.8872   -1.7768  -11.1484 H        1 ZINC000072266997    0.0600
79     H79    -0.9356    0.2326  -12.6006 H        1 ZINC000072266997    0.0600
80     H80     0.8090    0.4659  -12.3360 H        1 ZINC000072266997    0.0600
81     H81     1.2586   -1.7560  -13.3407 H        1 ZINC000072266997    0.0600
82     H82    -0.4861   -1.9894  -13.6053 H        1 ZINC000072266997    0.0600
83     H83    -0.5346    0.0200  -15.0575 H        1 ZINC000072266997    0.0700
84     H84     1.2101    0.2533  -14.7929 H        1 ZINC000072266997    0.0700
85     H85     1.6596   -1.9686  -15.7976 H        1 ZINC000072266997    0.1000
86     H86    -0.0850   -2.2020  -16.0622 H        1 ZINC000072266997    0.1000
87     H87     1.1255   -2.3388  -18.4408 H        1 ZINC000072266997    0.4200
88     H88     2.1824    1.0142  -18.6563 H        1 ZINC000072266997    0.1600
89     H89     4.1713    2.9260  -19.2272 H        1 ZINC000072266997    0.1100
90     H90     3.0827    4.3105  -19.4846 H        1 ZINC000072266997    0.0800
91     H91     2.4933    2.8606  -18.6369 H        1 ZINC000072266997    0.1100
92     H92     3.7753    4.9370  -20.9695 H        1 ZINC000072266997    0.4200
93     H93     2.8770    3.8595  -24.1648 H        1 ZINC000072266997    0.4400
94     H94     3.4333    5.2281  -24.9649 H        1 ZINC000072266997    0.4400
95     H95     1.8092    1.3053  -22.9180 H        1 ZINC000072266997    0.1400
96     H96    -1.1060   -2.3314  -23.2383 H        1 ZINC000072266997    0.1100
97     H97     0.1988   -2.9339  -24.2885 H        1 ZINC000072266997    0.0800
98     H98     0.3564   -3.0474  -22.5192 H        1 ZINC000072266997    0.1100
99     H99    -0.0241   -1.8569  -25.6550 H        1 ZINC000072266997    0.4200
100    H100    1.4450    1.2963  -25.9323 H        1 ZINC000072266997    0.4400
101    H101    1.2962    1.4035  -27.6024 H        1 ZINC000072266997    0.4400
102    H102    0.4011   -2.1832  -20.8604 H        1 ZINC000072266997    0.1500
103    H103   -2.6859    0.5752   -2.9597 H        1 ZINC000072266997    0.1500
104    H104   -4.8026    0.2419   -1.1307 H        1 ZINC000072266997    0.1100
105    H105   -4.0612    1.1170    0.2305 H        1 ZINC000072266997    0.0800
106    H106   -3.4289    1.3366   -1.4188 H        1 ZINC000072266997    0.1100
107    H107   -4.3889   -0.0340    1.5130 H        1 ZINC000072266997    0.4200
108    H108   -2.3072   -2.7134    2.3284 H        1 ZINC000072266997    0.4400
109    H109   -2.9040   -2.9207    3.8852 H        1 ZINC000072266997    0.4400
110    H110   -1.0934   -2.5134   -0.4475 H        1 ZINC000072266997    0.1400
@<TRIPOS>BOND
1     1     2     1
2     1     63    1
3     1     64    1
4     1     65    1
5     2     3     2
6     2     10    1
7     3     4     1
8     4     5     ar
9     4     66    1
10    5     6     ar
11    5     7     ar
12    6     67    1
13    6     68    1
14    7     8     1
15    7     9     1
16    10    62    ar
17    10    11    ar
18    11    12    ar
19    11    69    1
20    12    13    1
21    12    51    ar
22    13    14    am
23    13    70    1
24    14    15    2
25    14    16    1
26    16    17    1
27    16    71    1
28    16    72    1
29    17    18    1
30    17    73    1
31    17    74    1
32    18    19    1
33    18    75    1
34    18    76    1
35    19    20    1
36    19    77    1
37    19    78    1
38    20    21    1
39    20    79    1
40    20    80    1
41    21    22    1
42    21    81    1
43    21    82    1
44    22    23    1
45    22    83    1
46    22    84    1
47    23    24    1
48    23    85    1
49    23    86    1
50    24    25    2
51    24    26    am
52    26    27    1
53    26    87    1
54    27    50    ar
55    27    28    ar
56    28    29    ar
57    28    88    1
58    29    30    1
59    29    39    ar
60    30    31    1
61    30    32    2
62    31    89    1
63    31    90    1
64    31    91    1
65    32    33    1
66    33    34    ar
67    33    92    1
68    34    35    ar
69    34    36    ar
70    35    93    1
71    35    94    1
72    36    37    1
73    36    38    1
74    39    40    ar
75    39    95    1
76    40    41    1
77    40    50    ar
78    41    42    1
79    41    43    2
80    42    96    1
81    42    97    1
82    42    98    1
83    43    44    1
84    44    45    ar
85    44    99    1
86    45    46    ar
87    45    47    ar
88    46    100   1
89    46    101   1
90    47    48    1
91    47    49    1
92    50    102   1
93    51    52    ar
94    51    103   1
95    52    53    1
96    52    62    ar
97    53    54    1
98    53    55    2
99    54    104   1
100   54    105   1
101   54    106   1
102   55    56    1
103   56    57    ar
104   56    107   1
105   57    58    ar
106   57    59    ar
107   58    108   1
108   58    109   1
109   59    60    1
110   59    61    1
111   62    110   1
@<TRIPOS>SUBSTRUCTURE
1   ZINC000072266997 1     RESIDUE    1   A     ZIN   1
