@<TRIPOS>MOLECULE
ZINC000100402010
35    36    1     0     0
SMALL
USER_CHARGES
@<TRIPOS>ATOM
1      C1     -0.0187    1.5258    0.0104 C.3      1 ZINC000100402010   -0.1500
2      C2      0.0021   -0.0041    0.0020 C.3      1 ZINC000100402010   -0.1200
3      C3      0.7421   -0.5109    1.2415 C.3      1 ZINC000100402010   -0.1400
4      C4      0.7628   -2.0407    1.2331 C.3      1 ZINC000100402010    0.0900
5      N5      1.4714   -2.5260    2.4200 N.pl3    1 ZINC000100402010   -0.6800
6      C6      1.6149   -3.8537    2.6253 C.2      1 ZINC000100402010    0.3500
7      C7      1.0460   -4.8354    1.6334 C.3      1 ZINC000100402010   -0.1500
8      C8      2.2809   -4.3099    3.7409 C.2      1 ZINC000100402010   -0.4600
9      C9      2.8847   -3.4850    4.8002 C.2      1 ZINC000100402010    0.4600
10     O10     2.8863   -2.2703    4.8501 O.2      1 ZINC000100402010   -0.4700
11     C11     3.4907   -4.4028    5.7959 C.ar     1 ZINC000100402010   -0.1400
12     C12     4.1796   -4.1543    6.9777 C.ar     1 ZINC000100402010   -0.0700
13     C13     4.6521   -5.2103    7.7399 C.ar     1 ZINC000100402010   -0.1000
14     C14     4.4426   -6.5132    7.3322 C.ar     1 ZINC000100402010   -0.1000
15     C15     3.7576   -6.7771    6.1573 C.ar     1 ZINC000100402010   -0.0700
16     C16     3.2773   -5.7281    5.3815 C.ar     1 ZINC000100402010   -0.1300
17     C17     2.5198   -5.7159    4.1058 C.2      1 ZINC000100402010    0.4700
18     O18     2.1633   -6.6914    3.4740 O.2      1 ZINC000100402010   -0.4600
19     H19     1.0039    1.9031    0.0027 H        1 ZINC000100402010    0.0600
20     H20    -0.5459    1.8868   -0.8726 H        1 ZINC000100402010    0.0600
21     H21    -0.5289    1.8773    0.9072 H        1 ZINC000100402010    0.0600
22     H22    -1.0205   -0.3814    0.0098 H        1 ZINC000100402010    0.0700
23     H23     0.5123   -0.3556   -0.8948 H        1 ZINC000100402010    0.0700
24     H24     1.7647   -0.1336    1.2338 H        1 ZINC000100402010    0.0700
25     H25     0.2319   -0.1594    2.1383 H        1 ZINC000100402010    0.0700
26     H26    -0.2598   -2.4180    1.2409 H        1 ZINC000100402010    0.0800
27     H27     1.2730   -2.3923    0.3363 H        1 ZINC000100402010    0.0800
28     H28     1.8375   -1.8942    3.0584 H        1 ZINC000100402010    0.4200
29     H29     1.7938   -5.0572    0.8721 H        1 ZINC000100402010    0.1000
30     H30     0.7695   -5.7546    2.1498 H        1 ZINC000100402010    0.1100
31     H31     0.1633   -4.4044    1.1611 H        1 ZINC000100402010    0.0800
32     H32     4.3468   -3.1376    7.3016 H        1 ZINC000100402010    0.1300
33     H33     5.1871   -5.0137    8.6572 H        1 ZINC000100402010    0.1400
34     H34     4.8151   -7.3304    7.9321 H        1 ZINC000100402010    0.1400
35     H35     3.5973   -7.7980    5.8435 H        1 ZINC000100402010    0.1400
@<TRIPOS>BOND
1     1     2     1
2     1     19    1
3     1     20    1
4     1     21    1
5     2     3     1
6     2     22    1
7     2     23    1
8     3     4     1
9     3     24    1
10    3     25    1
11    4     5     1
12    4     26    1
13    4     27    1
14    5     6     1
15    5     28    1
16    6     7     1
17    6     8     2
18    7     29    1
19    7     30    1
20    7     31    1
21    8     17    1
22    8     9     1
23    9     10    2
24    9     11    1
25    11    16    ar
26    11    12    ar
27    12    13    ar
28    12    32    1
29    13    14    ar
30    13    33    1
31    14    15    ar
32    14    34    1
33    15    16    ar
34    15    35    1
35    16    17    1
36    17    18    2
@<TRIPOS>SUBSTRUCTURE
1   ZINC000100402010 1     RESIDUE    1   A     ZIN   1
