@<TRIPOS>MOLECULE
ZINC000003834032
  40   42    0    0    0
SMALL
USER_CHARGES
NO_NAME
@<TRIPOS>ATOM
    1 C1        0.4188     1.5071     0.0666 C.3    1 <0>      -0.0900
    2 C2        0.2417     0.0107     0.0445 C.2    1 <0>       0.0700
    3 C3        0.0123    -0.7392    -1.0621 C.2    1 <0>      -0.1600
    4 C4       -0.1088    -0.2233    -2.4728 C.3    1 <0>      -0.0200
    5 C5        1.2717    -0.2136    -3.1325 C.3    1 <0>      -0.1700
    6 C6        1.1506     0.3023    -4.5433 C.2    1 <0>       0.4900
    7 O7        0.0612     0.6317    -4.9805 O.co2  1 <0>      -0.7000
    8 O8        2.1421     0.3903    -5.2474 O.co2  1 <0>      -0.7100
    9 C9       -0.0915    -2.0734    -0.6642 C.2    1 <0>      -0.0800
   10 C10      -0.3436    -3.2585    -1.5602 C.3    1 <0>      -0.0900
   11 C11       0.0820    -2.1021     0.7111 C.2    1 <0>      -0.0400
   12 C12       0.0552    -3.2484     1.5320 C.2    1 <0>       0.1000
   13 C13      -0.4396    -3.1647     2.8195 C.2    1 <0>      -0.2300
   14 C14      -1.1167    -2.0208     3.4435 C.2    1 <0>       0.5500
   15 O15      -1.3498    -0.9498     2.9117 O.2    1 <0>      -0.5100
   16 N16      -1.4342    -2.3621     4.7039 N.am   1 <0>      -0.6500
   17 C17      -1.0260    -3.6576     4.9958 C.ar   1 <0>       0.1300
   18 C18      -1.1363    -4.4256     6.1495 C.ar   1 <0>      -0.1400
   19 C19      -0.6363    -5.7120     6.1757 C.ar   1 <0>      -0.0900
   20 C20      -0.0207    -6.2526     5.0593 C.ar   1 <0>      -0.1400
   21 C21       0.0983    -5.5057     3.9045 C.ar   1 <0>      -0.0700
   22 C22      -0.4075    -4.2106     3.8657 C.ar   1 <0>      -0.0800
   23 N23       0.2917    -0.8049     1.1276 N.pl3  1 <0>      -0.5100
   24 H24       1.4734     1.7501    -0.0631 H      1 <0>       0.0700
   25 H25      -0.1591     1.9534    -0.7427 H      1 <0>       0.0900
   26 H26       0.0702     1.9002     1.0216 H      1 <0>       0.0600
   27 H27      -0.7780    -0.8701    -3.0401 H      1 <0>       0.0700
   28 H28      -0.5105     0.7898    -2.4560 H      1 <0>       0.0600
   29 H29       1.9409     0.4332    -2.5653 H      1 <0>       0.0500
   30 H30       1.6734    -1.2268    -3.1494 H      1 <0>       0.0500
   31 H31       0.6083    -3.6617    -1.9059 H      1 <0>       0.0700
   32 H32      -0.8829    -4.0258    -1.0048 H      1 <0>       0.0600
   33 H33      -0.9386    -2.9452    -2.4182 H      1 <0>       0.0700
   34 H34       0.4213    -4.1917     1.1545 H      1 <0>       0.1500
   35 H35      -1.8901    -1.7782     5.3302 H      1 <0>       0.4100
   36 H36      -1.6137    -4.0148     7.0269 H      1 <0>       0.1200
   37 H37      -0.7258    -6.3023     7.0756 H      1 <0>       0.1300
   38 H38       0.3672    -7.2600     5.0922 H      1 <0>       0.1300
   39 H39       0.5786    -5.9265     3.0335 H      1 <0>       0.1300
   40 H40       0.4439    -0.5219     2.0428 H      1 <0>       0.4100
@<TRIPOS>BOND
   1    1    2 1
   2    1   24 1
   3    1   25 1
   4    1   26 1
   5    2   23 1
   6    2    3 2
   7    3    4 1
   8    3    9 1
   9    4    5 1
  10    4   27 1
  11    4   28 1
  12    5    6 1
  13    5   29 1
  14    5   30 1
  15    6    7 ar
  16    6    8 ar
  17    9   10 1
  18    9   11 2
  19   10   31 1
  20   10   32 1
  21   10   33 1
  22   11   12 1
  23   11   23 1
  24   12   13 2
  25   12   34 1
  26   13   22 1
  27   13   14 1
  28   14   15 2
  29   14   16 am
  30   16   17 1
  31   16   35 1
  32   17   22 ar
  33   17   18 ar
  34   18   19 ar
  35   18   36 1
  36   19   20 ar
  37   19   37 1
  38   20   21 ar
  39   20   38 1
  40   21   22 ar
  41   21   39 1
  42   23   40 1
