@<TRIPOS>MOLECULE
ZINC000029124639
61    65    1     0     0
SMALL
USER_CHARGES
@<TRIPOS>ATOM
1      C1     -0.0187    1.5258    0.0104 C.3      1 ZINC000029124639   -0.1700
2      C2      0.0021   -0.0041    0.0020 C.3      1 ZINC000029124639    0.1300
3      N3     -1.3723   -0.5112    0.0124 N.am     1 ZINC000029124639   -0.7400
4      C4     -1.6006   -1.8394    0.0075 C.2      1 ZINC000029124639    0.6900
5      O5     -0.6660   -2.6168   -0.0056 O.2      1 ZINC000029124639   -0.5200
6      N6     -2.8650   -2.3059    0.0170 N.am     1 ZINC000029124639   -0.6500
7      C7     -3.1002   -3.6745    0.0119 C.ar     1 ZINC000029124639    0.4900
8      C8     -4.4108   -4.1780    0.0158 C.ar     1 ZINC000029124639   -0.0800
9      N9     -5.6456   -3.6211    0.0250 N.2      1 ZINC000029124639   -0.4700
10     C10    -6.5452   -4.5616    0.0250 C.2      1 ZINC000029124639    0.2900
11     N11    -5.9418   -5.7838    0.0158 N.pl3    1 ZINC000029124639   -0.4700
12     C12    -6.6171   -7.0838    0.0129 C.3      1 ZINC000029124639    0.2900
13     H13    -6.0567   -7.7976   -0.5909 H        1 ZINC000029124639    0.1200
14     O14    -7.9533   -6.9477   -0.4926 O.3      1 ZINC000029124639   -0.3400
15     C15    -8.7837   -7.9409    0.1160 C.3      1 ZINC000029124639    0.0700
16     H16    -8.9122   -8.7817   -0.5656 H        1 ZINC000029124639    0.1100
17     C17   -10.1480   -7.3371    0.4551 C.3      1 ZINC000029124639    0.1400
18     O18   -10.8354   -7.0049   -0.7529 O.3      1 ZINC000029124639   -0.7500
19     P19   -12.3046   -6.3469   -0.7733 P.3      1 ZINC000029124639    2.2100
20     O20   -12.3032   -5.0573    0.0776 O.2      1 ZINC000029124639   -1.1100
21     O21   -13.3256   -7.3484   -0.1888 O.3      1 ZINC000029124639   -1.1000
22     O22   -12.7114   -5.9891   -2.2894 O.3      1 ZINC000029124639   -0.9000
23     C23    -8.0898   -8.4184    1.4076 C.3      1 ZINC000029124639    0.0400
24     H24    -8.7052   -8.2803    2.2967 H        1 ZINC000029124639    0.1400
25     O25    -7.6879   -9.7854    1.2110 O.3      1 ZINC000029124639   -0.3600
26     C26    -6.2731   -9.8713    1.3814 C.3      1 ZINC000029124639    0.2700
27     H27    -5.8136  -10.1933    0.4469 H        1 ZINC000029124639    0.0900
28     C28    -5.9576  -10.8690    2.4659 C.2      1 ZINC000029124639   -0.1600
29     C29    -5.2202  -11.9358    2.1910 C.2      1 ZINC000029124639   -0.0800
30     C30    -4.9108  -12.9144    3.2547 C.ar     1 ZINC000029124639   -0.0600
31     C31    -5.3979  -12.7211    4.5478 C.ar     1 ZINC000029124639   -0.1100
32     C32    -5.1054  -13.6382    5.5362 C.ar     1 ZINC000029124639   -0.1200
33     C33    -4.3305  -14.7473    5.2475 C.ar     1 ZINC000029124639   -0.1200
34     C34    -3.8441  -14.9445    3.9675 C.ar     1 ZINC000029124639   -0.1200
35     C35    -4.1349  -14.0383    2.9686 C.ar     1 ZINC000029124639   -0.1000
36     O36    -5.7568   -8.5899    1.7494 O.3      1 ZINC000029124639   -0.3400
37     C37    -6.7686   -7.6069    1.4495 C.3      1 ZINC000029124639    0.0200
38     H38    -6.7852   -6.8034    2.1859 H        1 ZINC000029124639    0.1400
39     C39    -4.5860   -5.5732    0.0098 C.ar     1 ZINC000029124639    0.3100
40     N40    -3.5145   -6.3581    0.0007 N.ar     1 ZINC000029124639   -0.5300
41     C41    -2.3040   -5.8405   -0.0026 C.ar     1 ZINC000029124639    0.3400
42     N42    -2.0904   -4.5375   -0.0023 N.ar     1 ZINC000029124639   -0.5200
43     H43     1.0039    1.9031    0.0027 H        1 ZINC000029124639    0.0800
44     H44    -0.5459    1.8868   -0.8726 H        1 ZINC000029124639    0.0600
45     H45    -0.5289    1.8773    0.9072 H        1 ZINC000029124639    0.0600
46     H46     0.5123   -0.3556   -0.8948 H        1 ZINC000029124639    0.0700
47     H47     0.5293   -0.3651    0.8851 H        1 ZINC000029124639    0.0700
48     H48    -2.1181    0.1091    0.0229 H        1 ZINC000029124639    0.4000
49     H49    -3.6107   -1.6857    0.0275 H        1 ZINC000029124639    0.4200
50     H50    -7.6127   -4.3978    0.0319 H        1 ZINC000029124639    0.2300
51     H51   -10.7354   -8.0609    1.0201 H        1 ZINC000029124639    0.0800
52     H52   -10.0083   -6.4365    1.0530 H        1 ZINC000029124639    0.0700
53     H53   -13.5870   -5.5881   -2.3775 H        1 ZINC000029124639    0.4200
54     H54    -6.3321  -10.7148    3.4670 H        1 ZINC000029124639    0.1300
55     H55    -4.8457  -12.0899    1.1898 H        1 ZINC000029124639    0.1200
56     H56    -6.0024  -11.8553    4.7746 H        1 ZINC000029124639    0.1300
57     H57    -5.4819  -13.4898    6.5376 H        1 ZINC000029124639    0.1200
58     H58    -4.1041  -15.4621    6.0248 H        1 ZINC000029124639    0.1200
59     H59    -3.2391  -15.8120    3.7487 H        1 ZINC000029124639    0.1200
60     H60    -3.7549  -14.1935    1.9696 H        1 ZINC000029124639    0.1300
61     H61    -1.4539   -6.5066   -0.0096 H        1 ZINC000029124639    0.2100
@<TRIPOS>BOND
1     1     2     1
2     1     43    1
3     1     44    1
4     1     45    1
5     2     3     1
6     2     46    1
7     2     47    1
8     3     4     am
9     3     48    1
10    4     5     2
11    4     6     am
12    6     7     1
13    6     49    1
14    7     42    ar
15    7     8     ar
16    8     39    ar
17    8     9     1
18    9     10    2
19    10    11    1
20    10    50    1
21    11    12    1
22    11    39    1
23    12    13    1
24    12    37    1
25    12    14    1
26    14    15    1
27    15    16    1
28    15    17    1
29    15    23    1
30    17    18    1
31    17    51    1
32    17    52    1
33    18    19    1
34    19    20    2
35    19    21    1
36    19    22    1
37    22    53    1
38    23    24    1
39    23    37    1
40    23    25    1
41    25    26    1
42    26    27    1
43    26    28    1
44    26    36    1
45    28    29    2
46    28    54    1
47    29    30    1
48    29    55    1
49    30    35    ar
50    30    31    ar
51    31    32    ar
52    31    56    1
53    32    33    ar
54    32    57    1
55    33    34    ar
56    33    58    1
57    34    35    ar
58    34    59    1
59    35    60    1
60    36    37    1
61    37    38    1
62    39    40    ar
63    40    41    ar
64    41    42    ar
65    41    61    1
@<TRIPOS>SUBSTRUCTURE
1   ZINC000029124639 1     RESIDUE    1   A     ZIN   1
