@<TRIPOS>MOLECULE
ZINC000150363615
103   108   1     0     0
SMALL
USER_CHARGES
@<TRIPOS>ATOM
1      N1      0.0219    1.1391    0.6534 N.4      1 ZINC000150363615   -0.6400
2      H2     -0.0638    0.1409    0.5341 H        1 ZINC000150363615    0.4400
3      H3      0.9886    1.3763    0.8187 H        1 ZINC000150363615    0.4400
4      H4     -0.3012    1.6065   -0.1804 H        1 ZINC000150363615    0.4400
5      C5     -0.7902    1.5667    1.8004 C.3      1 ZINC000150363615   -0.0100
6      C6     -2.2561    1.2071    1.5497 C.3      1 ZINC000150363615   -0.1500
7      C7     -3.1019    1.6525    2.7443 C.3      1 ZINC000150363615   -0.1100
8      C8     -4.5678    1.2929    2.4937 C.3      1 ZINC000150363615   -0.1300
9      C9     -5.4136    1.7382    3.6883 C.3      1 ZINC000150363615    0.1300
10     H10    -5.0036    1.3107    4.6033 H        1 ZINC000150363615    0.1100
11     N11    -5.3956    3.2001    3.7815 N.am     1 ZINC000150363615   -0.7100
12     C12    -4.3891    3.8219    4.4272 C.2      1 ZINC000150363615    0.5200
13     O13    -3.4984    3.1711    4.9311 O.2      1 ZINC000150363615   -0.5300
14     C14    -4.3706    5.3257    4.5230 C.3      1 ZINC000150363615    0.1500
15     H15    -5.2667    5.6679    5.0407 H        1 ZINC000150363615    0.1200
16     C16    -4.3338    5.9260    3.1162 C.3      1 ZINC000150363615   -0.0800
17     C17    -4.4391    7.4265    3.2074 C.ar     1 ZINC000150363615   -0.0800
18     C18    -5.6812    8.0334    3.1896 C.ar     1 ZINC000150363615   -0.0500
19     C19    -5.7808    9.4097    3.2727 C.ar     1 ZINC000150363615   -0.1100
20     Br20   -7.4801   10.2389    3.2482 Br       1 ZINC000150363615   -0.0200
21     C21    -4.6324   10.1823    3.3744 C.ar     1 ZINC000150363615    0.1700
22     O22    -4.7274   11.5358    3.4567 O.3      1 ZINC000150363615   -0.4800
23     C23    -3.3870    9.5704    3.3925 C.ar     1 ZINC000150363615   -0.1100
24     Br24   -1.8194   10.6189    3.5312 Br       1 ZINC000150363615   -0.0200
25     C25    -3.2936    8.1934    3.3144 C.ar     1 ZINC000150363615   -0.0500
26     N26    -3.1834    5.7530    5.2675 N.am     1 ZINC000150363615   -0.7300
27     C27    -3.1822    6.9364    5.9124 C.2      1 ZINC000150363615    0.7100
28     O28    -4.1945    7.6087    5.9512 O.2      1 ZINC000150363615   -0.5700
29     N29    -2.0588    7.3746    6.5145 N.am     1 ZINC000150363615   -0.6200
30     C30    -2.0124    8.7056    7.1350 C.3      1 ZINC000150363615    0.1400
31     C31    -1.5421    8.5573    8.5854 C.3      1 ZINC000150363615   -0.1600
32     C32    -0.2095    7.8051    8.6109 C.3      1 ZINC000150363615    0.1800
33     N33     0.2598    7.6905    9.9940 N.am     1 ZINC000150363615   -0.6100
34     C34     1.5502    8.2766   10.3945 C.3      1 ZINC000150363615    0.1500
35     C35     1.9566    8.1114   11.8407 C.ar     1 ZINC000150363615   -0.1400
36     C36     3.1427    8.6231   12.3131 C.ar     1 ZINC000150363615   -0.0700
37     C37     3.4819    8.4526   13.6451 C.ar     1 ZINC000150363615   -0.1400
38     C38     2.6303    7.7707   14.4944 C.ar     1 ZINC000150363615   -0.0800
39     C39     1.4383    7.2559   14.0221 C.ar     1 ZINC000150363615   -0.1600
40     C40     1.0937    7.4240   12.6880 C.ar     1 ZINC000150363615    0.1700
41     N41    -0.1052    6.9113   12.1915 N.am     1 ZINC000150363615   -0.6700
42     C42    -0.4852    7.0532   10.9153 C.2      1 ZINC000150363615    0.7100
43     O43    -1.5478    6.5735   10.5703 O.2      1 ZINC000150363615   -0.5800
44     C44    -0.3998    6.4065    8.0195 C.3      1 ZINC000150363615   -0.1500
45     C45    -0.8592    6.5280    6.5680 C.3      1 ZINC000150363615    0.1200
46     C46    -6.8322    1.2641    3.5040 C.2      1 ZINC000150363615    0.5200
47     O47    -7.6687    2.0158    3.0500 O.2      1 ZINC000150363615   -0.5100
48     N48    -7.1713    0.0047    3.8437 N.am     1 ZINC000150363615   -0.6200
49     C49    -6.2040   -0.8857    4.5031 C.3      1 ZINC000150363615    0.1100
50     C50    -6.8604   -1.4749    5.7562 C.3      1 ZINC000150363615    0.0200
51     N51    -8.1344   -2.1062    5.3870 N.3      1 ZINC000150363615   -0.4700
52     C52    -8.6818   -2.7933    6.4663 C.ar     1 ZINC000150363615    0.2400
53     C53    -8.0348   -2.8175    7.7017 C.ar     1 ZINC000150363615   -0.1900
54     C54    -8.6107   -3.5095    8.7462 C.ar     1 ZINC000150363615    0.1600
55     N55    -9.7579   -4.1427    8.5875 N.ar     1 ZINC000150363615   -0.4700
56     H56   -10.1398   -4.6210    9.3400 H        1 ZINC000150363615    0.4500
57     C57   -10.4008   -4.1435    7.4347 C.ar     1 ZINC000150363615    0.1600
58     C58    -9.8946   -3.4709    6.3425 C.ar     1 ZINC000150363615   -0.1600
59     C59    -9.0836   -1.1195    4.8549 C.3      1 ZINC000150363615    0.0400
60     C60    -8.5203   -0.5137    3.5704 C.3      1 ZINC000150363615    0.1100
61     H61    -0.4411    1.0618    2.7011 H        1 ZINC000150363615    0.1300
62     H62    -0.6976    2.6451    1.9293 H        1 ZINC000150363615    0.1300
63     H63    -2.6051    1.7120    0.6490 H        1 ZINC000150363615    0.0900
64     H64    -2.3487    0.1287    1.4208 H        1 ZINC000150363615    0.0900
65     H65    -2.7529    1.1475    3.6451 H        1 ZINC000150363615    0.0800
66     H66    -3.0093    2.7308    2.8733 H        1 ZINC000150363615    0.0800
67     H67    -4.9168    1.7978    1.5929 H        1 ZINC000150363615    0.0800
68     H68    -4.6604    0.2145    2.3648 H        1 ZINC000150363615    0.0800
69     H69    -6.1080    3.7206    3.3784 H        1 ZINC000150363615    0.4200
70     H70    -3.3960    5.6564    2.6305 H        1 ZINC000150363615    0.0800
71     H71    -5.1693    5.5379    2.5336 H        1 ZINC000150363615    0.0900
72     H72    -6.5746    7.4317    3.1104 H        1 ZINC000150363615    0.1400
73     H73    -4.7950   11.8711    4.3612 H        1 ZINC000150363615    0.4000
74     H74    -2.3246    7.7166    3.3285 H        1 ZINC000150363615    0.1300
75     H75    -2.3982    5.1842    5.2962 H        1 ZINC000150363615    0.4000
76     H76    -1.3150    9.3398    6.5877 H        1 ZINC000150363615    0.0700
77     H77    -3.0067    9.1519    7.1171 H        1 ZINC000150363615    0.1000
78     H78    -1.4110    9.5447    9.0281 H        1 ZINC000150363615    0.0800
79     H79    -2.2859    7.9990    9.1538 H        1 ZINC000150363615    0.0900
80     H80     0.5271    8.3512    8.0216 H        1 ZINC000150363615    0.0900
81     H81     2.3284    7.8324    9.7737 H        1 ZINC000150363615    0.0800
82     H82     1.5176    9.3437   10.1742 H        1 ZINC000150363615    0.0800
83     H83     3.8068    9.1552   11.6481 H        1 ZINC000150363615    0.1300
84     H84     4.4124    8.8523   14.0205 H        1 ZINC000150363615    0.1300
85     H85     2.8984    7.6395   15.5324 H        1 ZINC000150363615    0.1300
86     H86     0.7765    6.7236   14.6892 H        1 ZINC000150363615    0.1300
87     H87    -0.6923    6.4353   12.7994 H        1 ZINC000150363615    0.4200
88     H88     0.5442    5.8631    8.0594 H        1 ZINC000150363615    0.0700
89     H89    -1.1545    5.8685    8.5932 H        1 ZINC000150363615    0.1000
90     H90    -1.0908    5.5384    6.1740 H        1 ZINC000150363615    0.0800
91     H91    -0.0694    6.9853    5.9719 H        1 ZINC000150363615    0.0700
92     H92    -5.9247   -1.6906    3.8233 H        1 ZINC000150363615    0.0900
93     H93    -5.3178   -0.3180    4.7865 H        1 ZINC000150363615    0.1100
94     H94    -6.1990   -2.2209    6.1968 H        1 ZINC000150363615    0.1100
95     H95    -7.0445   -0.6796    6.4785 H        1 ZINC000150363615    0.0800
96     H96    -7.0957   -2.3018    7.8382 H        1 ZINC000150363615    0.1800
97     H97    -8.1166   -3.5339    9.7062 H        1 ZINC000150363615    0.2100
98     H98   -11.3372   -4.6743    7.3469 H        1 ZINC000150363615    0.2100
99     H99   -10.4259   -3.4753    5.4022 H        1 ZINC000150363615    0.1900
100    H100  -10.0346   -1.6077    4.6418 H        1 ZINC000150363615    0.1100
101    H101   -9.2368   -0.3291    5.5898 H        1 ZINC000150363615    0.0700
102    H102   -9.1653    0.2983    3.2349 H        1 ZINC000150363615    0.1200
103    H103   -8.4617   -1.2813    2.7987 H        1 ZINC000150363615    0.0900
@<TRIPOS>BOND
1     1     2     1
2     1     3     1
3     1     4     1
4     1     5     1
5     5     6     1
6     5     61    1
7     5     62    1
8     6     7     1
9     6     63    1
10    6     64    1
11    7     8     1
12    7     65    1
13    7     66    1
14    8     9     1
15    8     67    1
16    8     68    1
17    9     10    1
18    9     11    1
19    9     46    1
20    11    12    am
21    11    69    1
22    12    13    2
23    12    14    1
24    14    15    1
25    14    16    1
26    14    26    1
27    16    17    1
28    16    70    1
29    16    71    1
30    17    25    ar
31    17    18    ar
32    18    19    ar
33    18    72    1
34    19    20    1
35    19    21    ar
36    21    22    1
37    21    23    ar
38    22    73    1
39    23    24    1
40    23    25    ar
41    25    74    1
42    26    27    am
43    26    75    1
44    27    28    2
45    27    29    am
46    29    45    1
47    29    30    1
48    30    31    1
49    30    76    1
50    30    77    1
51    31    32    1
52    31    78    1
53    31    79    1
54    32    33    1
55    32    44    1
56    32    80    1
57    33    42    am
58    33    34    1
59    34    35    1
60    34    81    1
61    34    82    1
62    35    40    ar
63    35    36    ar
64    36    37    ar
65    36    83    1
66    37    38    ar
67    37    84    1
68    38    39    ar
69    38    85    1
70    39    40    ar
71    39    86    1
72    40    41    1
73    41    42    am
74    41    87    1
75    42    43    2
76    44    45    1
77    44    88    1
78    44    89    1
79    45    90    1
80    45    91    1
81    46    47    2
82    46    48    am
83    48    60    1
84    48    49    1
85    49    50    1
86    49    92    1
87    49    93    1
88    50    51    1
89    50    94    1
90    50    95    1
91    51    52    1
92    51    59    1
93    52    58    ar
94    52    53    ar
95    53    54    ar
96    53    96    1
97    54    55    ar
98    54    97    1
99    55    56    1
100   55    57    ar
101   57    58    ar
102   57    98    1
103   58    99    1
104   59    60    1
105   59    100   1
106   59    101   1
107   60    102   1
108   60    103   1
@<TRIPOS>SUBSTRUCTURE
1   ZINC000150363615 1     RESIDUE    1   A     ZIN   1
