@<TRIPOS>MOLECULE
ZINC000035851468
60    63    1     0     0
SMALL
USER_CHARGES
@<TRIPOS>ATOM
1      C1     -3.1348    2.3194   -2.9482 C.3      1 ZINC000035851468   -0.1200
2      C2     -1.8252    2.0296   -2.2611 C.ar     1 ZINC000035851468   -0.0700
3      C3     -1.1747    0.8329   -2.4896 C.ar     1 ZINC000035851468   -0.1200
4      C4      0.0298    0.5686   -1.8640 C.ar     1 ZINC000035851468   -0.1000
5      C5      0.5841    1.4984   -1.0036 C.ar     1 ZINC000035851468   -0.1200
6      C6     -0.0638    2.6950   -0.7671 C.ar     1 ZINC000035851468   -0.0700
7      C7      0.5415    3.7082    0.1699 C.3      1 ZINC000035851468   -0.1500
8      C8     -1.2734    2.9637   -1.3942 C.ar     1 ZINC000035851468    0.1100
9      N9     -1.9321    4.1752   -1.1572 N.am     1 ZINC000035851468   -0.5500
10     C10    -2.8501    4.3000   -0.0224 C.3      1 ZINC000035851468    0.1000
11     C11    -2.2299    5.1816    1.0308 C.2      1 ZINC000035851468    0.5000
12     O12    -1.1897    5.7612    0.8008 O.2      1 ZINC000035851468   -0.4800
13     N13    -2.8313    5.3260    2.2283 N.am     1 ZINC000035851468   -0.6700
14     C14    -2.3195    6.2303    3.1626 C.ar     1 ZINC000035851468    0.1700
15     C15    -0.9449    6.3911    3.2920 C.ar     1 ZINC000035851468   -0.1200
16     C16    -0.4380    7.2861    4.2095 C.ar     1 ZINC000035851468   -0.0500
17     C17    -1.3048    8.0222    5.0160 C.ar     1 ZINC000035851468   -0.0400
18     C18    -0.7616    8.9810    6.0088 C.2      1 ZINC000035851468    0.2100
19     N19    -1.4563    9.7309    6.8250 N.2      1 ZINC000035851468   -0.3800
20     O20    -0.7127   10.4030    7.5080 O.3      1 ZINC000035851468    0.0800
21     C21     0.5597   10.1448    7.1902 C.2      1 ZINC000035851468    0.1700
22     N22     0.5450    9.2396    6.2438 N.2      1 ZINC000035851468   -0.4800
23     C23    -2.6831    7.8554    4.8882 C.ar     1 ZINC000035851468   -0.0600
24     C24    -3.1857    6.9635    3.9653 C.ar     1 ZINC000035851468   -0.1400
25     C25    -1.7220    5.2273   -1.9729 C.2      1 ZINC000035851468    0.5400
26     O26    -2.2383    6.2972   -1.7280 O.2      1 ZINC000035851468   -0.5000
27     C27    -0.8457    5.0745   -3.1894 C.3      1 ZINC000035851468   -0.1200
28     C28     0.6186    5.1460   -2.7664 C.3      1 ZINC000035851468   -0.1200
29     C29     1.5207    4.7397   -3.9343 C.3      1 ZINC000035851468   -0.6000
30     S30     1.3165    5.9395   -5.2831 S.o2     1 ZINC000035851468    2.4100
31     O31     1.9425    5.4231   -6.4496 O.2      1 ZINC000035851468   -0.9400
32     O32     1.6846    7.2273   -4.8086 O.2      1 ZINC000035851468   -0.9300
33     C33    -0.4837    5.9015   -5.5242 C.3      1 ZINC000035851468   -0.6000
34     C34    -1.1716    6.1826   -4.1864 C.3      1 ZINC000035851468   -0.0900
35     H35    -3.9573    1.9638   -2.3276 H        1 ZINC000035851468    0.0800
36     H36    -3.2343    3.3939   -3.1023 H        1 ZINC000035851468    0.0700
37     H37    -3.1602    1.8103   -3.9116 H        1 ZINC000035851468    0.0700
38     H38    -1.6050    0.1046   -3.1611 H        1 ZINC000035851468    0.1300
39     H39     0.5386   -0.3663   -2.0475 H        1 ZINC000035851468    0.1300
40     H40     1.5248    1.2889   -0.5162 H        1 ZINC000035851468    0.1300
41     H41     1.1064    4.4424   -0.4045 H        1 ZINC000035851468    0.0800
42     H42    -0.2519    4.2116    0.7224 H        1 ZINC000035851468    0.1000
43     H43     1.2077    3.2035    0.8696 H        1 ZINC000035851468    0.0600
44     H44    -3.7875    4.7420   -0.3602 H        1 ZINC000035851468    0.1200
45     H45    -3.0444    3.3133    0.3981 H        1 ZINC000035851468    0.1200
46     H46    -3.6193    4.8021    2.4416 H        1 ZINC000035851468    0.4100
47     H47    -0.2736    5.8171    2.6704 H        1 ZINC000035851468    0.1400
48     H48     0.6300    7.4139    4.3066 H        1 ZINC000035851468    0.1400
49     H49     1.4356   10.5950    7.6334 H        1 ZINC000035851468    0.2700
50     H50    -3.3564    8.4249    5.5117 H        1 ZINC000035851468    0.1400
51     H51    -4.2533    6.8340    3.8661 H        1 ZINC000035851468    0.1300
52     H52    -1.0391    4.1067   -3.6520 H        1 ZINC000035851468    0.1100
53     H53     0.8577    6.1647   -2.4612 H        1 ZINC000035851468    0.1000
54     H54     0.7865    4.4699   -1.9281 H        1 ZINC000035851468    0.1100
55     H55     1.2401    3.7463   -4.2842 H        1 ZINC000035851468    0.1400
56     H56     2.5606    4.7313   -3.6080 H        1 ZINC000035851468    0.1400
57     H57    -0.7823    4.9184   -5.8884 H        1 ZINC000035851468    0.1300
58     H58    -0.7721    6.6622   -6.2496 H        1 ZINC000035851468    0.1400
59     H59    -2.2502    6.2283   -4.3367 H        1 ZINC000035851468    0.0900
60     H60    -0.8202    7.1370   -3.7942 H        1 ZINC000035851468    0.1000
@<TRIPOS>BOND
1     1     2     1
2     1     35    1
3     1     36    1
4     1     37    1
5     2     8     ar
6     2     3     ar
7     3     4     ar
8     3     38    1
9     4     5     ar
10    4     39    1
11    5     6     ar
12    5     40    1
13    6     7     1
14    6     8     ar
15    7     41    1
16    7     42    1
17    7     43    1
18    8     9     1
19    9     10    1
20    9     25    am
21    10    11    1
22    10    44    1
23    10    45    1
24    11    12    2
25    11    13    am
26    13    14    1
27    13    46    1
28    14    24    ar
29    14    15    ar
30    15    16    ar
31    15    47    1
32    16    17    ar
33    16    48    1
34    17    18    1
35    17    23    ar
36    18    22    1
37    18    19    2
38    19    20    1
39    20    21    1
40    21    22    2
41    21    49    1
42    23    24    ar
43    23    50    1
44    24    51    1
45    25    26    2
46    25    27    1
47    27    34    1
48    27    28    1
49    27    52    1
50    28    29    1
51    28    53    1
52    28    54    1
53    29    30    1
54    29    55    1
55    29    56    1
56    30    31    2
57    30    32    2
58    30    33    1
59    33    34    1
60    33    57    1
61    33    58    1
62    34    59    1
63    34    60    1
@<TRIPOS>SUBSTRUCTURE
1   ZINC000035851468 1     RESIDUE    1   A     ZIN   1
