@<TRIPOS>MOLECULE
ZINC000009212279
46    49    1     0     0
SMALL
USER_CHARGES
@<TRIPOS>ATOM
1      C1      0.4719    2.3736    2.9126 C.3      1 ZINC000009212279   -0.0900
2      C2      0.6698    0.8802    2.8711 C.2      1 ZINC000009212279    0.0300
3      C3     -0.2308   -0.0548    2.4270 C.2      1 ZINC000009212279   -0.2500
4      C4     -1.5860    0.1576    1.8906 C.2      1 ZINC000009212279    0.6100
5      O5     -1.7482    0.3248    0.6969 O.2      1 ZINC000009212279   -0.5100
6      N6     -2.6463    0.1665    2.7225 N.am     1 ZINC000009212279   -0.7000
7      C7     -3.9942    0.3778    2.1890 C.3      1 ZINC000009212279    0.0700
8      H8     -4.0876    0.0836    1.1436 H        1 ZINC000009212279    0.1500
9      C9     -4.5584    1.7514    2.4874 C.2      1 ZINC000009212279    0.4900
10     O10    -4.2406    2.8798    2.1766 O.2      1 ZINC000009212279   -0.3800
11     N11    -5.5621    1.2237    3.2405 N.am     1 ZINC000009212279   -0.5000
12     C12    -5.1075   -0.1783    3.0880 C.3      1 ZINC000009212279    0.1100
13     H13    -4.7795   -0.6851    3.9955 H        1 ZINC000009212279    0.1500
14     S14    -6.4591   -1.0193    2.1772 S.3      1 ZINC000009212279   -0.2900
15     C15    -7.2752    0.5357    1.6209 C.3      1 ZINC000009212279    0.0100
16     C16    -6.6388    1.0711    0.3367 C.3      1 ZINC000009212279   -0.1400
17     C17    -8.7839    0.3444    1.4527 C.3      1 ZINC000009212279   -0.1200
18     C18    -6.9450    1.4540    2.8181 C.3      1 ZINC000009212279    0.0100
19     H19    -7.6053    1.2190    3.6529 H        1 ZINC000009212279    0.1000
20     C20    -7.1294    2.8948    2.4169 C.2      1 ZINC000009212279    0.5000
21     O21    -8.1500    3.2435    1.8484 O.co2    1 ZINC000009212279   -0.6800
22     O22    -6.2579    3.7118    2.6609 O.co2    1 ZINC000009212279   -0.6400
23     C23     0.4953   -1.3276    2.6191 C.2      1 ZINC000009212279    0.1000
24     C24     0.0137   -2.6961    2.3105 C.ar     1 ZINC000009212279   -0.0300
25     C25    -1.3316   -3.0187    2.4788 C.ar     1 ZINC000009212279   -0.0900
26     C26    -1.7743   -4.2935    2.1897 C.ar     1 ZINC000009212279   -0.1100
27     C27    -0.8853   -5.2504    1.7341 C.ar     1 ZINC000009212279   -0.1100
28     C28     0.4510   -4.9358    1.5652 C.ar     1 ZINC000009212279   -0.1200
29     C29     0.9038   -3.6626    1.8457 C.ar     1 ZINC000009212279   -0.0900
30     N30     1.6551   -0.9863    3.1204 N.2      1 ZINC000009212279   -0.3400
31     O31     1.7581    0.2084    3.2539 O.3      1 ZINC000009212279    0.1000
32     H32     1.3684    2.8480    3.3117 H        1 ZINC000009212279    0.0900
33     H33     0.2832    2.7432    1.9047 H        1 ZINC000009212279    0.1000
34     H34    -0.3792    2.6096    3.5514 H        1 ZINC000009212279    0.1000
35     H35    -2.5169    0.0331    3.6746 H        1 ZINC000009212279    0.4100
36     H36    -6.7585    0.3380   -0.4611 H        1 ZINC000009212279    0.0600
37     H37    -7.1269    2.0027    0.0503 H        1 ZINC000009212279    0.0900
38     H38    -5.5777    1.2539    0.5059 H        1 ZINC000009212279    0.0500
39     H39    -9.2169    0.0211    2.3992 H        1 ZINC000009212279    0.0600
40     H40    -9.2380    1.2875    1.1486 H        1 ZINC000009212279    0.1000
41     H41    -8.9715   -0.4116    0.6902 H        1 ZINC000009212279    0.0600
42     H42    -2.0264   -2.2725    2.8352 H        1 ZINC000009212279    0.1200
43     H43    -2.8166   -4.5446    2.3198 H        1 ZINC000009212279    0.1300
44     H44    -1.2360   -6.2469    1.5097 H        1 ZINC000009212279    0.1300
45     H45     1.1408   -5.6869    1.2095 H        1 ZINC000009212279    0.1300
46     H46     1.9473   -3.4180    1.7132 H        1 ZINC000009212279    0.1300
@<TRIPOS>BOND
1     1     2     1
2     1     32    1
3     1     33    1
4     1     34    1
5     2     31    1
6     2     3     2
7     3     4     1
8     3     23    1
9     4     5     2
10    4     6     am
11    6     7     1
12    6     35    1
13    7     8     1
14    7     12    1
15    7     9     1
16    9     10    2
17    9     11    am
18    11    18    1
19    11    12    1
20    12    13    1
21    12    14    1
22    14    15    1
23    15    16    1
24    15    17    1
25    15    18    1
26    16    36    1
27    16    37    1
28    16    38    1
29    17    39    1
30    17    40    1
31    17    41    1
32    18    19    1
33    18    20    1
34    20    21    ar
35    20    22    ar
36    23    24    1
37    23    30    2
38    24    29    ar
39    24    25    ar
40    25    26    ar
41    25    42    1
42    26    27    ar
43    26    43    1
44    27    28    ar
45    27    44    1
46    28    29    ar
47    28    45    1
48    29    46    1
49    30    31    1
@<TRIPOS>SUBSTRUCTURE
1   ZINC000009212279 1     RESIDUE    1   A     ZIN   1
