@<TRIPOS>MOLECULE
ZINC000003870221
40    39    1     0     0
SMALL
USER_CHARGES
@<TRIPOS>ATOM
1      N1     -0.0116    1.0048    0.0076 N.4      1 ZINC000003870221   -0.6200
2      H2      0.0021   -0.0041    0.0020 H        1 ZINC000003870221    0.4300
3      H3      0.9350    1.3541    0.0004 H        1 ZINC000003870221    0.4300
4      H4     -0.4996    1.3391   -0.8099 H        1 ZINC000003870221    0.4100
5      C5     -0.6992    1.4786    1.2162 C.3      1 ZINC000003870221   -0.0500
6      H6     -1.7218    1.1013    1.2239 H        1 ZINC000003870221    0.1300
7      C7     -0.7199    3.0084    1.2246 C.3      1 ZINC000003870221   -0.1100
8      C8     -1.5654    3.5134    0.0537 C.3      1 ZINC000003870221   -0.1500
9      C9     -1.5858    5.0203    0.0620 C.2      1 ZINC000003870221    0.5100
10     O10    -0.9835    5.6302    0.9199 O.2      1 ZINC000003870221   -0.5000
11     N11    -2.2735    5.6901   -0.8840 N.am     1 ZINC000003870221   -0.7100
12     C12    -2.2934    7.1550   -0.8760 C.3      1 ZINC000003870221    0.1500
13     H13    -1.3294    7.5295   -0.5317 H        1 ZINC000003870221    0.1200
14     C14    -3.3963    7.6449    0.0645 C.3      1 ZINC000003870221   -0.1200
15     S15    -2.9985    7.1610    1.7669 S.3      1 ZINC000003870221   -0.1400
16     C16    -4.3974    7.8191    2.7157 C.3      1 ZINC000003870221    0.0700
17     O17    -5.5465    6.9968    2.5026 O.3      1 ZINC000003870221   -0.5600
18     C18    -2.5602    7.6614   -2.2700 C.2      1 ZINC000003870221    0.5100
19     O19    -2.7182    6.8761   -3.1806 O.2      1 ZINC000003870221   -0.5500
20     N20    -2.6232    8.9870   -2.5048 N.am     1 ZINC000003870221   -0.6900
21     C21    -2.8827    9.4794   -3.8600 C.3      1 ZINC000003870221    0.0500
22     C22    -2.9031   10.9862   -3.8517 C.2      1 ZINC000003870221    0.4900
23     O23    -2.7181   11.5927   -2.8104 O.co2    1 ZINC000003870221   -0.6900
24     O24    -3.1046   11.5988   -4.8864 O.co2    1 ZINC000003870221   -0.6900
25     C25     0.0297    0.9794    2.4371 C.2      1 ZINC000003870221    0.4900
26     O26     1.2338    0.7927    2.3944 O.co2    1 ZINC000003870221   -0.6700
27     O27    -0.5847    0.7621    3.4675 O.co2    1 ZINC000003870221   -0.6400
28     H28    -1.1502    3.3608    2.1620 H        1 ZINC000003870221    0.1200
29     H29     0.2979    3.3861    1.1273 H        1 ZINC000003870221    0.0900
30     H30    -1.1351    3.1611   -0.8837 H        1 ZINC000003870221    0.0800
31     H31    -2.5832    3.1357    0.1509 H        1 ZINC000003870221    0.1100
32     H32    -2.7552    5.2023   -1.5702 H        1 ZINC000003870221    0.4100
33     H33    -3.4702    8.7306    0.0032 H        1 ZINC000003870221    0.1000
34     H34    -4.3471    7.1989   -0.2273 H        1 ZINC000003870221    0.0900
35     H35    -4.1464    7.8249    3.7764 H        1 ZINC000003870221    0.0900
36     H36    -4.6126    8.8361    2.3877 H        1 ZINC000003870221    0.0700
37     H37    -6.3342    7.2901    2.9806 H        1 ZINC000003870221    0.3700
38     H38    -2.4969    9.6152   -1.7766 H        1 ZINC000003870221    0.4100
39     H39    -2.0969    9.1303   -4.5300 H        1 ZINC000003870221    0.0700
40     H40    -3.8467    9.1048   -4.2043 H        1 ZINC000003870221    0.0700
@<TRIPOS>BOND
1     1     2     1
2     1     3     1
3     1     4     1
4     1     5     1
5     5     6     1
6     5     7     1
7     5     25    1
8     7     8     1
9     7     28    1
10    7     29    1
11    8     9     1
12    8     30    1
13    8     31    1
14    9     10    2
15    9     11    am
16    11    12    1
17    11    32    1
18    12    13    1
19    12    14    1
20    12    18    1
21    14    15    1
22    14    33    1
23    14    34    1
24    15    16    1
25    16    17    1
26    16    35    1
27    16    36    1
28    17    37    1
29    18    19    2
30    18    20    am
31    20    21    1
32    20    38    1
33    21    22    1
34    21    39    1
35    21    40    1
36    22    23    ar
37    22    24    ar
38    25    26    ar
39    25    27    ar
@<TRIPOS>SUBSTRUCTURE
1   ZINC000003870221 1     RESIDUE    1   A     ZIN   1
