@<TRIPOS>MOLECULE
ZINC000025758512
  38   41    0    0    0
SMALL
USER_CHARGES
NO_NAME
@<TRIPOS>ATOM
    1 O1       -0.0163     1.3543     0.0095 O.3    1 <0>      -0.4800
    2 C2        0.0021    -0.0041     0.0020 C.ar   1 <0>       0.1100
    3 C3        0.0314    -0.6959    -1.1936 C.ar   1 <0>      -0.1300
    4 C4        0.0105    -2.0823    -1.2109 C.ar   1 <0>      -0.0700
    5 C5       -0.0651    -2.7931    -0.0254 C.ar   1 <0>      -0.0800
    6 C6        0.0096    -2.0959     1.1719 C.ar   1 <0>      -0.1200
    7 C7        0.0231    -0.7145     1.1988 C.ar   1 <0>       0.0900
    8 O8        0.0514    -0.0514     2.3866 O.3    1 <0>      -0.4800
    9 C9       -0.2465    -4.2755     0.0049 C.3    1 <0>       0.0000
   10 H10       0.6700    -4.7164     0.4120 H      1 <0>       0.1100
   11 C11      -1.3956    -4.7761     0.8335 C.ar   1 <0>      -0.0800
   12 C12      -1.8787    -4.0716     1.9153 C.ar   1 <0>      -0.1100
   13 C13      -2.9284    -4.5634     2.6740 C.ar   1 <0>      -0.0900
   14 C14      -3.5121    -5.7675     2.3376 C.ar   1 <0>      -0.1000
   15 C15      -3.0426    -6.4720     1.2488 C.ar   1 <0>      -0.0900
   16 C16      -1.9861    -5.9855     0.4900 C.ar   1 <0>      -0.1400
   17 C17      -1.5421    -6.8130    -0.6852 C.3    1 <0>       0.0500
   18 N18      -0.3151    -6.2998    -1.3041 N.4    1 <0>      -0.5000
   19 H19       0.4778    -6.5319    -0.7253 H      1 <0>       0.4300
   20 H20      -0.2011    -6.6980    -2.2229 H      1 <0>       0.4400
   21 C21      -0.4405    -4.8443    -1.4035 C.3    1 <0>       0.0200
   22 H22      -1.4484    -4.5993    -1.7489 H      1 <0>       0.1500
   23 C23       0.5742    -4.2150    -2.3482 C.3    1 <0>      -0.1300
   24 C24       0.1236    -2.7622    -2.5529 C.3    1 <0>      -0.0800
   25 H25       0.8616     1.7596     0.0033 H      1 <0>       0.4000
   26 H26       0.0651    -0.1466    -2.1242 H      1 <0>       0.1400
   27 H27       0.1192    -2.6397     2.0992 H      1 <0>       0.1400
   28 H28       0.9427     0.1319     2.7135 H      1 <0>       0.3900
   29 H29      -1.4677    -3.1190     2.2034 H      1 <0>       0.1400
   30 H30      -3.2800    -4.0079     3.5318 H      1 <0>       0.1400
   31 H31      -4.3309    -6.1567     2.9243 H      1 <0>       0.1400
   32 H32      -3.5002    -7.4145     0.9857 H      1 <0>       0.1400
   33 H33      -1.3729    -7.8382    -0.3567 H      1 <0>       0.1400
   34 H34      -2.3405    -6.8135    -1.4322 H      1 <0>       0.1400
   35 H35       1.5636    -4.2283    -1.8941 H      1 <0>       0.1000
   36 H36       0.5840    -4.7355    -3.3014 H      1 <0>       0.1000
   37 H37      -0.8385    -2.7499    -3.0530 H      1 <0>       0.0900
   38 H38       0.8656    -2.2442    -3.1542 H      1 <0>       0.1000
@<TRIPOS>BOND
   1    1    2 1
   2    1   25 1
   3    2    7 ar
   4    2    3 ar
   5    3    4 ar
   6    3   26 1
   7    4   24 1
   8    4    5 ar
   9    5    6 ar
  10    5    9 1
  11    6    7 ar
  12    6   27 1
  13    7    8 1
  14    8   28 1
  15    9   10 1
  16    9   21 1
  17    9   11 1
  18   11   16 ar
  19   11   12 ar
  20   12   13 ar
  21   12   29 1
  22   13   14 ar
  23   13   30 1
  24   14   15 ar
  25   14   31 1
  26   15   16 ar
  27   15   32 1
  28   16   17 1
  29   17   18 1
  30   17   33 1
  31   17   34 1
  32   18   19 1
  33   18   20 1
  34   18   21 1
  35   21   22 1
  36   21   23 1
  37   23   24 1
  38   23   35 1
  39   23   36 1
  40   24   37 1
  41   24   38 1
