@<TRIPOS>MOLECULE
ZINC000001540301
  16   16    0    0    0
SMALL
USER_CHARGES
NO_NAME
@<TRIPOS>ATOM
    1 O1        0.0021    -0.0041     0.0020 O.2    1 <0>      -0.1300
    2 N2       -0.0144     1.2138     0.0087 N.pl3  1 <0>       0.0200
    3 O3        1.0320     1.8371     0.0021 O.2    1 <0>      -0.1300
    4 C4       -1.3062     1.9364     0.0188 C.ar   1 <0>      -0.0400
    5 C5       -1.3247     3.3185     0.0206 C.ar   1 <0>       0.0100
    6 C6       -2.5308     3.9939     0.0295 C.ar   1 <0>      -0.1100
    7 C7       -3.7194     3.2863     0.0366 C.ar   1 <0>       0.0500
    8 Cl8      -5.2344     4.1338     0.0473 Cl     1 <0>       0.0300
    9 C9       -3.7003     1.9027     0.0348 C.ar   1 <0>      -0.0400
   10 N10      -4.9717     1.1448     0.0424 N.pl3  1 <0>       0.0200
   11 O11      -4.9547    -0.0731     0.0408 O.2    1 <0>      -0.1400
   12 O12      -6.0349     1.7390     0.0503 O.2    1 <0>      -0.1200
   13 C13      -2.4940     1.2286     0.0206 C.ar   1 <0>       0.0200
   14 H14      -0.3966     3.8708     0.0154 H      1 <0>       0.1800
   15 H15      -2.5451     5.0738     0.0313 H      1 <0>       0.1800
   16 H16      -2.4789     0.1487     0.0191 H      1 <0>       0.1900
@<TRIPOS>BOND
   1    1    2 2
   2    2    3 2
   3    2    4 1
   4    4   13 ar
   5    4    5 ar
   6    5    6 ar
   7    5   14 1
   8    6    7 ar
   9    6   15 1
  10    7    8 1
  11    7    9 ar
  12    9   10 1
  13    9   13 ar
  14   10   11 2
  15   10   12 2
  16   13   16 1
