@<TRIPOS>MOLECULE
ZINC000006411960
40    39    1     0     0
SMALL
USER_CHARGES
@<TRIPOS>ATOM
1      C1      1.1284    0.9416    1.5298 C.3      1 ZINC000006411960   -0.1800
2      C2      1.2770   -0.5768    1.4149 C.3      1 ZINC000006411960   -0.1500
3      C3      1.7068   -0.9409   -0.0077 C.3      1 ZINC000006411960    0.0300
4      H4      0.9988   -0.5183   -0.7206 H        1 ZINC000006411960    0.1600
5      C5      1.7347   -2.4633   -0.1581 C.3      1 ZINC000006411960    0.0500
6      O6      2.5736   -3.0265    0.8523 O.3      1 ZINC000006411960   -0.5800
7      N7      3.0468   -0.3985   -0.2683 N.4      1 ZINC000006411960   -0.5000
8      H8      3.0484    0.5945   -0.0893 H        1 ZINC000006411960    0.4300
9      H9      3.7161   -0.8504    0.3367 H        1 ZINC000006411960    0.4400
10     C10     3.4103   -0.6439   -1.6703 C.3      1 ZINC000006411960   -0.0400
11     C11     4.8060   -0.0789   -1.9418 C.3      1 ZINC000006411960   -0.0400
12     N12     5.1694   -0.3243   -3.3438 N.4      1 ZINC000006411960   -0.5000
13     H13     5.0846   -1.3092   -3.5458 H        1 ZINC000006411960    0.4300
14     H14     4.5518    0.1973   -3.9476 H        1 ZINC000006411960    0.4400
15     C15     6.5555    0.1049   -3.5727 C.3      1 ZINC000006411960    0.0300
16     H16     7.2116   -0.3878   -2.8552 H        1 ZINC000006411960    0.1600
17     C17     6.9784   -0.2730   -4.9937 C.3      1 ZINC000006411960   -0.1500
18     C18     7.0017   -1.7967   -5.1306 C.3      1 ZINC000006411960   -0.1800
19     C19     6.6553    1.6216   -3.3972 C.3      1 ZINC000006411960    0.0500
20     O20     5.8863    2.2701   -4.4121 O.3      1 ZINC000006411960   -0.5800
21     H21     2.0827    1.4181    1.3054 H        1 ZINC000006411960    0.0500
22     H22     0.3744    1.2875    0.8227 H        1 ZINC000006411960    0.0700
23     H23     0.8222    1.2010    2.5433 H        1 ZINC000006411960    0.0900
24     H24     2.0309   -0.9227    2.1220 H        1 ZINC000006411960    0.1000
25     H25     0.3227   -1.0533    1.6393 H        1 ZINC000006411960    0.1200
26     H26     0.7239   -2.8574   -0.0525 H        1 ZINC000006411960    0.1000
27     H27     2.1254   -2.7241   -1.1417 H        1 ZINC000006411960    0.0700
28     H28     2.6382   -3.9907    0.8175 H        1 ZINC000006411960    0.4200
29     H29     3.4086   -1.7166   -1.8637 H        1 ZINC000006411960    0.1500
30     H30     2.6873   -0.1557   -2.3239 H        1 ZINC000006411960    0.1600
31     H31     4.8077    0.9938   -1.7484 H        1 ZINC000006411960    0.1500
32     H32     5.5290   -0.5671   -1.2882 H        1 ZINC000006411960    0.1600
33     H33     6.2685    0.1451   -5.7074 H        1 ZINC000006411960    0.1000
34     H34     7.9730    0.1251   -5.1948 H        1 ZINC000006411960    0.1200
35     H35     7.4097   -2.0677   -6.1044 H        1 ZINC000006411960    0.0900
36     H36     7.6248   -2.2227   -4.3442 H        1 ZINC000006411960    0.0700
37     H37     5.9872   -2.1851   -5.0409 H        1 ZINC000006411960    0.0500
38     H38     6.2705    1.8999   -2.4161 H        1 ZINC000006411960    0.0700
39     H39     7.6979    1.9290   -3.4792 H        1 ZINC000006411960    0.1000
40     H40     5.9038    3.2357   -4.3621 H        1 ZINC000006411960    0.4200
@<TRIPOS>BOND
1     1     2     1
2     1     21    1
3     1     22    1
4     1     23    1
5     2     3     1
6     2     24    1
7     2     25    1
8     3     4     1
9     3     5     1
10    3     7     1
11    5     6     1
12    5     26    1
13    5     27    1
14    6     28    1
15    7     8     1
16    7     9     1
17    7     10    1
18    10    11    1
19    10    29    1
20    10    30    1
21    11    12    1
22    11    31    1
23    11    32    1
24    12    13    1
25    12    14    1
26    12    15    1
27    15    16    1
28    15    17    1
29    15    19    1
30    17    18    1
31    17    33    1
32    17    34    1
33    18    35    1
34    18    36    1
35    18    37    1
36    19    20    1
37    19    38    1
38    19    39    1
39    20    40    1
@<TRIPOS>SUBSTRUCTURE
1   ZINC000006411960 1     RESIDUE    1   A     ZIN   1
