@<TRIPOS>MOLECULE
ZINC000100016063
  47   52    0    0    0
SMALL
USER_CHARGES
NO_NAME
@<TRIPOS>ATOM
    1 O1        0.0021    -0.0041     0.0020 O.2    1 <0>      -0.4700
    2 C2       -0.0144     1.2081     0.0087 C.2    1 <0>       0.5300
    3 N3       -1.1160     1.9685     0.0291 N.am   1 <0>      -0.6800
    4 C4       -0.8802     3.2864     0.0331 C.2    1 <0>       0.5300
    5 O5       -1.7292     4.1515     0.0507 O.2    1 <0>      -0.4700
    6 C6        0.6139     3.5249     0.0125 C.3    1 <0>      -0.0300
    7 H7        0.9028     4.0713    -0.8853 H      1 <0>       0.1300
    8 C8        1.0491     4.2698     1.2480 C.2    1 <0>      -0.1700
    9 C9        0.8820     3.8635     2.5324 C.2    1 <0>       0.0700
   10 N10       1.3969     4.7849     3.3902 N.pl3  1 <0>      -0.4700
   11 C11       1.4775     4.8289     4.8567 C.3    1 <0>       0.1100
   12 C12       2.6863     5.6866     5.2519 C.3    1 <0>      -0.1300
   13 C13       2.6372     7.0867     4.6292 C.3    1 <0>      -0.0700
   14 C14       2.5280     6.9685     3.1378 C.ar   1 <0>      -0.0900
   15 C15       1.9109     5.8199     2.6493 C.ar   1 <0>       0.0800
   16 C16       1.7294     5.5500     1.2839 C.ar   1 <0>      -0.0800
   17 C17       2.1914     6.4772     0.3459 C.ar   1 <0>      -0.0700
   18 C18       2.8017     7.6090     0.8386 C.ar   1 <0>      -0.1400
   19 C19       2.9670     7.8644     2.1986 C.ar   1 <0>      -0.1000
   20 C20       1.2070     2.1012     0.0018 C.3    1 <0>      -0.0400
   21 H21       1.8167     1.9330     0.8895 H      1 <0>       0.1300
   22 C22       2.0183     1.8740    -1.2477 C.2    1 <0>      -0.1600
   23 C23       1.5740     1.9461    -2.5123 C.2    1 <0>       0.0700
   24 N24       2.5960     1.6788    -3.3820 N.pl3  1 <0>      -0.5900
   25 C25       3.7525     1.4215    -2.6803 C.ar   1 <0>       0.1000
   26 C26       5.0516     1.1008    -3.0597 C.ar   1 <0>      -0.1300
   27 C27       6.0151     0.8963    -2.0962 C.ar   1 <0>      -0.1000
   28 C28       5.7032     1.0069    -0.7484 C.ar   1 <0>      -0.1400
   29 C29       4.4332     1.3211    -0.3533 C.ar   1 <0>      -0.0700
   30 C30       3.4429     1.5387    -1.3127 C.ar   1 <0>      -0.0900
   31 H31      -2.0113     1.5954     0.0402 H      1 <0>       0.4200
   32 H32       0.4077     2.9402     2.8307 H      1 <0>       0.1600
   33 H33       0.5668     5.2713     5.2604 H      1 <0>       0.0800
   34 H34       1.6018     3.8188     5.2471 H      1 <0>       0.0900
   35 H35       2.7107     5.7836     6.3373 H      1 <0>       0.0900
   36 H36       3.5970     5.1859     4.9234 H      1 <0>       0.0700
   37 H37       1.7720     7.6257     5.0152 H      1 <0>       0.0800
   38 H38       3.5470     7.6299     4.8848 H      1 <0>       0.0800
   39 H39       2.0754     6.3137    -0.7153 H      1 <0>       0.1300
   40 H40       3.1682     8.3401     0.1332 H      1 <0>       0.1200
   41 H41       3.4555     8.7740     2.5155 H      1 <0>       0.1200
   42 H42       0.5598     2.1802    -2.8007 H      1 <0>       0.1700
   43 H43       2.5175     1.6716    -4.3487 H      1 <0>       0.4200
   44 H44       5.3041     1.0121    -4.1060 H      1 <0>       0.1200
   45 H45       7.0232     0.6470    -2.3929 H      1 <0>       0.1300
   46 H46       6.4701     0.8430    -0.0059 H      1 <0>       0.1200
   47 H47       4.1978     1.4055     0.6973 H      1 <0>       0.1200
@<TRIPOS>BOND
   1    1    2 2
   2    2   20 1
   3    2    3 am
   4    3    4 am
   5    3   31 1
   6    4    5 2
   7    4    6 1
   8    6    7 1
   9    6    8 1
  10    6   20 1
  11    8   16 1
  12    8    9 2
  13    9   10 1
  14    9   32 1
  15   10   15 1
  16   10   11 1
  17   11   12 1
  18   11   33 1
  19   11   34 1
  20   12   13 1
  21   12   35 1
  22   12   36 1
  23   13   14 1
  24   13   37 1
  25   13   38 1
  26   14   19 ar
  27   14   15 ar
  28   15   16 ar
  29   16   17 ar
  30   17   18 ar
  31   17   39 1
  32   18   19 ar
  33   18   40 1
  34   19   41 1
  35   20   21 1
  36   20   22 1
  37   22   30 1
  38   22   23 2
  39   23   24 1
  40   23   42 1
  41   24   25 1
  42   24   43 1
  43   25   30 ar
  44   25   26 ar
  45   26   27 ar
  46   26   44 1
  47   27   28 ar
  48   27   45 1
  49   28   29 ar
  50   28   46 1
  51   29   30 ar
  52   29   47 1
