@<TRIPOS>MOLECULE
ZINC000020509316
68    72    1     0     0
SMALL
USER_CHARGES
@<TRIPOS>ATOM
1      O1      0.6752   -0.9357    0.3154 O.2      1 ZINC000020509316   -0.4900
2      C2      0.1574    0.1594    0.3757 C.2      1 ZINC000020509316    0.5200
3      C3      0.9971    1.4000    0.2124 C.3      1 ZINC000020509316   -0.1300
4      C4      2.4566    1.0015   -0.0160 C.3      1 ZINC000020509316    0.0100
5      C5      2.5769    0.2635   -1.3244 C.ar     1 ZINC000020509316   -0.0700
6      C6      3.1999   -0.9698   -1.3675 C.ar     1 ZINC000020509316   -0.0900
7      C7      3.3103   -1.6468   -2.5677 C.ar     1 ZINC000020509316   -0.1200
8      C8      2.7973   -1.0907   -3.7246 C.ar     1 ZINC000020509316   -0.1200
9      C9      2.1735    0.1421   -3.6814 C.ar     1 ZINC000020509316   -0.1200
10     C10     2.0593    0.8172   -2.4804 C.ar     1 ZINC000020509316   -0.1300
11     C11     3.3148    2.2395   -0.0568 C.ar     1 ZINC000020509316   -0.0800
12     C12     2.9795    3.2857   -0.8959 C.ar     1 ZINC000020509316   -0.1200
13     C13     3.7668    4.4213   -0.9334 C.ar     1 ZINC000020509316   -0.1200
14     C14     4.8891    4.5110   -0.1314 C.ar     1 ZINC000020509316   -0.1200
15     C15     5.2240    3.4653    0.7084 C.ar     1 ZINC000020509316   -0.1100
16     C16     4.4343    2.3314    0.7489 C.ar     1 ZINC000020509316   -0.1100
17     N17    -1.1700    0.2666    0.5833 N.am     1 ZINC000020509316   -0.6400
18     C18    -1.8205    1.5842    0.6539 C.3      1 ZINC000020509316    0.0900
19     C19    -3.0280    1.5809   -0.2894 C.3      1 ZINC000020509316   -0.0300
20     N20    -3.9062    0.4527    0.0452 N.4      1 ZINC000020509316   -0.3800
21     H21    -4.1661    0.5075    1.0186 H        1 ZINC000020509316    0.4200
22     C22    -5.1154    0.5123   -0.7868 C.3      1 ZINC000020509316    0.1300
23     C23    -6.0180   -0.6450   -0.4448 C.ar     1 ZINC000020509316   -0.1300
24     C24    -6.1774   -1.0313    0.8729 C.ar     1 ZINC000020509316   -0.1200
25     C25    -7.0054   -2.0929    1.1866 C.ar     1 ZINC000020509316   -0.1000
26     C26    -7.6743   -2.7679    0.1827 C.ar     1 ZINC000020509316   -0.0900
27     C27    -7.5156   -2.3810   -1.1349 C.ar     1 ZINC000020509316   -0.1000
28     C28    -6.6910   -1.3167   -1.4482 C.ar     1 ZINC000020509316   -0.0900
29     C29    -5.8400    1.8081   -0.5279 C.ar     1 ZINC000020509316   -0.1300
30     C30    -5.9258    2.3069    0.7585 C.ar     1 ZINC000020509316   -0.1200
31     C31    -6.5904    3.4954    0.9960 C.ar     1 ZINC000020509316   -0.1000
32     C32    -7.1688    4.1855   -0.0529 C.ar     1 ZINC000020509316   -0.0900
33     C33    -7.0822    3.6871   -1.3394 C.ar     1 ZINC000020509316   -0.1000
34     C34    -6.4139    2.5007   -1.5775 C.ar     1 ZINC000020509316   -0.0900
35     C35    -3.2080   -0.8151   -0.2025 C.3      1 ZINC000020509316   -0.0200
36     C36    -2.0104   -0.9307    0.7396 C.3      1 ZINC000020509316    0.0900
37     H37     0.6383    1.9715   -0.6436 H        1 ZINC000020509316    0.1000
38     H38     0.9236    2.0097    1.1129 H        1 ZINC000020509316    0.1100
39     H39     2.7885    0.3560    0.7971 H        1 ZINC000020509316    0.1000
40     H40     3.6007   -1.4042   -0.4636 H        1 ZINC000020509316    0.1200
41     H41     3.7977   -2.6100   -2.6015 H        1 ZINC000020509316    0.1200
42     H42     2.8842   -1.6193   -4.6624 H        1 ZINC000020509316    0.1200
43     H43     1.7731    0.5767   -4.5853 H        1 ZINC000020509316    0.1200
44     H44     1.5720    1.7803   -2.4466 H        1 ZINC000020509316    0.1200
45     H45     2.1026    3.2156   -1.5225 H        1 ZINC000020509316    0.1200
46     H46     3.5051    5.2383   -1.5894 H        1 ZINC000020509316    0.1200
47     H47     5.5046    5.3980   -0.1612 H        1 ZINC000020509316    0.1200
48     H48     6.1010    3.5352    1.3347 H        1 ZINC000020509316    0.1300
49     H49     4.6959    1.5144    1.4050 H        1 ZINC000020509316    0.1200
50     H50    -2.1534    1.7741    1.6743 H        1 ZINC000020509316    0.1000
51     H51    -1.1167    2.3572    0.3453 H        1 ZINC000020509316    0.1300
52     H52    -3.5783    2.5152   -0.1785 H        1 ZINC000020509316    0.1500
53     H53    -2.6845    1.4812   -1.3190 H        1 ZINC000020509316    0.1400
54     H54    -4.8357    0.4564   -1.8389 H        1 ZINC000020509316    0.1500
55     H55    -5.6548   -0.5039    1.6572 H        1 ZINC000020509316    0.1100
56     H56    -7.1293   -2.3951    2.2160 H        1 ZINC000020509316    0.1400
57     H57    -8.3206   -3.5977    0.4278 H        1 ZINC000020509316    0.1400
58     H58    -8.0380   -2.9086   -1.9192 H        1 ZINC000020509316    0.1400
59     H59    -6.5670   -1.0144   -2.4776 H        1 ZINC000020509316    0.1300
60     H60    -5.4739    1.7677    1.5779 H        1 ZINC000020509316    0.1100
61     H61    -6.6581    3.8848    2.0011 H        1 ZINC000020509316    0.1400
62     H62    -7.6887    5.1137    0.1328 H        1 ZINC000020509316    0.1400
63     H63    -7.5344    4.2261   -2.1588 H        1 ZINC000020509316    0.1400
64     H64    -6.3462    2.1114   -2.5826 H        1 ZINC000020509316    0.1300
65     H65    -3.8910   -1.6464   -0.0276 H        1 ZINC000020509316    0.1400
66     H66    -2.8591   -0.8423   -1.2348 H        1 ZINC000020509316    0.1400
67     H67    -1.4326   -1.8206    0.4900 H        1 ZINC000020509316    0.1400
68     H68    -2.3597   -0.9943    1.7701 H        1 ZINC000020509316    0.0900
@<TRIPOS>BOND
1     1     2     2
2     2     3     1
3     2     17    am
4     3     4     1
5     3     37    1
6     3     38    1
7     4     5     1
8     4     11    1
9     4     39    1
10    5     10    ar
11    5     6     ar
12    6     7     ar
13    6     40    1
14    7     8     ar
15    7     41    1
16    8     9     ar
17    8     42    1
18    9     10    ar
19    9     43    1
20    10    44    1
21    11    16    ar
22    11    12    ar
23    12    13    ar
24    12    45    1
25    13    14    ar
26    13    46    1
27    14    15    ar
28    14    47    1
29    15    16    ar
30    15    48    1
31    16    49    1
32    17    36    1
33    17    18    1
34    18    19    1
35    18    50    1
36    18    51    1
37    19    20    1
38    19    52    1
39    19    53    1
40    20    21    1
41    20    22    1
42    20    35    1
43    22    23    1
44    22    29    1
45    22    54    1
46    23    28    ar
47    23    24    ar
48    24    25    ar
49    24    55    1
50    25    26    ar
51    25    56    1
52    26    27    ar
53    26    57    1
54    27    28    ar
55    27    58    1
56    28    59    1
57    29    34    ar
58    29    30    ar
59    30    31    ar
60    30    60    1
61    31    32    ar
62    31    61    1
63    32    33    ar
64    32    62    1
65    33    34    ar
66    33    63    1
67    34    64    1
68    35    36    1
69    35    65    1
70    35    66    1
71    36    67    1
72    36    68    1
@<TRIPOS>SUBSTRUCTURE
1   ZINC000020509316 1     RESIDUE    1   A     ZIN   1
