@<TRIPOS>MOLECULE
ZINC000043152599
  53   56    0    0    0
SMALL
USER_CHARGES
NO_NAME
@<TRIPOS>ATOM
    1 C1       -0.5105     1.4515    -1.3826 C.3    1 <0>       0.0200
    2 O2       -0.5124     0.0238    -1.4433 O.3    1 <0>      -0.3200
    3 C3       -1.4595    -0.6234    -0.7146 C.ar   1 <0>       0.1500
    4 C4       -2.3718     0.1019     0.0386 C.ar   1 <0>      -0.2000
    5 C5       -3.3358    -0.5548     0.7802 C.ar   1 <0>      -0.0500
    6 C6       -3.3943    -1.9347     0.7743 C.ar   1 <0>      -0.1400
    7 C7       -2.4835    -2.6663     0.0216 C.ar   1 <0>       0.1600
    8 N8       -2.5429    -4.0627     0.0151 N.pl3  1 <0>      -0.6300
    9 C9       -3.7618    -4.7028     0.1275 C.2    1 <0>       0.5000
   10 N10      -4.8861    -4.0057     0.1325 N.2    1 <0>      -0.5700
   11 C11      -6.0741    -4.5983     0.2397 C.2    1 <0>       0.3400
   12 N12      -6.2008    -5.8923     0.3459 N.2    1 <0>      -0.3200
   13 N13      -5.0628    -6.7112     0.3496 N.pl3  1 <0>      -0.2100
   14 C14      -4.8864    -8.0423     0.4433 C.2    1 <0>       0.0700
   15 C15      -3.5566    -8.3194     0.3956 C.2    1 <0>      -0.1400
   16 C16      -2.8706    -7.1107     0.2664 C.2    1 <0>      -0.2000
   17 C17      -1.3771    -6.9310     0.1741 C.3    1 <0>       0.0700
   18 N18      -0.8502    -6.5295     1.4852 N.4    1 <0>      -0.3900
   19 H19      -1.3363    -5.7046     1.8036 H      1 <0>       0.4300
   20 C20      -1.0554    -7.6185     2.4477 C.3    1 <0>      -0.0300
   21 C21      -0.5820    -7.1753     3.8337 C.3    1 <0>      -0.1600
   22 C22       0.9067    -6.8220     3.7698 C.3    1 <0>       0.0200
   23 H23       1.2355    -6.4518     4.7409 H      1 <0>       0.1800
   24 N24       1.6806    -8.0184     3.4125 N.4    1 <0>      -0.6400
   25 H25       1.3773    -8.3587     2.5124 H      1 <0>       0.4200
   26 H26       2.6612    -7.7846     3.3707 H      1 <0>       0.4500
   27 H27       1.5348    -8.7337     4.1091 H      1 <0>       0.4600
   28 C28       1.1189    -5.7374     2.7097 C.3    1 <0>       0.0800
   29 H29       2.1832    -5.5202     2.6192 H      1 <0>       0.1300
   30 O30       0.4209    -4.5512     3.0943 O.3    1 <0>      -0.5400
   31 C31       0.5829    -6.2356     1.3658 C.3    1 <0>      -0.0700
   32 C32      -3.8235    -6.1113     0.2328 C.2    1 <0>      -0.0600
   33 C33      -1.5183    -2.0082    -0.7278 C.ar   1 <0>      -0.1800
   34 H34       0.2931     1.8407    -2.0079 H      1 <0>       0.1100
   35 H35      -1.4669     1.8317    -1.7418 H      1 <0>       0.0600
   36 H36      -0.3564     1.7712    -0.3520 H      1 <0>       0.0600
   37 H37      -2.3284     1.1810     0.0455 H      1 <0>       0.1400
   38 H38      -4.0443     0.0122     1.3658 H      1 <0>       0.1400
   39 H39      -4.1480    -2.4454     1.3553 H      1 <0>       0.1400
   40 H40      -1.7281    -4.5824    -0.0684 H      1 <0>       0.4000
   41 H41      -6.9637    -3.9859     0.2389 H      1 <0>       0.2400
   42 H42      -5.6754    -8.7733     0.5409 H      1 <0>       0.2000
   43 H43      -3.1097    -9.3012     0.4485 H      1 <0>       0.1700
   44 H44      -0.9163    -7.8707    -0.1304 H      1 <0>       0.1600
   45 H45      -1.1488    -6.1594    -0.5611 H      1 <0>       0.1300
   46 H46      -2.1149    -7.8710     2.4897 H      1 <0>       0.1600
   47 H47      -0.4866    -8.4933     2.1326 H      1 <0>       0.1300
   48 H48      -1.1504    -6.3006     4.1499 H      1 <0>       0.1400
   49 H49      -0.7335    -7.9858     4.5465 H      1 <0>       0.1400
   50 H50       0.5115    -3.8208     2.4671 H      1 <0>       0.4200
   51 H51       1.1174    -7.1398     1.0746 H      1 <0>       0.1400
   52 H52       0.7321    -5.4665     0.6079 H      1 <0>       0.1600
   53 H53      -0.8093    -2.5743    -1.3137 H      1 <0>       0.1300
@<TRIPOS>BOND
   1    1    2 1
   2    1   34 1
   3    1   35 1
   4    1   36 1
   5    2    3 1
   6    3   33 ar
   7    3    4 ar
   8    4    5 ar
   9    4   37 1
  10    5    6 ar
  11    5   38 1
  12    6    7 ar
  13    6   39 1
  14    7    8 1
  15    7   33 ar
  16    8    9 1
  17    8   40 1
  18    9   32 1
  19    9   10 2
  20   10   11 1
  21   11   12 2
  22   11   41 1
  23   12   13 1
  24   13   32 1
  25   13   14 1
  26   14   15 2
  27   14   42 1
  28   15   16 1
  29   15   43 1
  30   16   17 1
  31   16   32 2
  32   17   18 1
  33   17   44 1
  34   17   45 1
  35   18   19 1
  36   18   31 1
  37   18   20 1
  38   20   21 1
  39   20   46 1
  40   20   47 1
  41   21   22 1
  42   21   48 1
  43   21   49 1
  44   22   23 1
  45   22   24 1
  46   22   28 1
  47   24   25 1
  48   24   26 1
  49   24   27 1
  50   28   29 1
  51   28   30 1
  52   28   31 1
  53   30   50 1
  54   31   51 1
  55   31   52 1
  56   33   53 1
