@<TRIPOS>MOLECULE
ZINC000003963096
69    71    1     0     0
SMALL
USER_CHARGES
@<TRIPOS>ATOM
1      C1     -0.1769    1.5039   -0.5657 C.3      1 ZINC000003963096   -0.1700
2      C2     -0.1607   -0.0030   -0.5813 C.2      1 ZINC000003963096    0.5100
3      O3      0.7480   -0.5940   -1.1254 O.2      1 ZINC000003963096   -0.5200
4      N4     -1.1558   -0.6938    0.0094 N.am     1 ZINC000003963096   -0.6800
5      C5     -1.1926   -2.0891   -0.0881 C.ar     1 ZINC000003963096    0.1700
6      C6     -0.0096   -2.8172   -0.0916 C.ar     1 ZINC000003963096   -0.1500
7      C7     -0.0448   -4.1952   -0.1878 C.ar     1 ZINC000003963096   -0.0700
8      C8     -1.2556   -4.8534   -0.2803 C.ar     1 ZINC000003963096   -0.1800
9      C9     -2.4429   -4.1309   -0.2769 C.ar     1 ZINC000003963096    0.1300
10     N10    -3.6670   -4.7970   -0.3700 N.3      1 ZINC000003963096   -0.4900
11     C11    -4.5390   -4.4572    0.7631 C.3      1 ZINC000003963096    0.0600
12     C12    -5.8955   -5.1428    0.5830 C.3      1 ZINC000003963096    0.0600
13     N13    -5.6985   -6.5962    0.4911 N.3      1 ZINC000003963096   -0.5400
14     C14    -6.9859   -7.2968    0.3932 C.3      1 ZINC000003963096    0.0600
15     C15    -6.7607   -8.8020    0.5502 C.3      1 ZINC000003963096   -0.1200
16     C16    -8.1016   -9.5317    0.4482 C.3      1 ZINC000003963096   -0.1300
17     C17    -7.8763  -11.0369    0.6052 C.3      1 ZINC000003963096    0.1100
18     N18    -9.1603  -11.7356    0.5075 N.am     1 ZINC000003963096   -1.1200
19     S19    -9.1953  -13.3739    0.2686 S.o2     1 ZINC000003963096    2.6100
20     O20   -10.5794  -13.6887    0.2013 O.2      1 ZINC000003963096   -0.9600
21     O21    -8.3412  -13.5836   -0.8475 O.2      1 ZINC000003963096   -0.9500
22     C22    -8.4575  -14.0667    1.7740 C.3      1 ZINC000003963096   -0.6200
23     C23    -8.4327  -15.5932    1.6739 C.3      1 ZINC000003963096   -0.0800
24     C24    -7.5013  -16.0146    0.5356 C.3      1 ZINC000003963096   -0.1500
25     C25    -7.4765  -17.5412    0.4355 C.3      1 ZINC000003963096   -0.1200
26     C26    -6.9703  -18.1306    1.7535 C.3      1 ZINC000003963096   -0.1200
27     C27    -7.9017  -17.7091    2.8918 C.3      1 ZINC000003963096   -0.1200
28     C28    -7.9264  -16.1826    2.9919 C.3      1 ZINC000003963096   -0.1100
29     C29    -4.8265   -6.9360   -0.6419 C.3      1 ZINC000003963096    0.0500
30     C30    -3.4700   -6.2504   -0.4618 C.3      1 ZINC000003963096    0.0500
31     C31    -2.4109   -2.7473   -0.1756 C.ar     1 ZINC000003963096   -0.1700
32     H32     0.7017    1.8821   -1.0882 H        1 ZINC000003963096    0.1000
33     H33    -1.0779    1.8627   -1.0633 H        1 ZINC000003963096    0.0900
34     H34    -0.1664    1.8567    0.4655 H        1 ZINC000003963096    0.0900
35     H35    -1.8466   -0.2236    0.5020 H        1 ZINC000003963096    0.4100
36     H36     0.9388   -2.3056   -0.0194 H        1 ZINC000003963096    0.1400
37     H37     0.8765   -4.7588   -0.1910 H        1 ZINC000003963096    0.1300
38     H38    -1.2798   -5.9305   -0.3557 H        1 ZINC000003963096    0.1300
39     H39    -4.0794   -4.7984    1.6907 H        1 ZINC000003963096    0.0500
40     H40    -4.6798   -3.3771    0.8024 H        1 ZINC000003963096    0.0900
41     H41    -6.5340   -4.9156    1.4367 H        1 ZINC000003963096    0.0800
42     H42    -6.3672   -4.7813   -0.3308 H        1 ZINC000003963096    0.0500
43     H43    -7.6519   -6.9450    1.1811 H        1 ZINC000003963096    0.0800
44     H44    -7.4357   -7.0962   -0.5792 H        1 ZINC000003963096    0.0400
45     H45    -6.0947   -9.1538   -0.2378 H        1 ZINC000003963096    0.0700
46     H46    -6.3109   -9.0026    1.5225 H        1 ZINC000003963096    0.0800
47     H47    -8.7675   -9.1799    1.2361 H        1 ZINC000003963096    0.0700
48     H48    -8.5514   -9.3311   -0.5242 H        1 ZINC000003963096    0.0700
49     H49    -7.2104  -11.3887   -0.1828 H        1 ZINC000003963096    0.0800
50     H50    -7.4266  -11.2375    1.5775 H        1 ZINC000003963096    0.0700
51     H51    -9.9899  -11.2386    0.5828 H        1 ZINC000003963096    0.4200
52     H52    -7.4394  -13.6933    1.8846 H        1 ZINC000003963096    0.1300
53     H53    -9.0497  -13.7689    2.6392 H        1 ZINC000003963096    0.1300
54     H54    -9.4394  -15.9606    1.4745 H        1 ZINC000003963096    0.0800
55     H55    -7.8620  -15.5947   -0.4034 H        1 ZINC000003963096    0.0800
56     H56    -6.4946  -15.6473    0.7349 H        1 ZINC000003963096    0.0700
57     H57    -8.4832  -17.9086    0.2361 H        1 ZINC000003963096    0.0600
58     H58    -6.8130  -17.8414   -0.3755 H        1 ZINC000003963096    0.0700
59     H59    -6.9526  -19.2181    1.6821 H        1 ZINC000003963096    0.0600
60     H60    -5.9636  -17.7632    1.9528 H        1 ZINC000003963096    0.0600
61     H61    -8.9084  -18.0765    2.6924 H        1 ZINC000003963096    0.0600
62     H62    -7.5410  -18.1291    3.8307 H        1 ZINC000003963096    0.0700
63     H63    -6.9198  -15.8152    3.1912 H        1 ZINC000003963096    0.0700
64     H64    -8.5900  -15.8824    3.8028 H        1 ZINC000003963096    0.0700
65     H65    -4.6856   -8.0162   -0.6813 H        1 ZINC000003963096    0.0900
66     H66    -5.2860   -6.5949   -1.5696 H        1 ZINC000003963096    0.0500
67     H67    -2.8315   -6.4776   -1.3155 H        1 ZINC000003963096    0.0900
68     H68    -2.9983   -6.6119    0.4519 H        1 ZINC000003963096    0.0600
69     H69    -3.3321   -2.1835   -0.1723 H        1 ZINC000003963096    0.1300
@<TRIPOS>BOND
1     1     2     1
2     1     32    1
3     1     33    1
4     1     34    1
5     2     3     2
6     2     4     am
7     4     5     1
8     4     35    1
9     5     31    ar
10    5     6     ar
11    6     7     ar
12    6     36    1
13    7     8     ar
14    7     37    1
15    8     9     ar
16    8     38    1
17    9     10    1
18    9     31    ar
19    10    30    1
20    10    11    1
21    11    12    1
22    11    39    1
23    11    40    1
24    12    13    1
25    12    41    1
26    12    42    1
27    13    14    1
28    13    29    1
29    14    15    1
30    14    43    1
31    14    44    1
32    15    16    1
33    15    45    1
34    15    46    1
35    16    17    1
36    16    47    1
37    16    48    1
38    17    18    1
39    17    49    1
40    17    50    1
41    18    19    am
42    18    51    1
43    19    20    2
44    19    21    2
45    19    22    1
46    22    23    1
47    22    52    1
48    22    53    1
49    23    28    1
50    23    24    1
51    23    54    1
52    24    25    1
53    24    55    1
54    24    56    1
55    25    26    1
56    25    57    1
57    25    58    1
58    26    27    1
59    26    59    1
60    26    60    1
61    27    28    1
62    27    61    1
63    27    62    1
64    28    63    1
65    28    64    1
66    29    30    1
67    29    65    1
68    29    66    1
69    30    67    1
70    30    68    1
71    31    69    1
@<TRIPOS>SUBSTRUCTURE
1   ZINC000003963096 1     RESIDUE    1   A     ZIN   1
