@<TRIPOS>MOLECULE
ZINC000253637382
39    42    1     0     0
SMALL
USER_CHARGES
@<TRIPOS>ATOM
1      O1      0.0021   -0.0041    0.0020 O.co2    1 ZINC000253637382   -0.9400
2      P2     -0.0189    1.5408    0.0105 P.3      1 ZINC000253637382    2.1400
3      O3     -0.7903    2.0642   -1.2215 O.co2    1 ZINC000253637382   -1.0600
4      O4     -0.7112    2.0730    1.3610 O.3      1 ZINC000253637382   -0.7300
5      C5     -0.6269    1.4279    2.6213 C.3      1 ZINC000253637382    0.1400
6      H6     -1.3223    1.9461    3.2816 H        1 ZINC000253637382    0.1000
7      C7      0.7230    1.5105    3.2692 C.3      1 ZINC000253637382    0.1300
8      H8      0.8159    2.5509    3.5806 H        1 ZINC000253637382    0.0500
9      O9      1.8348    1.2856    2.4452 O.3      1 ZINC000253637382   -0.7200
10     P10     2.3776    2.3434    1.3526 P.3      1 ZINC000253637382    2.2300
11     O11     2.1401    3.7875    1.8477 O.co2    1 ZINC000253637382   -1.1200
12     O12     3.8829    2.1126    1.0920 O.co2    1 ZINC000253637382   -1.0900
13     O13     1.5187    2.1230   -0.0010 O.3      1 ZINC000253637382   -1.0400
14     C14     0.7861    0.7176    4.5722 C.3      1 ZINC000253637382    0.1400
15     H15     0.0390    1.1379    5.2455 H        1 ZINC000253637382    0.0900
16     O16     2.0859    0.9548    5.1603 O.3      1 ZINC000253637382   -0.7300
17     P17     2.7698   -0.0383    6.2205 P.3      1 ZINC000253637382    2.2500
18     O18     4.0289    0.6242    6.8227 O.co2    1 ZINC000253637382   -1.0900
19     O19     1.7662   -0.3757    7.3457 O.co2    1 ZINC000253637382   -1.1100
20     O20     3.1872   -1.3973    5.4243 O.3      1 ZINC000253637382   -1.0700
21     P21     2.3075   -2.4688    4.6228 P.3      1 ZINC000253637382    2.2200
22     O22     3.2094   -3.3815    3.7623 O.co2    1 ZINC000253637382   -1.0800
23     O23     1.4526   -3.3108    5.5961 O.co2    1 ZINC000253637382   -1.0900
24     O24     1.3467   -1.5283    3.6654 O.3      1 ZINC000253637382   -0.6700
25     C25     0.4270   -0.7086    4.3340 C.3      1 ZINC000253637382    0.0900
26     H26     0.3541   -1.1342    5.3348 H        1 ZINC000253637382    0.0400
27     C27    -0.9732   -0.8811    3.7426 C.3      1 ZINC000253637382    0.1500
28     H28    -1.7177   -0.6019    4.4881 H        1 ZINC000253637382    0.0700
29     O29    -1.1101   -2.2695    3.4320 O.3      1 ZINC000253637382   -0.7300
30     P30    -2.4339   -3.0456    2.9588 P.3      1 ZINC000253637382    2.2300
31     O31    -2.3351   -4.5475    3.3071 O.co2    1 ZINC000253637382   -1.0800
32     O32    -3.6892   -2.4218    3.6086 O.co2    1 ZINC000253637382   -1.1100
33     O33    -2.4563   -2.8302    1.3162 O.3      1 ZINC000253637382   -1.0500
34     P34    -2.2517   -1.4298    0.6025 P.3      1 ZINC000253637382    2.1700
35     O35    -1.9458   -1.6573   -0.8947 O.co2    1 ZINC000253637382   -1.0700
36     O36    -3.5416   -0.5907    0.7406 O.co2    1 ZINC000253637382   -1.1300
37     O37    -1.0166   -0.6317    1.2894 O.3      1 ZINC000253637382   -0.5700
38     C38    -1.1283    0.0213    2.4959 C.3      1 ZINC000253637382    0.0500
39     H39    -2.2007    0.2143    2.5256 H        1 ZINC000253637382    0.0000
@<TRIPOS>BOND
1     1     2     ar
2     2     13    1
3     2     3     ar
4     2     4     1
5     4     5     1
6     5     6     1
7     5     38    1
8     5     7     1
9     7     8     1
10    7     9     1
11    7     14    1
12    9     10    1
13    10    11    ar
14    10    12    ar
15    10    13    1
16    14    15    1
17    14    25    1
18    14    16    1
19    16    17    1
20    17    18    ar
21    17    19    ar
22    17    20    1
23    20    21    1
24    21    22    ar
25    21    23    ar
26    21    24    1
27    24    25    1
28    25    26    1
29    25    27    1
30    27    28    1
31    27    38    1
32    27    29    1
33    29    30    1
34    30    31    ar
35    30    32    ar
36    30    33    1
37    33    34    1
38    34    35    ar
39    34    36    ar
40    34    37    1
41    37    38    1
42    38    39    1
@<TRIPOS>SUBSTRUCTURE
1   ZINC000253637382 1     RESIDUE    1   A     ZIN   1
