@<TRIPOS>MOLECULE
ZINC000011616142
58    59    1     0     0
SMALL
USER_CHARGES
@<TRIPOS>ATOM
1      C1      0.0245    1.5483   -0.1689 C.3      1 ZINC000011616142    0.0300
2      N2      0.0427    0.0795   -0.1510 N.3      1 ZINC000011616142   -0.6900
3      C3     -1.3221   -0.4637   -0.1309 C.3      1 ZINC000011616142    0.1400
4      C4     -1.2632   -1.9694   -0.1130 C.2      1 ZINC000011616142    0.0000
5      C5     -1.2271   -2.7422    0.9874 C.2      1 ZINC000011616142   -0.1900
6      C6     -1.1771   -4.0839    0.5442 C.2      1 ZINC000011616142   -0.1800
7      C7     -1.1856   -4.0507   -0.8005 C.2      1 ZINC000011616142   -0.0100
8      C8     -1.1445   -5.2501   -1.7119 C.3      1 ZINC000011616142   -0.0100
9      S9     -2.8369   -5.7970   -2.0684 S.3      1 ZINC000011616142   -0.2100
10     C10    -2.5834   -7.2238   -3.1597 C.3      1 ZINC000011616142   -0.1200
11     C11    -3.9399   -7.8093   -3.5570 C.3      1 ZINC000011616142    0.1600
12     N12    -3.7351   -8.9615   -4.4383 N.pl3    1 ZINC000011616142   -0.7000
13     C13    -4.8175   -9.6544   -4.9266 C.2      1 ZINC000011616142    0.7500
14     N14    -6.0259   -9.2862   -4.6055 N.am     1 ZINC000011616142   -1.0500
15     S15    -7.3310  -10.0301   -5.3024 S.o2     1 ZINC000011616142    2.5600
16     C16    -8.7643   -9.1160   -4.6696 C.3      1 ZINC000011616142   -0.6300
17     O17    -7.1655   -9.7967   -6.6943 O.2      1 ZINC000011616142   -0.9900
18     O18    -7.3069  -11.3485   -4.7727 O.2      1 ZINC000011616142   -0.9800
19     N19    -4.6254  -10.7357   -5.7537 N.pl3    1 ZINC000011616142   -0.7500
20     C20    -3.2691  -11.2185   -6.0251 C.3      1 ZINC000011616142    0.0800
21     C21    -3.3407  -12.4955   -6.8647 C.3      1 ZINC000011616142    0.1400
22     H22    -3.8461  -12.2830   -7.8068 H        1 ZINC000011616142    0.1200
23     O23    -4.0681  -13.4959   -6.1491 O.3      1 ZINC000011616142   -0.5400
24     C24    -1.9456  -12.9921   -7.1439 C.ar     1 ZINC000011616142   -0.1300
25     C25    -1.3026  -13.7981   -6.2226 C.ar     1 ZINC000011616142   -0.0900
26     C26    -0.0237  -14.2546   -6.4761 C.ar     1 ZINC000011616142   -0.1400
27     C27     0.6154  -13.9040   -7.6565 C.ar     1 ZINC000011616142    0.1100
28     O28     1.8734  -14.3522   -7.9085 O.3      1 ZINC000011616142   -0.5000
29     C29    -0.0320  -13.0956   -8.5795 C.ar     1 ZINC000011616142   -0.1400
30     C30    -1.3128  -12.6456   -8.3234 C.ar     1 ZINC000011616142   -0.0900
31     O31    -1.2437   -2.7676   -1.1930 O.3      1 ZINC000011616142   -0.1700
32     H32     1.0475    1.9242   -0.1836 H        1 ZINC000011616142    0.0700
33     H33    -0.5026    1.8943   -1.0580 H        1 ZINC000011616142    0.0300
34     H34    -0.4850    1.9162    0.7217 H        1 ZINC000011616142    0.0700
35     H35     0.5655   -0.2852   -0.9332 H        1 ZINC000011616142    0.3500
36     H36    -1.8409   -0.1097    0.7599 H        1 ZINC000011616142    0.1100
37     H37    -1.8584   -0.1316   -1.0198 H        1 ZINC000011616142    0.0500
38     H38    -1.2343   -2.4029    2.0127 H        1 ZINC000011616142    0.1500
39     H39    -1.1390   -4.9661    1.1660 H        1 ZINC000011616142    0.1500
40     H40    -0.6456   -4.9818   -2.6432 H        1 ZINC000011616142    0.1000
41     H41    -0.5966   -6.0573   -1.2257 H        1 ZINC000011616142    0.1100
42     H42    -2.0485   -6.9061   -4.0547 H        1 ZINC000011616142    0.0900
43     H43    -1.9995   -7.9816   -2.6372 H        1 ZINC000011616142    0.0900
44     H44    -4.4748   -8.1270   -2.6620 H        1 ZINC000011616142    0.0900
45     H45    -4.5238   -7.0515   -4.0795 H        1 ZINC000011616142    0.0900
46     H46    -2.8359   -9.2356   -4.6773 H        1 ZINC000011616142    0.4100
47     H47    -8.6870   -8.0695   -4.9646 H        1 ZINC000011616142    0.1300
48     H48    -9.6785   -9.5431   -5.0819 H        1 ZINC000011616142    0.1300
49     H49    -8.7888   -9.1860   -3.5822 H        1 ZINC000011616142    0.1300
50     H50    -5.3878  -11.1790   -6.1575 H        1 ZINC000011616142    0.4200
51     H51    -2.7143  -10.4554   -6.5709 H        1 ZINC000011616142    0.0800
52     H52    -2.7638  -11.4309   -5.0830 H        1 ZINC000011616142    0.0800
53     H53    -3.6750  -13.7352   -5.2986 H        1 ZINC000011616142    0.3800
54     H54    -1.8006  -14.0707   -5.3038 H        1 ZINC000011616142    0.1300
55     H55     0.4784  -14.8835   -5.7559 H        1 ZINC000011616142    0.1300
56     H56     1.9033  -15.1986   -8.3751 H        1 ZINC000011616142    0.3900
57     H57     0.4635  -12.8211   -9.4990 H        1 ZINC000011616142    0.1300
58     H58    -1.8174  -12.0165   -9.0418 H        1 ZINC000011616142    0.1300
@<TRIPOS>BOND
1     1     2     1
2     1     32    1
3     1     33    1
4     1     34    1
5     2     3     1
6     2     35    1
7     3     4     1
8     3     36    1
9     3     37    1
10    4     31    1
11    4     5     2
12    5     6     1
13    5     38    1
14    6     7     2
15    6     39    1
16    7     8     1
17    7     31    1
18    8     9     1
19    8     40    1
20    8     41    1
21    9     10    1
22    10    11    1
23    10    42    1
24    10    43    1
25    11    12    1
26    11    44    1
27    11    45    1
28    12    13    1
29    12    46    1
30    13    14    2
31    13    19    1
32    14    15    am
33    15    16    1
34    15    17    2
35    15    18    2
36    16    47    1
37    16    48    1
38    16    49    1
39    19    20    1
40    19    50    1
41    20    21    1
42    20    51    1
43    20    52    1
44    21    22    1
45    21    23    1
46    21    24    1
47    23    53    1
48    24    30    ar
49    24    25    ar
50    25    26    ar
51    25    54    1
52    26    27    ar
53    26    55    1
54    27    28    1
55    27    29    ar
56    28    56    1
57    29    30    ar
58    29    57    1
59    30    58    1
@<TRIPOS>SUBSTRUCTURE
1   ZINC000011616142 1     RESIDUE    1   A     ZIN   1
