@<TRIPOS>MOLECULE
ZINC000100782996
96    97    1     0     0
SMALL
USER_CHARGES
@<TRIPOS>ATOM
1      C1     -0.7753    0.2832   -0.7871 C.3      1 ZINC000100782996   -0.1300
2      C2     -0.4661   -1.1904   -0.8498 C.2      1 ZINC000100782996   -0.0900
3      C3     -0.6103   -1.9840    0.2919 C.2      1 ZINC000100782996   -0.1000
4      C4     -1.0359   -1.4179    1.4766 C.2      1 ZINC000100782996   -0.1300
5      C5     -1.1801   -2.2115    2.6183 C.2      1 ZINC000100782996   -0.1000
6      C6     -1.6058   -1.6454    3.8031 C.2      1 ZINC000100782996   -0.1000
7      C7     -1.9150   -0.1718    3.8658 C.3      1 ZINC000100782996   -0.1300
8      C8     -1.7499   -2.4389    4.9448 C.2      1 ZINC000100782996   -0.0700
9      C9     -2.1756   -1.8728    6.1295 C.2      1 ZINC000100782996   -0.1500
10     C10    -2.4298   -2.6833    7.2397 C.2      1 ZINC000100782996    0.0200
11     C11    -3.3378   -3.7126    7.1359 C.2      1 ZINC000100782996   -0.2100
12     C12    -4.0390   -3.9477    5.8228 C.3      1 ZINC000100782996   -0.1100
13     C13    -3.6223   -4.5428    8.2196 C.2      1 ZINC000100782996    0.3600
14     O14    -4.4304   -5.4429    8.0929 O.2      1 ZINC000100782996   -0.4600
15     C15    -2.9379   -4.3358    9.5456 C.3      1 ZINC000100782996    0.0600
16     H16    -2.0251   -4.9306    9.5809 H        1 ZINC000100782996    0.0900
17     O17    -3.8117   -4.7394   10.6018 O.3      1 ZINC000100782996   -0.5500
18     C18    -2.5890   -2.8534    9.7074 C.3      1 ZINC000100782996   -0.1000
19     C19    -1.7021   -2.4229    8.5323 C.3      1 ZINC000100782996   -0.0400
20     C20    -0.3955   -3.2185    8.5606 C.3      1 ZINC000100782996   -0.1400
21     C21    -1.3929   -0.9288    8.6467 C.3      1 ZINC000100782996   -0.1400
22     C22    -0.0404   -1.7565   -2.0346 C.2      1 ZINC000100782996   -0.1200
23     C23     0.1038   -0.9629   -3.1763 C.2      1 ZINC000100782996   -0.1200
24     C24     0.5294   -1.5290   -4.3610 C.2      1 ZINC000100782996   -0.1200
25     C25     0.6736   -0.7355   -5.5027 C.2      1 ZINC000100782996   -0.1200
26     C26     1.0993   -1.3016   -6.6875 C.2      1 ZINC000100782996   -0.0900
27     C27     1.2547   -0.4460   -7.9183 C.3      1 ZINC000100782996   -0.1200
28     C28     1.3861   -2.6684   -6.7456 C.2      1 ZINC000100782996   -0.1100
29     C29     1.8118   -3.2345   -7.9304 C.2      1 ZINC000100782996   -0.1300
30     C30     2.0986   -4.6014   -7.9885 C.2      1 ZINC000100782996   -0.1000
31     C31     2.5243   -5.1675   -9.1733 C.2      1 ZINC000100782996   -0.1000
32     C32     2.6797   -4.3119  -10.4042 C.3      1 ZINC000100782996   -0.1300
33     C33     2.8111   -6.5343   -9.2315 C.2      1 ZINC000100782996   -0.0700
34     C34     3.2368   -7.1004  -10.4163 C.2      1 ZINC000100782996   -0.1500
35     C35     3.6330   -8.4406  -10.4479 C.2      1 ZINC000100782996    0.0200
36     C36     4.6374   -8.8720   -9.6114 C.2      1 ZINC000100782996   -0.2100
37     C37     5.2893   -7.8888   -8.6735 C.3      1 ZINC000100782996   -0.1100
38     C38     5.0644  -10.1995   -9.6129 C.2      1 ZINC000100782996    0.3600
39     O39     5.9546  -10.5467   -8.8604 O.2      1 ZINC000100782996   -0.4600
40     C40     4.4333  -11.2078  -10.5373 C.3      1 ZINC000100782996    0.0600
41     H41     3.5913  -11.6847  -10.0356 H        1 ZINC000100782996    0.0900
42     O42     5.3994  -12.1983  -10.8943 O.3      1 ZINC000100782996   -0.5500
43     C43     3.9394  -10.4952  -11.7998 C.3      1 ZINC000100782996   -0.1000
44     C44     2.9511   -9.3951  -11.3922 C.3      1 ZINC000100782996   -0.0400
45     C45     1.7389  -10.0271  -10.7052 C.3      1 ZINC000100782996   -0.1400
46     C46     2.4930   -8.6336  -12.6377 C.3      1 ZINC000100782996   -0.1400
47     H47     0.1258    0.8323   -0.5141 H        1 ZINC000100782996    0.0700
48     H48    -1.1263    0.6226   -1.7617 H        1 ZINC000100782996    0.0700
49     H49    -1.5492    0.4606   -0.0403 H        1 ZINC000100782996    0.0700
50     H50    -0.3886   -3.0400    0.2469 H        1 ZINC000100782996    0.1200
51     H51    -1.2575   -0.3618    1.5216 H        1 ZINC000100782996    0.1200
52     H52    -0.9585   -3.2675    2.5734 H        1 ZINC000100782996    0.1200
53     H53    -2.9653   -0.0103    3.6229 H        1 ZINC000100782996    0.0700
54     H54    -1.7132    0.1994    4.8705 H        1 ZINC000100782996    0.0700
55     H55    -1.2903    0.3614    3.1491 H        1 ZINC000100782996    0.0700
56     H56    -1.5283   -3.4950    4.8998 H        1 ZINC000100782996    0.1200
57     H57    -2.3122   -0.8037    6.1988 H        1 ZINC000100782996    0.1400
58     H58    -3.4542   -4.6402    5.2175 H        1 ZINC000100782996    0.0700
59     H59    -5.0259   -4.3716    6.0087 H        1 ZINC000100782996    0.0700
60     H60    -4.1443   -3.0012    5.2926 H        1 ZINC000100782996    0.0700
61     H61    -4.0766   -5.6685   10.5597 H        1 ZINC000100782996    0.3900
62     H62    -3.5044   -2.2617    9.7139 H        1 ZINC000100782996    0.0800
63     H63    -2.0503   -2.7054   10.6434 H        1 ZINC000100782996    0.0900
64     H64    -0.6163   -4.2827    8.4782 H        1 ZINC000100782996    0.0600
65     H65     0.2345   -2.9124    7.7255 H        1 ZINC000100782996    0.0700
66     H66     0.1260   -3.0271    9.4984 H        1 ZINC000100782996    0.0700
67     H67    -0.8111   -0.7464    9.5502 H        1 ZINC000100782996    0.0700
68     H68    -0.8215   -0.6082    7.7756 H        1 ZINC000100782996    0.0700
69     H69    -2.3260   -0.3674    8.6960 H        1 ZINC000100782996    0.0600
70     H70     0.1812   -2.8126   -2.0795 H        1 ZINC000100782996    0.1200
71     H71    -0.1179    0.0931   -3.1313 H        1 ZINC000100782996    0.1200
72     H72     0.7510   -2.5851   -4.4060 H        1 ZINC000100782996    0.1200
73     H73     0.4520    0.3206   -5.4578 H        1 ZINC000100782996    0.1200
74     H74     2.2679   -0.0459   -7.9571 H        1 ZINC000100782996    0.0700
75     H75     1.0682   -1.0498   -8.8064 H        1 ZINC000100782996    0.0700
76     H76     0.5404    0.3765   -7.8816 H        1 ZINC000100782996    0.0700
77     H77     1.2747   -3.2815   -5.8636 H        1 ZINC000100782996    0.1200
78     H78     1.9232   -2.6214   -8.8125 H        1 ZINC000100782996    0.1200
79     H79     1.9872   -5.2145   -7.1065 H        1 ZINC000100782996    0.1200
80     H80     3.6929   -3.9119  -10.4430 H        1 ZINC000100782996    0.0700
81     H81     2.4932   -4.9157  -11.2923 H        1 ZINC000100782996    0.0700
82     H82     1.9655   -3.4894  -10.3675 H        1 ZINC000100782996    0.0700
83     H83     2.6997   -7.1475   -8.3494 H        1 ZINC000100782996    0.1200
84     H84     3.2637   -6.5079  -11.3188 H        1 ZINC000100782996    0.1400
85     H85     4.7494   -7.8772   -7.7267 H        1 ZINC000100782996    0.0700
86     H86     6.3236   -8.1847   -8.4984 H        1 ZINC000100782996    0.0700
87     H87     5.2663   -6.8935   -9.1172 H        1 ZINC000100782996    0.0700
88     H88     5.7580  -12.6874  -10.1412 H        1 ZINC000100782996    0.3900
89     H89     4.7865  -10.0532  -12.3243 H        1 ZINC000100782996    0.0800
90     H90     3.4385  -11.2116  -12.4509 H        1 ZINC000100782996    0.0900
91     H91     2.0657  -10.5687   -9.8176 H        1 ZINC000100782996    0.0600
92     H92     1.0368   -9.2451  -10.4157 H        1 ZINC000100782996    0.0700
93     H93     1.2505  -10.7175  -11.3929 H        1 ZINC000100782996    0.0700
94     H94     1.9438   -9.3083  -13.2945 H        1 ZINC000100782996    0.0700
95     H95     1.8457   -7.8083  -12.3412 H        1 ZINC000100782996    0.0700
96     H96     3.3631   -8.2419  -13.1645 H        1 ZINC000100782996    0.0600
@<TRIPOS>BOND
1     1     2     1
2     1     47    1
3     1     48    1
4     1     49    1
5     2     3     1
6     2     22    2
7     3     4     2
8     3     50    1
9     4     5     1
10    4     51    1
11    5     6     2
12    5     52    1
13    6     7     1
14    6     8     1
15    7     53    1
16    7     54    1
17    7     55    1
18    8     9     2
19    8     56    1
20    9     10    1
21    9     57    1
22    10    19    1
23    10    11    2
24    11    12    1
25    11    13    1
26    12    58    1
27    12    59    1
28    12    60    1
29    13    14    2
30    13    15    1
31    15    16    1
32    15    17    1
33    15    18    1
34    17    61    1
35    18    19    1
36    18    62    1
37    18    63    1
38    19    20    1
39    19    21    1
40    20    64    1
41    20    65    1
42    20    66    1
43    21    67    1
44    21    68    1
45    21    69    1
46    22    23    1
47    22    70    1
48    23    24    2
49    23    71    1
50    24    25    1
51    24    72    1
52    25    26    2
53    25    73    1
54    26    27    1
55    26    28    1
56    27    74    1
57    27    75    1
58    27    76    1
59    28    29    2
60    28    77    1
61    29    30    1
62    29    78    1
63    30    31    2
64    30    79    1
65    31    32    1
66    31    33    1
67    32    80    1
68    32    81    1
69    32    82    1
70    33    34    2
71    33    83    1
72    34    35    1
73    34    84    1
74    35    44    1
75    35    36    2
76    36    37    1
77    36    38    1
78    37    85    1
79    37    86    1
80    37    87    1
81    38    39    2
82    38    40    1
83    40    41    1
84    40    42    1
85    40    43    1
86    42    88    1
87    43    44    1
88    43    89    1
89    43    90    1
90    44    45    1
91    44    46    1
92    45    91    1
93    45    92    1
94    45    93    1
95    46    94    1
96    46    95    1
97    46    96    1
@<TRIPOS>SUBSTRUCTURE
1   ZINC000100782996 1     RESIDUE    1   A     ZIN   1
