@<TRIPOS>MOLECULE
ZINC000003777825
67    69    1     0     0
SMALL
USER_CHARGES
@<TRIPOS>ATOM
1      O1     -0.0106   -0.1289   -0.3087 O.co2    1 ZINC000003777825   -0.7000
2      C2      0.0052    1.0884   -0.3751 C.2      1 ZINC000003777825    0.4900
3      O3      1.0627    1.6774   -0.5206 O.co2    1 ZINC000003777825   -0.7100
4      C4     -1.2832    1.8648   -0.2834 C.3      1 ZINC000003777825   -0.1800
5      C5     -2.4528    0.8935   -0.1111 C.3      1 ZINC000003777825   -0.1000
6      C6     -3.7453    1.6841    0.1015 C.3      1 ZINC000003777825   -0.0500
7      H7     -3.8593    2.4158   -0.6983 H        1 ZINC000003777825    0.1200
8      C8     -4.9196    0.7397    0.0896 C.2      1 ZINC000003777825   -0.1500
9      C9     -5.8191    0.8250   -0.8589 C.2      1 ZINC000003777825   -0.1500
10     C10    -5.5928    1.7441   -2.0315 C.3      1 ZINC000003777825   -0.0600
11     C11    -5.7561    0.9708   -3.3147 C.ar     1 ZINC000003777825   -0.1000
12     C12    -4.6647    0.3423   -3.8853 C.ar     1 ZINC000003777825   -0.0700
13     C13    -4.8117   -0.3671   -5.0615 C.ar     1 ZINC000003777825   -0.1400
14     C14    -6.0558   -0.4490   -5.6699 C.ar     1 ZINC000003777825    0.1200
15     O15    -6.2031   -1.1467   -6.8268 O.3      1 ZINC000003777825   -0.3200
16     C16    -7.5128   -1.1884   -7.3970 C.3      1 ZINC000003777825    0.0600
17     C17    -7.4821   -2.0130   -8.6854 C.3      1 ZINC000003777825   -0.1200
18     C18    -8.8843   -2.0577   -9.2959 C.3      1 ZINC000003777825   -0.1200
19     C19    -8.8536   -2.8823  -10.5843 C.3      1 ZINC000003777825    0.0600
20     O20   -10.1632   -2.9239  -11.1545 O.3      1 ZINC000003777825   -0.3200
21     C21   -10.3105   -3.6217  -12.3114 C.ar     1 ZINC000003777825    0.1300
22     C22    -9.2182   -4.2580  -12.8829 C.ar     1 ZINC000003777825   -0.2100
23     C23    -9.3707   -4.9670  -14.0587 C.ar     1 ZINC000003777825   -0.0800
24     C24   -10.6105   -5.0423  -14.6661 C.ar     1 ZINC000003777825   -0.1600
25     C25   -11.7006   -4.4087  -14.0988 C.ar     1 ZINC000003777825   -0.0800
26     C26   -11.5546   -3.7036  -12.9198 C.ar     1 ZINC000003777825   -0.1500
27     C27    -7.1494    0.1821   -5.0951 C.ar     1 ZINC000003777825   -0.2100
28     C28    -6.9981    0.8863   -3.9163 C.ar     1 ZINC000003777825   -0.0800
29     S29    -3.6743    2.5407    1.6990 S.3      1 ZINC000003777825   -0.1300
30     C30    -3.6558    1.2147    2.8592 C.ar     1 ZINC000003777825   -0.0800
31     C31    -3.5969   -0.1028    2.4084 C.ar     1 ZINC000003777825   -0.1600
32     C32    -3.5824   -1.1326    3.3046 C.ar     1 ZINC000003777825   -0.0700
33     C33    -3.6269   -0.8640    4.6781 C.ar     1 ZINC000003777825   -0.1400
34     C34    -3.6110   -1.9708    5.6466 C.2      1 ZINC000003777825    0.5200
35     O35    -3.5588   -3.1280    5.2524 O.co2    1 ZINC000003777825   -0.6900
36     O36    -3.6499   -1.7344    6.8465 O.co2    1 ZINC000003777825   -0.6900
37     C37    -3.6861    0.4609    5.1274 C.ar     1 ZINC000003777825   -0.0700
38     C38    -3.6945    1.4861    4.2258 C.ar     1 ZINC000003777825   -0.1200
39     H39    -1.2413    2.5385    0.5724 H        1 ZINC000003777825    0.0700
40     H40    -1.4238    2.4444   -1.1957 H        1 ZINC000003777825    0.0500
41     H41    -2.5472    0.2763   -1.0045 H        1 ZINC000003777825    0.0700
42     H42    -2.2707    0.2554    0.7537 H        1 ZINC000003777825    0.0900
43     H43    -5.0196   -0.0074    0.8631 H        1 ZINC000003777825    0.1300
44     H44    -6.7229    0.2366   -0.8005 H        1 ZINC000003777825    0.1100
45     H45    -6.3190    2.5564   -2.0019 H        1 ZINC000003777825    0.0800
46     H46    -4.5848    2.1559   -1.9812 H        1 ZINC000003777825    0.0900
47     H47    -3.6964    0.4064   -3.4113 H        1 ZINC000003777825    0.1400
48     H48    -3.9588   -0.8573   -5.5073 H        1 ZINC000003777825    0.1300
49     H49    -8.2030   -1.6467   -6.6887 H        1 ZINC000003777825    0.0600
50     H50    -7.8434   -0.1745   -7.6223 H        1 ZINC000003777825    0.0600
51     H51    -6.7918   -1.5548   -9.3937 H        1 ZINC000003777825    0.0800
52     H52    -7.1514   -3.0269   -8.4601 H        1 ZINC000003777825    0.0800
53     H53    -9.5745   -2.5159   -8.5876 H        1 ZINC000003777825    0.0800
54     H54    -9.2149   -1.0438   -9.5212 H        1 ZINC000003777825    0.0800
55     H55    -8.1633   -2.4240  -11.2926 H        1 ZINC000003777825    0.0700
56     H56    -8.5229   -3.8962  -10.3590 H        1 ZINC000003777825    0.0700
57     H57    -8.2494   -4.1988  -12.4092 H        1 ZINC000003777825    0.1300
58     H58    -8.5206   -5.4625  -14.5041 H        1 ZINC000003777825    0.1200
59     H59   -10.7275   -5.5968  -15.5855 H        1 ZINC000003777825    0.1200
60     H60   -12.6679   -4.4687  -14.5753 H        1 ZINC000003777825    0.1300
61     H61   -12.4064   -3.2088  -12.4770 H        1 ZINC000003777825    0.1300
62     H62    -8.1189    0.1200   -5.5670 H        1 ZINC000003777825    0.1200
63     H63    -7.8492    1.3775   -3.4682 H        1 ZINC000003777825    0.1200
64     H64    -3.5629   -0.3093    1.3489 H        1 ZINC000003777825    0.1400
65     H65    -3.5371   -2.1533    2.9546 H        1 ZINC000003777825    0.1300
66     H66    -3.7205    0.6717    6.1861 H        1 ZINC000003777825    0.1300
67     H67    -3.7398    2.5082    4.5716 H        1 ZINC000003777825    0.1200
@<TRIPOS>BOND
1     1     2     ar
2     2     3     ar
3     2     4     1
4     4     5     1
5     4     39    1
6     4     40    1
7     5     6     1
8     5     41    1
9     5     42    1
10    6     7     1
11    6     8     1
12    6     29    1
13    8     9     2
14    8     43    1
15    9     10    1
16    9     44    1
17    10    11    1
18    10    45    1
19    10    46    1
20    11    28    ar
21    11    12    ar
22    12    13    ar
23    12    47    1
24    13    14    ar
25    13    48    1
26    14    15    1
27    14    27    ar
28    15    16    1
29    16    17    1
30    16    49    1
31    16    50    1
32    17    18    1
33    17    51    1
34    17    52    1
35    18    19    1
36    18    53    1
37    18    54    1
38    19    20    1
39    19    55    1
40    19    56    1
41    20    21    1
42    21    26    ar
43    21    22    ar
44    22    23    ar
45    22    57    1
46    23    24    ar
47    23    58    1
48    24    25    ar
49    24    59    1
50    25    26    ar
51    25    60    1
52    26    61    1
53    27    28    ar
54    27    62    1
55    28    63    1
56    29    30    1
57    30    38    ar
58    30    31    ar
59    31    32    ar
60    31    64    1
61    32    33    ar
62    32    65    1
63    33    34    1
64    33    37    ar
65    34    35    ar
66    34    36    ar
67    37    38    ar
68    37    66    1
69    38    67    1
@<TRIPOS>SUBSTRUCTURE
1   ZINC000003777825 1     RESIDUE    1   A     ZIN   1
