@<TRIPOS>MOLECULE
ZINC000004392643
56    58    1     0     0
SMALL
USER_CHARGES
@<TRIPOS>ATOM
1      C1     -0.0178    1.4608    0.0101 C.3      1 ZINC000004392643    0.0700
2      N2      0.0021   -0.0041    0.0020 N.pl3    1 ZINC000004392643   -0.7000
3      C3      0.6034   -0.6852   -1.0500 C.ar     1 ZINC000004392643    0.4500
4      C4      1.1894    0.0302   -2.0890 C.ar     1 ZINC000004392643   -0.2000
5      C5      1.7847   -0.6605   -3.1294 C.ar     1 ZINC000004392643    0.0400
6      C6      1.7738   -2.0484   -3.0954 C.ar     1 ZINC000004392643   -0.1600
7      C7      1.1739   -2.6941   -2.0327 C.ar     1 ZINC000004392643    0.1900
8      C8      1.1588   -4.2004   -1.9902 C.3      1 ZINC000004392643   -0.1000
9      C9      2.4652   -4.7064   -1.3752 C.3      1 ZINC000004392643    0.0600
10     O10     2.4510   -6.1347   -1.3349 O.3      1 ZINC000004392643   -0.3100
11     C11     3.5457   -6.7482   -0.8133 C.ar     1 ZINC000004392643    0.1100
12     C12     4.6189   -6.0059   -0.3397 C.ar     1 ZINC000004392643   -0.2000
13     C13     5.7162   -6.6614    0.1473 C.ar     1 ZINC000004392643   -0.0800
14     C14     5.8067   -8.0746    0.1817 C.ar     1 ZINC000004392643   -0.0700
15     C15     7.2065   -8.4566    0.6210 C.3      1 ZINC000004392643   -0.0800
16     C16     7.2446   -9.6232    1.5868 C.3      1 ZINC000004392643   -0.0500
17     H17     8.2806   -9.8475    1.8406 H        1 ZINC000004392643    0.1200
18     C18     6.4808   -9.2519    2.8594 C.3      1 ZINC000004392643   -0.1800
19     C19     6.6198  -10.3608    3.8703 C.2      1 ZINC000004392643    0.4800
20     O20     7.2696  -11.3559    3.5982 O.co2    1 ZINC000004392643   -0.6600
21     O21     6.0825  -10.2629    4.9604 O.co2    1 ZINC000004392643   -0.7100
22     C22     6.6147  -10.8290    0.9710 C.2      1 ZINC000004392643    0.5200
23     O23     7.3361  -11.7999    1.0582 O.2      1 ZINC000004392643   -0.5400
24     N24     5.5393  -11.1071    0.3880 N.am     1 ZINC000004392643   -0.5700
25     C25     5.2600  -12.5411    0.2791 C.3      1 ZINC000004392643    0.0500
26     C26     4.4677  -13.0009    1.5045 C.3      1 ZINC000004392643    0.4300
27     F27     3.2619  -12.2948    1.5721 F        1 ZINC000004392643   -0.2000
28     F28     4.2011  -14.3703    1.4004 F        1 ZINC000004392643   -0.1900
29     F29     5.2158  -12.7581    2.6615 F        1 ZINC000004392643   -0.1400
30     C30     4.5411  -10.2637   -0.1869 C.3      1 ZINC000004392643    0.1400
31     C31     4.7461   -8.7808   -0.2160 C.ar     1 ZINC000004392643   -0.0300
32     C32     3.6154   -8.1211   -0.7364 C.ar     1 ZINC000004392643   -0.1500
33     N33     0.6180   -2.0094   -1.0513 N.ar     1 ZINC000004392643   -0.5000
34     H34     0.2035   -2.4878   -0.3163 H        1 ZINC000004392643    0.4400
35     H35     1.0048    1.8381    0.0023 H        1 ZINC000004392643    0.0800
36     H36    -0.5450    1.8219   -0.8730 H        1 ZINC000004392643    0.0800
37     H37    -0.5280    1.8123    0.9069 H        1 ZINC000004392643    0.1100
38     H38    -0.4044   -0.4986    0.7308 H        1 ZINC000004392643    0.4200
39     H39     1.1795    1.1101   -2.0837 H        1 ZINC000004392643    0.1800
40     H40     2.2472   -0.1319   -3.9498 H        1 ZINC000004392643    0.1800
41     H41     2.2296   -2.6171   -3.8924 H        1 ZINC000004392643    0.1800
42     H42     0.3176   -4.5385   -1.3851 H        1 ZINC000004392643    0.1100
43     H43     1.0585   -4.5915   -3.0027 H        1 ZINC000004392643    0.1300
44     H44     3.3065   -4.3683   -1.9803 H        1 ZINC000004392643    0.0800
45     H45     2.5656   -4.3153   -0.3627 H        1 ZINC000004392643    0.0600
46     H46     4.5879   -4.9264   -0.3557 H        1 ZINC000004392643    0.1200
47     H47     6.5460   -6.0790    0.5197 H        1 ZINC000004392643    0.1300
48     H48     7.7901   -8.7163   -0.2622 H        1 ZINC000004392643    0.0800
49     H49     7.6692   -7.5932    1.0991 H        1 ZINC000004392643    0.0900
50     H50     6.8898   -8.3300    3.2728 H        1 ZINC000004392643    0.0700
51     H51     5.4269   -9.1071    2.6215 H        1 ZINC000004392643    0.0500
52     H52     4.6772  -12.7302   -0.6224 H        1 ZINC000004392643    0.1100
53     H53     6.1995  -13.0912    0.2264 H        1 ZINC000004392643    0.1600
54     H54     4.3915  -10.5915   -1.2156 H        1 ZINC000004392643    0.0800
55     H55     3.6093  -10.4527    0.3461 H        1 ZINC000004392643    0.0800
56     H56     2.7813   -8.7093   -1.0897 H        1 ZINC000004392643    0.1300
@<TRIPOS>BOND
1     1     2     1
2     1     35    1
3     1     36    1
4     1     37    1
5     2     3     1
6     2     38    1
7     3     33    ar
8     3     4     ar
9     4     5     ar
10    4     39    1
11    5     6     ar
12    5     40    1
13    6     7     ar
14    6     41    1
15    7     8     1
16    7     33    ar
17    8     9     1
18    8     42    1
19    8     43    1
20    9     10    1
21    9     44    1
22    9     45    1
23    10    11    1
24    11    32    ar
25    11    12    ar
26    12    13    ar
27    12    46    1
28    13    14    ar
29    13    47    1
30    14    31    ar
31    14    15    1
32    15    16    1
33    15    48    1
34    15    49    1
35    16    17    1
36    16    18    1
37    16    22    1
38    18    19    1
39    18    50    1
40    18    51    1
41    19    20    ar
42    19    21    ar
43    22    23    2
44    22    24    am
45    24    25    1
46    24    30    1
47    25    26    1
48    25    52    1
49    25    53    1
50    26    27    1
51    26    28    1
52    26    29    1
53    30    31    1
54    30    54    1
55    30    55    1
56    31    32    ar
57    32    56    1
58    33    34    1
@<TRIPOS>SUBSTRUCTURE
1   ZINC000004392643 1     RESIDUE    1   A     ZIN   1
