@<TRIPOS>MOLECULE
ZINC000095587536
65    69    1     0     0
SMALL
USER_CHARGES
@<TRIPOS>ATOM
1      C1     -0.3898    1.6213   -0.9596 C.3      1 ZINC000095587536   -0.1700
2      C2     -0.4060    0.1024   -1.1428 C.3      1 ZINC000095587536    0.1300
3      N3     -1.5971   -0.4547   -0.4970 N.am     1 ZINC000095587536   -0.7400
4      C4     -1.8225   -1.7831   -0.5301 C.2      1 ZINC000095587536    0.7000
5      O5     -1.0373   -2.5190   -1.0960 O.2      1 ZINC000095587536   -0.5700
6      N6     -2.9183   -2.2957    0.0640 N.am     1 ZINC000095587536   -0.6900
7      C7     -3.2013   -3.6590   -0.0497 C.ar     1 ZINC000095587536    0.1900
8      C8     -2.1633   -4.5835   -0.0745 C.ar     1 ZINC000095587536   -0.1300
9      C9     -2.4400   -5.9288   -0.1866 C.ar     1 ZINC000095587536   -0.0500
10     C10    -3.7626   -6.3627   -0.2751 C.ar     1 ZINC000095587536   -0.0700
11     C11    -4.0629   -7.8089   -0.3952 C.ar     1 ZINC000095587536    0.3800
12     N12    -3.0623   -8.6773   -0.4115 N.ar     1 ZINC000095587536   -0.5100
13     C13    -3.2890   -9.9819   -0.5156 C.ar     1 ZINC000095587536    0.1900
14     C14    -4.5865  -10.4298   -0.6065 C.ar     1 ZINC000095587536   -0.1500
15     C15    -4.9172  -11.8930   -0.7202 C.3      1 ZINC000095587536   -0.0500
16     C16    -3.6692  -12.6777   -1.1289 C.3      1 ZINC000095587536    0.0400
17     N17    -2.5621  -12.2946   -0.2385 N.3      1 ZINC000095587536   -0.5200
18     C18    -1.4468  -13.2446   -0.3464 C.3      1 ZINC000095587536    0.0100
19     C19    -0.6055  -13.3647    0.9383 C.3      1 ZINC000095587536    0.0500
20     O20    -0.6363  -14.7848    0.6906 O.3      1 ZINC000095587536   -0.3800
21     C21    -1.8491  -14.7084   -0.0853 C.3      1 ZINC000095587536    0.0500
22     C22    -2.1189  -10.9278   -0.5341 C.3      1 ZINC000095587536    0.1000
23     C23    -5.6246   -9.4915   -0.5893 C.ar     1 ZINC000095587536    0.3500
24     N24    -6.9445   -9.9024   -0.6814 N.3      1 ZINC000095587536   -0.4800
25     C25    -7.6574   -9.6722    0.5836 C.3      1 ZINC000095587536    0.0200
26     C26    -9.0913  -10.1937    0.4573 C.3      1 ZINC000095587536    0.0700
27     O27    -9.7309   -9.5519   -0.6492 O.3      1 ZINC000095587536   -0.3800
28     C28    -9.0633   -9.7558   -1.8975 C.3      1 ZINC000095587536    0.0700
29     C29    -7.6292   -9.2299   -1.7950 C.3      1 ZINC000095587536    0.0500
30     H30    -7.6477   -8.1550   -1.6150 H        1 ZINC000095587536    0.0700
31     C31    -6.8854   -9.5164   -3.1010 C.3      1 ZINC000095587536   -0.1400
32     N32    -5.3269   -8.2024   -0.4782 N.ar     1 ZINC000095587536   -0.5400
33     C33    -4.8022   -5.4331   -0.2499 C.ar     1 ZINC000095587536   -0.0500
34     C34    -4.5207   -4.0893   -0.1320 C.ar     1 ZINC000095587536   -0.1600
35     H35     0.4964    2.0359   -1.4401 H        1 ZINC000095587536    0.0800
36     H36    -1.2833    2.0514   -1.4122 H        1 ZINC000095587536    0.0600
37     H37    -0.3711    1.8588    0.1041 H        1 ZINC000095587536    0.0600
38     H38    -0.4247   -0.1350   -2.2065 H        1 ZINC000095587536    0.0700
39     H39     0.4875   -0.3276   -0.6902 H        1 ZINC000095587536    0.0700
40     H40    -2.2235    0.1324   -0.0456 H        1 ZINC000095587536    0.4000
41     H41    -3.5104   -1.7180    0.5705 H        1 ZINC000095587536    0.4100
42     H42    -1.1393   -4.2470   -0.0063 H        1 ZINC000095587536    0.1500
43     H43    -1.6333   -6.6466   -0.2062 H        1 ZINC000095587536    0.1400
44     H44    -5.2762  -12.2590    0.2417 H        1 ZINC000095587536    0.0900
45     H45    -5.6943  -12.0314   -1.4719 H        1 ZINC000095587536    0.0900
46     H46    -3.8617  -13.7465   -1.0346 H        1 ZINC000095587536    0.0900
47     H47    -3.4086  -12.4397   -2.1602 H        1 ZINC000095587536    0.0400
48     H48    -0.8549  -13.1055   -1.2511 H        1 ZINC000095587536    0.0800
49     H49     0.3883  -12.9244    0.8573 H        1 ZINC000095587536    0.0900
50     H50    -1.1350  -13.0632    1.8420 H        1 ZINC000095587536    0.0900
51     H51    -2.7584  -14.8171    0.5059 H        1 ZINC000095587536    0.0900
52     H52    -1.8417  -15.3338   -0.9780 H        1 ZINC000095587536    0.0900
53     H53    -1.6525  -10.9051   -1.5190 H        1 ZINC000095587536    0.0700
54     H54    -1.3905  -10.6152    0.2140 H        1 ZINC000095587536    0.1100
55     H55    -7.1479  -10.2000    1.3898 H        1 ZINC000095587536    0.0900
56     H56    -7.6763   -8.6044    0.8016 H        1 ZINC000095587536    0.0600
57     H57    -9.0736  -11.2710    0.2925 H        1 ZINC000095587536    0.0600
58     H58    -9.6405   -9.9738    1.3727 H        1 ZINC000095587536    0.1000
59     H59    -9.0448  -10.8204   -2.1307 H        1 ZINC000095587536    0.0600
60     H60    -9.5924   -9.2192   -2.6851 H        1 ZINC000095587536    0.1000
61     H61    -7.3439   -8.9506   -3.9120 H        1 ZINC000095587536    0.0700
62     H62    -5.8414   -9.2211   -2.9969 H        1 ZINC000095587536    0.0500
63     H63    -6.9410  -10.5818   -3.3245 H        1 ZINC000095587536    0.0700
64     H64    -5.8271   -5.7666   -0.3186 H        1 ZINC000095587536    0.1400
65     H65    -5.3253   -3.3691   -0.1124 H        1 ZINC000095587536    0.1300
@<TRIPOS>BOND
1     1     2     1
2     1     35    1
3     1     36    1
4     1     37    1
5     2     3     1
6     2     38    1
7     2     39    1
8     3     4     am
9     3     40    1
10    4     5     2
11    4     6     am
12    6     7     1
13    6     41    1
14    7     34    ar
15    7     8     ar
16    8     9     ar
17    8     42    1
18    9     10    ar
19    9     43    1
20    10    11    1
21    10    33    ar
22    11    32    ar
23    11    12    ar
24    12    13    ar
25    13    22    1
26    13    14    ar
27    14    15    1
28    14    23    ar
29    15    16    1
30    15    44    1
31    15    45    1
32    16    17    1
33    16    46    1
34    16    47    1
35    17    18    1
36    17    22    1
37    18    21    1
38    18    19    1
39    18    48    1
40    19    20    1
41    19    49    1
42    19    50    1
43    20    21    1
44    21    51    1
45    21    52    1
46    22    53    1
47    22    54    1
48    23    24    1
49    23    32    ar
50    24    29    1
51    24    25    1
52    25    26    1
53    25    55    1
54    25    56    1
55    26    27    1
56    26    57    1
57    26    58    1
58    27    28    1
59    28    29    1
60    28    59    1
61    28    60    1
62    29    30    1
63    29    31    1
64    31    61    1
65    31    62    1
66    31    63    1
67    33    34    ar
68    33    64    1
69    34    65    1
@<TRIPOS>SUBSTRUCTURE
1   ZINC000095587536 1     RESIDUE    1   A     ZIN   1
