@<TRIPOS>MOLECULE
ZINC000001578344
33    35    1     0     0
SMALL
USER_CHARGES
@<TRIPOS>ATOM
1      N1     -0.0169    1.3925    0.0097 N.pl3    1 ZINC000001578344   -0.8700
2      C2      0.0021   -0.0041    0.0020 C.ar     1 ZINC000001578344    0.2700
3      C3     -1.1905   -0.7164    0.0038 C.ar     1 ZINC000001578344   -0.2200
4      C4     -1.1681   -2.0973   -0.0043 C.ar     1 ZINC000001578344    0.0300
5      C5      0.0396   -2.7708   -0.0137 C.ar     1 ZINC000001578344   -0.7300
6      S6      0.0635   -4.5326   -0.0240 S.o2     1 ZINC000001578344    2.6900
7      O7      1.3210   -4.9200    0.5125 O.2      1 ZINC000001578344   -0.9300
8      O8     -1.1782   -4.9539    0.5236 O.2      1 ZINC000001578344   -0.9500
9      N9      0.0629   -5.0136   -1.6086 N.am     1 ZINC000001578344   -1.0300
10     C10     1.1438   -4.7146   -2.4244 C.ar     1 ZINC000001578344    0.3700
11     C11     1.1354   -5.1204   -3.7704 C.ar     1 ZINC000001578344    0.0800
12     N12     2.1483   -4.8466   -4.5567 N.ar     1 ZINC000001578344   -0.3800
13     C13     3.2019   -4.1747   -4.0768 C.ar     1 ZINC000001578344    0.0500
14     C14     4.3007   -3.8680   -4.8993 C.ar     1 ZINC000001578344    0.0100
15     Cl15    4.3077   -4.3603   -6.5641 Cl       1 ZINC000001578344   -0.0400
16     C16     5.3594   -3.1825   -4.3841 C.ar     1 ZINC000001578344   -0.1000
17     C17     5.3711   -2.7794   -3.0508 C.ar     1 ZINC000001578344   -0.0700
18     C18     4.3252   -3.0592   -2.2255 C.ar     1 ZINC000001578344   -0.0900
19     C19     3.2149   -3.7637   -2.7209 C.ar     1 ZINC000001578344    0.1400
20     N20     2.1702   -4.0465   -1.9328 N.ar     1 ZINC000001578344   -0.4700
21     C21     1.2286   -2.0647   -0.0155 C.ar     1 ZINC000001578344    0.0500
22     C22     1.2135   -0.6838   -0.0132 C.ar     1 ZINC000001578344   -0.2200
23     H23     0.8165    1.8889    0.0044 H        1 ZINC000001578344    0.4000
24     H24    -0.8634    1.8661    0.0163 H        1 ZINC000001578344    0.4000
25     H25    -2.1340   -0.1911    0.0118 H        1 ZINC000001578344    0.1300
26     H26    -2.0949   -2.6517   -0.0030 H        1 ZINC000001578344    0.1400
27     H27    -0.6934   -5.5045   -1.9662 H        1 ZINC000001578344    0.4400
28     H28     0.2869   -5.6631   -4.1603 H        1 ZINC000001578344    0.1800
29     H29     6.2016   -2.9485   -5.0184 H        1 ZINC000001578344    0.1500
30     H30     6.2224   -2.2375   -2.6661 H        1 ZINC000001578344    0.1500
31     H31     4.3486   -2.7406   -1.1938 H        1 ZINC000001578344    0.1500
32     H32     2.1701   -2.5938   -0.0228 H        1 ZINC000001578344    0.1500
33     H33     2.1424   -0.1329   -0.0149 H        1 ZINC000001578344    0.1300
@<TRIPOS>BOND
1     1     2     1
2     1     23    1
3     1     24    1
4     2     22    ar
5     2     3     ar
6     3     4     ar
7     3     25    1
8     4     5     ar
9     4     26    1
10    5     6     1
11    5     21    ar
12    6     7     2
13    6     8     2
14    6     9     am
15    9     10    1
16    9     27    1
17    10    20    ar
18    10    11    ar
19    11    12    ar
20    11    28    1
21    12    13    ar
22    13    19    ar
23    13    14    ar
24    14    15    1
25    14    16    ar
26    16    17    ar
27    16    29    1
28    17    18    ar
29    17    30    1
30    18    19    ar
31    18    31    1
32    19    20    ar
33    21    22    ar
34    21    32    1
35    22    33    1
@<TRIPOS>SUBSTRUCTURE
1   ZINC000001578344 1     RESIDUE    1   A     ZIN   1
