@<TRIPOS>MOLECULE
ZINC000002020188
  32   35    0    0    0
SMALL
USER_CHARGES
NO_NAME
@<TRIPOS>ATOM
    1 O1        0.0021    -0.0041     0.0020 O.2    1 <0>      -0.5000
    2 C2       -0.0144     1.2113     0.0087 C.2    1 <0>       0.6000
    3 C3       -1.2346     2.0426     0.0312 C.ar   1 <0>      -0.1500
    4 C4       -2.5865     1.7328    -0.1204 C.ar   1 <0>      -0.0400
    5 C5       -3.5314     2.7370    -0.0686 C.ar   1 <0>      -0.1200
    6 C6       -3.1437     4.0496     0.1326 C.ar   1 <0>      -0.0800
    7 C7       -1.8045     4.3644     0.2917 C.ar   1 <0>      -0.0900
    8 C8       -0.8544     3.3705     0.2509 C.ar   1 <0>      -0.0500
    9 C9        0.6381     3.3548     0.4225 C.3    1 <0>       0.2500
   10 C10       1.0565     3.6837     1.8324 C.ar   1 <0>      -0.0900
   11 C11       1.2889     2.6668     2.7395 C.ar   1 <0>      -0.1000
   12 C12       1.6726     2.9686     4.0328 C.ar   1 <0>      -0.1200
   13 C13       1.8243     4.2872     4.4189 C.ar   1 <0>      -0.1100
   14 C14       1.5928     5.3041     3.5115 C.ar   1 <0>      -0.1200
   15 C15       1.2133     5.0022     2.2170 C.ar   1 <0>      -0.0900
   16 S16       1.4474     4.4207    -0.8286 S.3    1 <0>      -0.2300
   17 C17       2.7887     3.2388    -1.2485 C.3    1 <0>      -0.0900
   18 C18       2.5144     2.0498    -0.2940 C.3    1 <0>       0.1300
   19 N19       1.0749     1.9976     0.0025 N.am   1 <0>      -0.6200
   20 H20      -2.8927     0.7093    -0.2783 H      1 <0>       0.1400
   21 H21      -4.5779     2.4972    -0.1859 H      1 <0>       0.1400
   22 H22      -3.8879     4.8316     0.1654 H      1 <0>       0.1400
   23 H23      -1.5060     5.3904     0.4482 H      1 <0>       0.1300
   24 H24       1.1703     1.6366     2.4378 H      1 <0>       0.1200
   25 H25       1.8535     2.1741     4.7416 H      1 <0>       0.1300
   26 H26       2.1234     4.5230     5.4295 H      1 <0>       0.1300
   27 H27       1.7111     6.3343     3.8133 H      1 <0>       0.1300
   28 H28       1.0324     5.7967     1.5081 H      1 <0>       0.1300
   29 H29       2.7131     2.9233    -2.2892 H      1 <0>       0.1100
   30 H30       3.7661     3.6773    -1.0474 H      1 <0>       0.1200
   31 H31       2.8257     1.1196    -0.7691 H      1 <0>       0.1100
   32 H32       3.0709     2.1886     0.6329 H      1 <0>       0.0900
@<TRIPOS>BOND
   1    1    2 2
   2    2   19 am
   3    2    3 1
   4    3    8 ar
   5    3    4 ar
   6    4    5 ar
   7    4   20 1
   8    5    6 ar
   9    5   21 1
  10    6    7 ar
  11    6   22 1
  12    7    8 ar
  13    7   23 1
  14    8    9 1
  15    9   19 1
  16    9   10 1
  17    9   16 1
  18   10   15 ar
  19   10   11 ar
  20   11   12 ar
  21   11   24 1
  22   12   13 ar
  23   12   25 1
  24   13   14 ar
  25   13   26 1
  26   14   15 ar
  27   14   27 1
  28   15   28 1
  29   16   17 1
  30   17   18 1
  31   17   29 1
  32   17   30 1
  33   18   19 1
  34   18   31 1
  35   18   32 1
