@<TRIPOS>MOLECULE
ZINC000068198368
52    54    1     0     0
SMALL
USER_CHARGES
@<TRIPOS>ATOM
1      C1      0.0940    1.5020   -0.0010 C.3      1 ZINC000068198368   -0.0800
2      C2      0.0512   -0.0044   -0.0029 C.2      1 ZINC000068198368    0.1400
3      C3     -0.0923   -0.7315   -1.1313 C.2      1 ZINC000068198368   -0.2400
4      C4     -0.2267   -0.1940   -2.4997 C.ar     1 ZINC000068198368    0.0500
5      C5      0.6436    0.7965   -2.9730 C.ar     1 ZINC000068198368   -0.1500
6      C6      0.4820    1.2693   -4.2576 C.ar     1 ZINC000068198368    0.1100
7      N7     -0.4753    0.8016   -5.0368 N.ar     1 ZINC000068198368   -0.4600
8      C8     -1.3167   -0.1313   -4.6309 C.ar     1 ZINC000068198368    0.1300
9      C9     -2.3885   -0.6243   -5.5685 C.3      1 ZINC000068198368   -0.0500
10     C10    -2.5241    0.3462   -6.7435 C.3      1 ZINC000068198368   -0.1300
11     C11    -2.0089   -2.0105   -6.0932 C.3      1 ZINC000068198368   -0.1500
12     C12    -3.7207   -0.7092   -4.8208 C.3      1 ZINC000068198368    0.4600
13     F13    -4.0678    0.5583   -4.3411 F        1 ZINC000068198368   -0.1800
14     F14    -4.7157   -1.1669   -5.6913 F        1 ZINC000068198368   -0.1700
15     F15    -3.5967   -1.5966   -3.7464 F        1 ZINC000068198368   -0.1800
16     C16    -1.2247   -0.6645   -3.3636 C.ar     1 ZINC000068198368   -0.1700
17     S17    -0.0910   -2.4351   -0.6823 S.3      1 ZINC000068198368    0.1600
18     C18     0.1005   -2.0128    0.9631 C.2      1 ZINC000068198368    0.3000
19     N19     0.1894   -2.9199    2.0092 N.am     1 ZINC000068198368   -0.6400
20     C20     0.3398   -2.4779    3.2735 C.2      1 ZINC000068198368    0.7200
21     O21     0.3976   -1.2843    3.4973 O.2      1 ZINC000068198368   -0.5100
22     N22     0.4261   -3.3590    4.2897 N.am     1 ZINC000068198368   -0.6100
23     C23     0.3774   -4.8268    4.1606 C.3      1 ZINC000068198368    0.0900
24     C24     1.1138   -5.3598    5.4150 C.3      1 ZINC000068198368   -0.1300
25     C25     0.6646   -4.3416    6.4961 C.3      1 ZINC000068198368   -0.1200
26     C26     0.5907   -3.0158    5.7098 C.3      1 ZINC000068198368    0.1400
27     H27    -0.2660   -2.4322    6.0467 H        1 ZINC000068198368    0.1000
28     C28     1.8592   -2.2280    5.9132 C.2      1 ZINC000068198368    0.5100
29     N29     2.0310   -1.5061    7.0383 N.am     1 ZINC000068198368   -0.8500
30     O30     2.7254   -2.2434    5.0644 O.2      1 ZINC000068198368   -0.5200
31     N31     0.1561   -0.7222    1.0936 N.2      1 ZINC000068198368   -0.4700
32     H32     1.1099    1.8368   -0.2106 H        1 ZINC000068198368    0.0800
33     H33    -0.5802    1.8856   -0.7668 H        1 ZINC000068198368    0.0800
34     H34    -0.2166    1.8731    0.9756 H        1 ZINC000068198368    0.0800
35     H35     1.4289    1.1840   -2.3409 H        1 ZINC000068198368    0.1400
36     H36     1.1476    2.0331   -4.6317 H        1 ZINC000068198368    0.1700
37     H37    -1.5750    0.4066   -7.2762 H        1 ZINC000068198368    0.0900
38     H38    -3.2993   -0.0105   -7.4217 H        1 ZINC000068198368    0.0700
39     H39    -2.7945    1.3337   -6.3698 H        1 ZINC000068198368    0.0700
40     H40    -1.9123   -2.7019   -5.2561 H        1 ZINC000068198368    0.0700
41     H41    -2.7842   -2.3672   -6.7714 H        1 ZINC000068198368    0.0800
42     H42    -1.0599   -1.9501   -6.6258 H        1 ZINC000068198368    0.0800
43     H43    -1.9163   -1.4277   -3.0384 H        1 ZINC000068198368    0.1500
44     H44     0.1432   -3.8722    1.8306 H        1 ZINC000068198368    0.4200
45     H45    -0.6562   -5.1728    4.1519 H        1 ZINC000068198368    0.0800
46     H46     0.8926   -5.1452    3.2544 H        1 ZINC000068198368    0.0800
47     H47     0.7810   -6.3672    5.6648 H        1 ZINC000068198368    0.0900
48     H48     2.1944   -5.3304    5.2756 H        1 ZINC000068198368    0.0800
49     H49    -0.3124   -4.6110    6.8974 H        1 ZINC000068198368    0.1000
50     H50     1.4048   -4.2737    7.2933 H        1 ZINC000068198368    0.0900
51     H51     1.3383   -1.4938    7.7172 H        1 ZINC000068198368    0.4000
52     H52     2.8475   -0.9990    7.1693 H        1 ZINC000068198368    0.4000
@<TRIPOS>BOND
1     1     2     1
2     1     32    1
3     1     33    1
4     1     34    1
5     2     31    1
6     2     3     2
7     3     4     1
8     3     17    1
9     4     16    ar
10    4     5     ar
11    5     6     ar
12    5     35    1
13    6     7     ar
14    6     36    1
15    7     8     ar
16    8     9     1
17    8     16    ar
18    9     10    1
19    9     11    1
20    9     12    1
21    10    37    1
22    10    38    1
23    10    39    1
24    11    40    1
25    11    41    1
26    11    42    1
27    12    13    1
28    12    14    1
29    12    15    1
30    16    43    1
31    17    18    1
32    18    19    1
33    18    31    2
34    19    20    am
35    19    44    1
36    20    21    2
37    20    22    am
38    22    26    1
39    22    23    1
40    23    24    1
41    23    45    1
42    23    46    1
43    24    25    1
44    24    47    1
45    24    48    1
46    25    26    1
47    25    49    1
48    25    50    1
49    26    27    1
50    26    28    1
51    28    29    am
52    28    30    2
53    29    51    1
54    29    52    1
@<TRIPOS>SUBSTRUCTURE
1   ZINC000068198368 1     RESIDUE    1   A     ZIN   1
