@<TRIPOS>MOLECULE
ZINC000114898570
48    51    1     0     0
SMALL
USER_CHARGES
@<TRIPOS>ATOM
1      C1     -2.5442   -0.6712   -0.7908 C.3      1 ZINC000114898570    0.0800
2      N2     -1.3717   -1.4584   -1.1803 N.am     1 ZINC000114898570   -0.7300
3      C3     -0.1438   -1.0886   -0.7658 C.2      1 ZINC000114898570    0.5900
4      O4     -0.0090   -0.1010   -0.0683 O.2      1 ZINC000114898570   -0.5200
5      C5      1.0334   -1.8790   -1.1567 C.2      1 ZINC000114898570   -0.2300
6      C6      1.8097   -1.7051   -2.2600 C.2      1 ZINC000114898570    0.1000
7      C7      1.5987   -0.6436   -3.3087 C.3      1 ZINC000114898570   -0.0900
8      O8      2.7890   -2.6174   -2.2754 O.3      1 ZINC000114898570   -0.1800
9      C9      2.7180   -3.4324   -1.2025 C.ar     1 ZINC000114898570    0.0700
10     C10     3.4863   -4.5076   -0.7761 C.ar     1 ZINC000114898570   -0.0900
11     C11     3.1623   -5.1653    0.3974 C.ar     1 ZINC000114898570    0.1100
12     O12     3.9173   -6.2169    0.8114 O.3      1 ZINC000114898570   -0.2300
13     C13     5.1165   -5.9532    1.3801 C.ar     1 ZINC000114898570    0.4000
14     C14     5.9970   -6.9996    1.7331 C.ar     1 ZINC000114898570   -0.1500
15     C15     5.6766   -8.3461    1.5140 C.ar     1 ZINC000114898570   -0.1400
16     C16     6.5666   -9.3171    1.8743 C.ar     1 ZINC000114898570    0.1100
17     O17     6.2578  -10.6242    1.6622 O.3      1 ZINC000114898570   -0.3000
18     C18     4.9914  -10.9024    1.0615 C.3      1 ZINC000114898570    0.0200
19     C19     7.7958   -8.9813    2.4602 C.ar     1 ZINC000114898570    0.1700
20     O20     8.6634   -9.9667    2.8090 O.3      1 ZINC000114898570   -0.3000
21     C21     9.8994   -9.5630    3.4017 C.3      1 ZINC000114898570    0.0200
22     C22     8.1325   -7.6757    2.6846 C.ar     1 ZINC000114898570   -0.1900
23     C23     7.2392   -6.6586    2.3252 C.ar     1 ZINC000114898570    0.2000
24     N24     7.5235   -5.3629    2.5242 N.ar     1 ZINC000114898570   -0.5200
25     C25     6.6655   -4.4337    2.1761 C.ar     1 ZINC000114898570    0.3400
26     N26     5.4978   -4.7063    1.6153 N.ar     1 ZINC000114898570   -0.5700
27     C27     2.0701   -4.7584    1.1572 C.ar     1 ZINC000114898570   -0.1100
28     C28     1.2989   -3.6933    0.7455 C.ar     1 ZINC000114898570   -0.0600
29     C29     1.6216   -3.0221   -0.4294 C.ar     1 ZINC000114898570   -0.0900
30     H30    -2.6267   -0.6555    0.2959 H        1 ZINC000114898570    0.0600
31     H31    -2.4370    0.3481   -1.1618 H        1 ZINC000114898570    0.0600
32     H32    -3.4413   -1.1204   -1.2169 H        1 ZINC000114898570    0.0800
33     H33    -1.4792   -2.2459   -1.7364 H        1 ZINC000114898570    0.4000
34     H34     2.1535    0.2536   -3.0343 H        1 ZINC000114898570    0.1000
35     H35     1.9530   -1.0094   -4.2724 H        1 ZINC000114898570    0.0900
36     H36     0.5368   -0.4073   -3.3779 H        1 ZINC000114898570    0.0900
37     H37     4.3357   -4.8304   -1.3599 H        1 ZINC000114898570    0.1400
38     H38     4.7322   -8.6140    1.0637 H        1 ZINC000114898570    0.1500
39     H39     4.8715  -11.9800    0.9490 H        1 ZINC000114898570    0.1100
40     H40     4.1951  -10.5125    1.6955 H        1 ZINC000114898570    0.0600
41     H41     4.9416  -10.4270    0.0819 H        1 ZINC000114898570    0.0600
42     H42    10.4974  -10.4449    3.6313 H        1 ZINC000114898570    0.1100
43     H43    10.4447   -8.9252    2.7060 H        1 ZINC000114898570    0.0600
44     H44     9.6988   -9.0108    4.3199 H        1 ZINC000114898570    0.0600
45     H45     9.0819   -7.4298    3.1369 H        1 ZINC000114898570    0.1600
46     H46     6.9253   -3.4000    2.3506 H        1 ZINC000114898570    0.2000
47     H47     1.8260   -5.2788    2.0716 H        1 ZINC000114898570    0.1400
48     H48     0.4509   -3.3777    1.3351 H        1 ZINC000114898570    0.1400
@<TRIPOS>BOND
1     1     2     1
2     1     30    1
3     1     31    1
4     1     32    1
5     2     3     am
6     2     33    1
7     3     4     2
8     3     5     1
9     5     29    1
10    5     6     2
11    6     7     1
12    6     8     1
13    7     34    1
14    7     35    1
15    7     36    1
16    8     9     1
17    9     29    ar
18    9     10    ar
19    10    11    ar
20    10    37    1
21    11    12    1
22    11    27    ar
23    12    13    1
24    13    26    ar
25    13    14    ar
26    14    23    ar
27    14    15    ar
28    15    16    ar
29    15    38    1
30    16    17    1
31    16    19    ar
32    17    18    1
33    18    39    1
34    18    40    1
35    18    41    1
36    19    20    1
37    19    22    ar
38    20    21    1
39    21    42    1
40    21    43    1
41    21    44    1
42    22    23    ar
43    22    45    1
44    23    24    ar
45    24    25    ar
46    25    26    ar
47    25    46    1
48    27    28    ar
49    27    47    1
50    28    29    ar
51    28    48    1
@<TRIPOS>SUBSTRUCTURE
1   ZINC000114898570 1     RESIDUE    1   A     ZIN   1
