@<TRIPOS>MOLECULE
ZINC000034717656
70    71    1     0     0
SMALL
USER_CHARGES
@<TRIPOS>ATOM
1      C1      0.5252    0.0298    1.0216 C.3      1 ZINC000034717656   -0.1500
2      C2      0.3951   -1.4565    0.6827 C.3      1 ZINC000034717656   -0.1300
3      C3      1.0019   -1.7201   -0.6968 C.3      1 ZINC000034717656   -0.1200
4      C4      0.8718   -3.2064   -1.0357 C.3      1 ZINC000034717656   -0.1200
5      C5      1.4786   -3.4700   -2.4153 C.3      1 ZINC000034717656   -0.1200
6      C6      1.3485   -4.9563   -2.7541 C.3      1 ZINC000034717656   -0.1400
7      C7      1.9554   -5.2199   -4.1337 C.3      1 ZINC000034717656    0.1100
8      N8      1.8308   -6.6431   -4.4582 N.am     1 ZINC000034717656   -0.6200
9      C9      0.6411   -7.1333   -5.1586 C.3      1 ZINC000034717656    0.1300
10     C10     0.8772   -7.0720   -6.6691 C.3      1 ZINC000034717656   -0.0800
11     C11    -0.3466   -7.5763   -7.3896 C.ar     1 ZINC000034717656   -0.1400
12     C12    -0.4656   -8.9206   -7.6902 C.ar     1 ZINC000034717656   -0.0900
13     C13    -1.5864   -9.3853   -8.3506 C.ar     1 ZINC000034717656   -0.1700
14     C14    -2.5933   -8.5020   -8.7119 C.ar     1 ZINC000034717656    0.1700
15     O15    -3.6971   -8.9568   -9.3613 O.3      1 ZINC000034717656   -0.3000
16     C16    -4.6311   -7.9764   -9.8180 C.3      1 ZINC000034717656    0.0300
17     C17    -3.9335   -7.0199  -10.7872 C.3      1 ZINC000034717656   -0.1800
18     C18    -5.7910   -8.6715  -10.5337 C.3      1 ZINC000034717656   -0.0900
19     C19    -6.5648   -9.5327   -9.5335 C.3      1 ZINC000034717656   -0.1500
20     C20    -5.1607   -7.2000   -8.6400 C.2      1 ZINC000034717656    0.4900
21     O21    -4.7741   -7.4619   -7.5137 O.co2    1 ZINC000034717656   -0.6700
22     O22    -5.9757   -6.3099   -8.8132 O.co2    1 ZINC000034717656   -0.6900
23     C23    -2.4717   -7.1536   -8.4088 C.ar     1 ZINC000034717656   -0.1500
24     C24    -1.3511   -6.6947   -7.7439 C.ar     1 ZINC000034717656   -0.0900
25     C25     2.8106   -7.5014   -4.1123 C.2      1 ZINC000034717656    0.7100
26     O26     2.7072   -8.6826   -4.3816 O.2      1 ZINC000034717656   -0.5700
27     N27     3.9051   -7.0505   -3.4679 N.am     1 ZINC000034717656   -0.6800
28     C28     4.8735   -7.9562   -3.0127 C.ar     1 ZINC000034717656    0.1300
29     C29     5.1041   -9.1344   -3.7081 C.ar     1 ZINC000034717656   -0.0700
30     C30     6.0594  -10.0260   -3.2583 C.ar     1 ZINC000034717656   -0.1400
31     C31     6.7869   -9.7451   -2.1145 C.ar     1 ZINC000034717656    0.1100
32     F32     7.7204  -10.6185   -1.6776 F        1 ZINC000034717656   -0.1300
33     C33     6.5594   -8.5701   -1.4177 C.ar     1 ZINC000034717656   -0.1700
34     C34     5.6084   -7.6725   -1.8667 C.ar     1 ZINC000034717656    0.0900
35     F35     5.3865   -6.5259   -1.1876 F        1 ZINC000034717656   -0.1300
36     H36     1.5785    0.3100    1.0285 H        1 ZINC000034717656    0.0500
37     H37    -0.0031    0.6206    0.2734 H        1 ZINC000034717656    0.0500
38     H38     0.0929    0.2176    2.0044 H        1 ZINC000034717656    0.0500
39     H39     0.9234   -2.0474    1.4310 H        1 ZINC000034717656    0.0600
40     H40    -0.6583   -1.7368    0.6759 H        1 ZINC000034717656    0.0600
41     H41     0.4736   -1.1293   -1.4451 H        1 ZINC000034717656    0.0600
42     H42     2.0553   -1.4399   -0.6900 H        1 ZINC000034717656    0.0600
43     H43     1.4001   -3.7973   -0.2875 H        1 ZINC000034717656    0.0600
44     H44    -0.1815   -3.4867   -1.0426 H        1 ZINC000034717656    0.0600
45     H45     0.9503   -2.8792   -3.1635 H        1 ZINC000034717656    0.0700
46     H46     2.5320   -3.1898   -2.4084 H        1 ZINC000034717656    0.0600
47     H47     1.8768   -5.5472   -2.0059 H        1 ZINC000034717656    0.0600
48     H48     0.2952   -5.2366   -2.7610 H        1 ZINC000034717656    0.0700
49     H49     1.4271   -4.6291   -4.8819 H        1 ZINC000034717656    0.0900
50     H50     3.0087   -4.9397   -4.1268 H        1 ZINC000034717656    0.0700
51     H51     0.4443   -8.1638   -4.8631 H        1 ZINC000034717656    0.0900
52     H52    -0.2154   -6.5110   -4.8992 H        1 ZINC000034717656    0.0800
53     H53     1.0740   -6.0415   -6.9646 H        1 ZINC000034717656    0.0600
54     H54     1.7337   -7.6943   -6.9284 H        1 ZINC000034717656    0.0700
55     H55     0.3185   -9.6079   -7.4088 H        1 ZINC000034717656    0.1200
56     H56    -1.6785  -10.4354   -8.5859 H        1 ZINC000034717656    0.1200
57     H57    -3.7106   -7.5434  -11.7169 H        1 ZINC000034717656    0.0500
58     H58    -4.5870   -6.1727  -10.9950 H        1 ZINC000034717656    0.0700
59     H59    -3.0059   -6.6622  -10.3402 H        1 ZINC000034717656    0.0700
60     H60    -6.4575   -7.9211  -10.9590 H        1 ZINC000034717656    0.0800
61     H61    -5.3996   -9.3035  -11.3309 H        1 ZINC000034717656    0.0600
62     H62    -5.8983  -10.2831   -9.1082 H        1 ZINC000034717656    0.0600
63     H63    -6.9562   -8.9007   -8.7363 H        1 ZINC000034717656    0.0600
64     H64    -7.3912  -10.0279  -10.0434 H        1 ZINC000034717656    0.0400
65     H65    -3.2540   -6.4640   -8.6892 H        1 ZINC000034717656    0.1400
66     H66    -1.2561   -5.6452   -7.5074 H        1 ZINC000034717656    0.1100
67     H67     4.0227   -6.0992   -3.3190 H        1 ZINC000034717656    0.4100
68     H68     4.5371   -9.3548   -4.6004 H        1 ZINC000034717656    0.1700
69     H69     6.2385  -10.9432   -3.7997 H        1 ZINC000034717656    0.1500
70     H70     7.1278   -8.3530   -0.5253 H        1 ZINC000034717656    0.1500
@<TRIPOS>BOND
1     1     2     1
2     1     36    1
3     1     37    1
4     1     38    1
5     2     3     1
6     2     39    1
7     2     40    1
8     3     4     1
9     3     41    1
10    3     42    1
11    4     5     1
12    4     43    1
13    4     44    1
14    5     6     1
15    5     45    1
16    5     46    1
17    6     7     1
18    6     47    1
19    6     48    1
20    7     8     1
21    7     49    1
22    7     50    1
23    8     9     1
24    8     25    am
25    9     10    1
26    9     51    1
27    9     52    1
28    10    11    1
29    10    53    1
30    10    54    1
31    11    24    ar
32    11    12    ar
33    12    13    ar
34    12    55    1
35    13    14    ar
36    13    56    1
37    14    15    1
38    14    23    ar
39    15    16    1
40    16    17    1
41    16    18    1
42    16    20    1
43    17    57    1
44    17    58    1
45    17    59    1
46    18    19    1
47    18    60    1
48    18    61    1
49    19    62    1
50    19    63    1
51    19    64    1
52    20    21    ar
53    20    22    ar
54    23    24    ar
55    23    65    1
56    24    66    1
57    25    26    2
58    25    27    am
59    27    28    1
60    27    67    1
61    28    34    ar
62    28    29    ar
63    29    30    ar
64    29    68    1
65    30    31    ar
66    30    69    1
67    31    32    1
68    31    33    ar
69    33    34    ar
70    33    70    1
71    34    35    1
@<TRIPOS>SUBSTRUCTURE
1   ZINC000034717656 1     RESIDUE    1   A     ZIN   1
