@<TRIPOS>MOLECULE
ZINC000003927450
48    51    1     0     0
SMALL
USER_CHARGES
@<TRIPOS>ATOM
1      C1      1.2325    1.8487   -0.0547 C.3      1 ZINC000003927450    0.0300
2      O2      0.9753    0.4196   -0.0487 O.3      1 ZINC000003927450   -0.3500
3      C3      1.4648   -0.2833    0.9847 C.2      1 ZINC000003927450    0.4600
4      O4      2.0876    0.2768    1.8555 O.2      1 ZINC000003927450   -0.5000
5      C5      1.2376   -1.7713    1.0589 C.3      1 ZINC000003927450   -0.1100
6      C6      1.8938   -2.3249    2.3254 C.3      1 ZINC000003927450   -0.1400
7      C7      1.6631   -3.8355    2.4007 C.3      1 ZINC000003927450    0.1300
8      H8      2.0210   -4.3093    1.4866 H        1 ZINC000003927450    0.1600
9      N9      0.2340   -4.1112    2.5757 N.2      1 ZINC000003927450   -0.4800
10     C10    -0.4314   -3.6482    3.5750 C.2      1 ZINC000003927450    0.3100
11     C11    -1.8753   -3.9850    3.6107 C.ar     1 ZINC000003927450    0.1100
12     C12    -2.4274   -4.7660    2.5983 C.ar     1 ZINC000003927450   -0.1100
13     C13    -3.7778   -5.0724    2.6451 C.ar     1 ZINC000003927450   -0.0800
14     C14    -4.5300   -4.5867    3.7037 C.ar     1 ZINC000003927450   -0.1400
15     C15    -3.9153   -3.8156    4.6758 C.ar     1 ZINC000003927450    0.1100
16     N16    -2.6293   -3.5441    4.6098 N.ar     1 ZINC000003927450   -0.4600
17     C17     0.0681   -2.8274    4.6832 C.ar     1 ZINC000003927450   -0.0800
18     C18    -0.7278   -1.7583    5.1223 C.ar     1 ZINC000003927450    0.0000
19     C19    -0.3223   -0.9715    6.1768 C.ar     1 ZINC000003927450   -0.0800
20     Br20   -1.4068    0.4675    6.7504 Br       1 ZINC000003927450    0.0000
21     C21     0.8772   -1.2308    6.8194 C.ar     1 ZINC000003927450   -0.0400
22     C22     1.6765   -2.2715    6.3935 C.ar     1 ZINC000003927450   -0.1100
23     C23     1.2882   -3.0647    5.3190 C.ar     1 ZINC000003927450    0.1200
24     N24     2.1690   -4.0577    4.8816 N.pl3    1 ZINC000003927450   -0.3500
25     C25     2.9809   -4.8363    5.6623 C.2      1 ZINC000003927450    0.0700
26     C26     3.0571   -4.8314    7.1674 C.3      1 ZINC000003927450   -0.1100
27     C27     3.6984   -5.6079    4.8222 C.2      1 ZINC000003927450    0.0100
28     N28     3.3264   -5.3178    3.5654 N.pl3    1 ZINC000003927450   -0.4600
29     H29     3.6932   -5.7220    2.7635 H        1 ZINC000003927450    0.4700
30     C30     2.3947   -4.4054    3.5919 C.cat    1 ZINC000003927450    0.2900
31     H31     2.3082    2.0242   -0.0644 H        1 ZINC000003927450    0.0700
32     H32     0.7835    2.2949   -0.9420 H        1 ZINC000003927450    0.1100
33     H33     0.7989    2.2996    0.8379 H        1 ZINC000003927450    0.0700
34     H34     0.1671   -1.9745    1.0858 H        1 ZINC000003927450    0.1100
35     H35     1.6764   -2.2499    0.1834 H        1 ZINC000003927450    0.1200
36     H36     2.9643   -2.1217    2.2985 H        1 ZINC000003927450    0.1000
37     H37     1.4550   -1.8462    3.2008 H        1 ZINC000003927450    0.0900
38     H38    -1.8117   -5.1275    1.7880 H        1 ZINC000003927450    0.1500
39     H39    -4.2342   -5.6757    1.8743 H        1 ZINC000003927450    0.1500
40     H40    -5.5852   -4.8073    3.7693 H        1 ZINC000003927450    0.1500
41     H41    -4.4982   -3.4356    5.5018 H        1 ZINC000003927450    0.1700
42     H42    -1.6658   -1.5508    4.6288 H        1 ZINC000003927450    0.1600
43     H43     1.1868   -0.6182    7.6532 H        1 ZINC000003927450    0.1600
44     H44     2.6104   -2.4714    6.8978 H        1 ZINC000003927450    0.1600
45     H45     2.4246   -5.6246    7.5658 H        1 ZINC000003927450    0.1100
46     H46     4.0882   -4.9976    7.4795 H        1 ZINC000003927450    0.1200
47     H47     2.7138   -3.8684    7.5454 H        1 ZINC000003927450    0.1000
48     H48     4.4442   -6.3341    5.1102 H        1 ZINC000003927450    0.2300
@<TRIPOS>BOND
1     1     2     1
2     1     31    1
3     1     32    1
4     1     33    1
5     2     3     1
6     3     4     2
7     3     5     1
8     5     6     1
9     5     34    1
10    5     35    1
11    6     7     1
12    6     36    1
13    6     37    1
14    7     8     1
15    7     30    1
16    7     9     1
17    9     10    2
18    10    11    1
19    10    17    1
20    11    16    ar
21    11    12    ar
22    12    13    ar
23    12    38    1
24    13    14    ar
25    13    39    1
26    14    15    ar
27    14    40    1
28    15    16    ar
29    15    41    1
30    17    23    ar
31    17    18    ar
32    18    19    ar
33    18    42    1
34    19    20    1
35    19    21    ar
36    21    22    ar
37    21    43    1
38    22    23    ar
39    22    44    1
40    23    24    1
41    24    30    ar
42    24    25    1
43    25    26    1
44    25    27    2
45    26    45    1
46    26    46    1
47    26    47    1
48    27    28    1
49    27    48    1
50    28    29    1
51    28    30    ar
@<TRIPOS>SUBSTRUCTURE
1   ZINC000003927450 1     RESIDUE    1   A     ZIN   1
