@<TRIPOS>MOLECULE
ZINC000000005833
38    40    1     0     0
SMALL
USER_CHARGES
@<TRIPOS>ATOM
1      O1      0.0021   -0.0041    0.0020 O.2      1 ZINC000000005833   -0.5300
2      C2     -0.0144    1.2086    0.0087 C.2      1 ZINC000000005833    0.5300
3      N3      1.1435    1.8983    0.0013 N.am     1 ZINC000000005833   -0.7300
4      C4      2.4220    1.1832   -0.0147 C.3      1 ZINC000000005833    0.1200
5      C5      3.5713    2.1931   -0.0203 C.3      1 ZINC000000005833   -0.0900
6      C6      4.8864    1.4575   -0.0368 C.ar     1 ZINC000000005833   -0.0700
7      C7      5.4423    1.0319   -1.2550 C.ar     1 ZINC000000005833   -0.0400
8      C8      4.7952    1.2780   -2.4781 C.ar     1 ZINC000000005833   -0.1100
9      C9      5.3638    0.8512   -3.6385 C.ar     1 ZINC000000005833   -0.1100
10     C10     6.5807    0.1716   -3.6339 C.ar     1 ZINC000000005833   -0.1200
11     C11     7.2358   -0.0849   -2.4690 C.ar     1 ZINC000000005833   -0.1100
12     C12     6.6801    0.3412   -1.2504 C.ar     1 ZINC000000005833   -0.0500
13     C13     7.3271    0.0953   -0.0277 C.ar     1 ZINC000000005833   -0.1000
14     C14     6.7590    0.5233    1.1329 C.ar     1 ZINC000000005833   -0.1100
15     C15     5.5448    1.2067    1.1280 C.ar     1 ZINC000000005833   -0.1100
16     C16    -1.3296    1.9443    0.0189 C.3      1 ZINC000000005833   -0.1400
17     C17    -1.7840    2.4131   -1.3734 C.3      1 ZINC000000005833   -0.1200
18     C18    -2.4856    1.0521   -1.5161 C.3      1 ZINC000000005833   -0.1400
19     C19    -2.5551    1.0153    0.0197 C.3      1 ZINC000000005833   -0.1200
20     H20     1.1304    2.8682    0.0067 H        1 ZINC000000005833    0.4000
21     H21     2.4967    0.5526    0.8712 H        1 ZINC000000005833    0.0700
22     H22     2.4797    0.5621   -0.9086 H        1 ZINC000000005833    0.0700
23     H23     3.4966    2.8237   -0.9062 H        1 ZINC000000005833    0.0800
24     H24     3.5136    2.8141    0.8737 H        1 ZINC000000005833    0.0800
25     H25     3.8515    1.8028   -2.4969 H        1 ZINC000000005833    0.1300
26     H26     4.8645    1.0417   -4.5770 H        1 ZINC000000005833    0.1200
27     H27     7.0101   -0.1566   -4.5690 H        1 ZINC000000005833    0.1200
28     H28     8.1777   -0.6132   -2.4809 H        1 ZINC000000005833    0.1300
29     H29     8.2700   -0.4309   -0.0088 H        1 ZINC000000005833    0.1300
30     H30     7.2583    0.3327    2.0714 H        1 ZINC000000005833    0.1300
31     H31     5.1158    1.5358    2.0629 H        1 ZINC000000005833    0.1200
32     H32    -1.3724    2.7242    0.7792 H        1 ZINC000000005833    0.1000
33     H33    -2.4719    3.2582   -1.3466 H        1 ZINC000000005833    0.0900
34     H34    -0.9627    2.5566   -2.0754 H        1 ZINC000000005833    0.0700
35     H35    -3.4624    1.1126   -1.9960 H        1 ZINC000000005833    0.0700
36     H36    -1.8504    0.2761   -1.9432 H        1 ZINC000000005833    0.0800
37     H37    -2.3561    0.0305    0.4423 H        1 ZINC000000005833    0.0800
38     H38    -3.4537    1.4783    0.4273 H        1 ZINC000000005833    0.0900
@<TRIPOS>BOND
1     1     2     2
2     2     3     am
3     2     16    1
4     3     4     1
5     3     20    1
6     4     5     1
7     4     21    1
8     4     22    1
9     5     6     1
10    5     23    1
11    5     24    1
12    6     15    ar
13    6     7     ar
14    7     12    ar
15    7     8     ar
16    8     9     ar
17    8     25    1
18    9     10    ar
19    9     26    1
20    10    11    ar
21    10    27    1
22    11    12    ar
23    11    28    1
24    12    13    ar
25    13    14    ar
26    13    29    1
27    14    15    ar
28    14    30    1
29    15    31    1
30    16    19    1
31    16    17    1
32    16    32    1
33    17    18    1
34    17    33    1
35    17    34    1
36    18    19    1
37    18    35    1
38    18    36    1
39    19    37    1
40    19    38    1
@<TRIPOS>SUBSTRUCTURE
1   ZINC000000005833 1     RESIDUE    1   A     ZIN   1
