@<TRIPOS>MOLECULE
ZINC000205775084
32    33    1     0     0
SMALL
USER_CHARGES
@<TRIPOS>ATOM
1      C1      2.9061    0.1924   -0.3061 C.3      1 ZINC000205775084    0.0200
2      O2      1.9157   -0.8309   -0.1877 O.3      1 ZINC000205775084   -0.2900
3      C3      1.4203   -1.0683    1.0534 C.ar     1 ZINC000205775084    0.1700
4      C4      1.8717   -0.3297    2.1358 C.ar     1 ZINC000205775084   -0.2000
5      C5      1.3671   -0.5720    3.3988 C.ar     1 ZINC000205775084   -0.0600
6      C6      0.4081   -1.5532    3.5940 C.ar     1 ZINC000205775084   -0.0800
7      Cl7    -0.2168   -1.8464    5.1869 Cl       1 ZINC000205775084   -0.0700
8      C8     -0.0522   -2.2976    2.5276 C.ar     1 ZINC000205775084   -0.0500
9      C9      0.4457   -2.0578    1.2448 C.ar     1 ZINC000205775084   -0.0800
10     C10    -0.0418   -2.8497    0.1000 C.2      1 ZINC000205775084    0.2000
11     C11    -0.7591   -2.2511   -0.8975 C.2      1 ZINC000205775084   -0.2600
12     C12    -1.2114   -3.0342   -1.9783 C.2      1 ZINC000205775084    0.5100
13     O13    -1.8524   -2.5232   -2.8799 O.2      1 ZINC000205775084   -0.5700
14     N14    -0.9300   -4.3517   -2.0085 N.pl3    1 ZINC000205775084   -0.6100
15     C15    -0.2226   -4.9240   -1.0176 C.2      1 ZINC000205775084    0.5300
16     S16     0.1182   -6.6004   -1.0856 S.2      1 ZINC000205775084   -0.7400
17     N17     0.2263   -4.1989    0.0231 N.am     1 ZINC000205775084   -0.4800
18     C18     0.9942   -4.8504    1.0872 C.3      1 ZINC000205775084    0.0700
19     C19     2.4579   -4.8399    0.7288 C.2      1 ZINC000205775084    0.5100
20     N20     3.3606   -5.3886    1.5658 N.am     1 ZINC000205775084   -0.8600
21     O21     2.8237   -4.3377   -0.3128 O.2      1 ZINC000205775084   -0.5200
22     H22     3.7685   -0.0637    0.3094 H        1 ZINC000205775084    0.0600
23     H23     3.2160    0.2794   -1.3475 H        1 ZINC000205775084    0.1000
24     H24     2.4894    1.1420    0.0295 H        1 ZINC000205775084    0.0600
25     H25     2.6194    0.4362    1.9917 H        1 ZINC000205775084    0.1400
26     H26     1.7222    0.0064    4.2389 H        1 ZINC000205775084    0.1400
27     H27    -0.7996   -3.0614    2.6837 H        1 ZINC000205775084    0.1500
28     H28    -0.9764   -1.1939   -0.8580 H        1 ZINC000205775084    0.1300
29     H29     0.8456   -4.3130    2.0237 H        1 ZINC000205775084    0.1000
30     H30     0.6555   -5.8801    1.2014 H        1 ZINC000205775084    0.1500
31     H31     3.0681   -5.7903    2.3989 H        1 ZINC000205775084    0.4000
32     H32     4.3027   -5.3819    1.3352 H        1 ZINC000205775084    0.4000
@<TRIPOS>BOND
1     1     2     1
2     1     22    1
3     1     23    1
4     1     24    1
5     2     3     1
6     3     9     ar
7     3     4     ar
8     4     5     ar
9     4     25    1
10    5     6     ar
11    5     26    1
12    6     7     1
13    6     8     ar
14    8     9     ar
15    8     27    1
16    9     10    1
17    10    17    1
18    10    11    2
19    11    12    1
20    11    28    1
21    12    13    2
22    12    14    1
23    14    15    1
24    15    16    2
25    15    17    am
26    17    18    1
27    18    19    1
28    18    29    1
29    18    30    1
30    19    20    am
31    19    21    2
32    20    31    1
33    20    32    1
@<TRIPOS>SUBSTRUCTURE
1   ZINC000205775084 1     RESIDUE    1   A     ZIN   1
