@<TRIPOS>MOLECULE
ZINC000018710085
54    58    1     0     0
SMALL
USER_CHARGES
@<TRIPOS>ATOM
1      C1      0.0527    1.7234    0.2863 C.3      1 ZINC000018710085    0.0600
2      N2      1.0709    0.6968    0.5218 N.pl3    1 ZINC000018710085   -0.4600
3      C3      2.1924    0.4562   -0.2578 C.ar     1 ZINC000018710085    0.0900
4      C4      2.7008    1.0318   -1.4119 C.ar     1 ZINC000018710085   -0.0600
5      C5      3.8722    0.5530   -1.9612 C.ar     1 ZINC000018710085   -0.0700
6      C6      4.5483   -0.5059   -1.3636 C.ar     1 ZINC000018710085    0.1300
7      O7      5.7018   -0.9686   -1.9149 O.3      1 ZINC000018710085   -0.2300
8      C8      5.6931   -2.2106   -2.4624 C.ar     1 ZINC000018710085    0.1600
9      C9      4.5087   -2.9385   -2.5615 C.ar     1 ZINC000018710085   -0.2400
10     C10     4.5347   -4.1994   -3.1244 C.ar     1 ZINC000018710085    0.1500
11     N11     5.6607   -4.7212   -3.5673 N.ar     1 ZINC000018710085   -0.4900
12     C12     6.8132   -4.0633   -3.4932 C.ar     1 ZINC000018710085    0.2300
13     C13     8.0506   -4.6921   -4.0045 C.2      1 ZINC000018710085    0.2800
14     N14     9.2504   -4.1556   -3.9866 N.2      1 ZINC000018710085   -0.4500
15     C15    10.1231   -5.0096   -4.5306 C.2      1 ZINC000018710085    0.0700
16     C16     9.4544   -6.1210   -4.9043 C.2      1 ZINC000018710085   -0.1100
17     C17    10.0435   -7.3434   -5.5598 C.3      1 ZINC000018710085    0.5500
18     F18    10.0061   -7.1908   -6.9500 F        1 ZINC000018710085   -0.1700
19     F19    11.3697   -7.5023   -5.1437 F        1 ZINC000018710085   -0.1600
20     F20     9.3017   -8.4718   -5.1944 F        1 ZINC000018710085   -0.1700
21     N21     8.1426   -5.9304   -4.5698 N.pl3    1 ZINC000018710085   -0.5200
22     C22     6.8648   -2.7851   -2.9432 C.ar     1 ZINC000018710085   -0.1400
23     C23     4.0544   -1.0897   -0.2127 C.ar     1 ZINC000018710085   -0.1000
24     C24     2.8689   -0.6134    0.3519 C.ar     1 ZINC000018710085    0.0800
25     N25     2.1497   -0.9687    1.4486 N.pl3    1 ZINC000018710085   -0.5300
26     H26     2.3830   -1.6823    2.0628 H        1 ZINC000018710085    0.4600
27     C27     1.0960   -0.1977    1.5531 C.cat    1 ZINC000018710085    0.6400
28     N28     0.1479   -0.2820    2.5528 N.pl3    1 ZINC000018710085   -0.6200
29     C29     0.3413   -1.1546    3.6278 C.ar     1 ZINC000018710085    0.1100
30     C30     0.3927   -2.5257    3.4108 C.ar     1 ZINC000018710085   -0.1300
31     C31     0.5843   -3.3849    4.4749 C.ar     1 ZINC000018710085   -0.0500
32     C32     0.7244   -2.8817    5.7554 C.ar     1 ZINC000018710085   -0.1500
33     C33     0.9328   -3.8224    6.9142 C.3      1 ZINC000018710085    0.5100
34     F34     2.3027   -4.0371    7.0999 F        1 ZINC000018710085   -0.1700
35     F35     0.3872   -3.2617    8.0739 F        1 ZINC000018710085   -0.1700
36     F36     0.3020   -5.0416    6.6444 F        1 ZINC000018710085   -0.1700
37     C37     0.6741   -1.5173    5.9748 C.ar     1 ZINC000018710085   -0.0500
38     C38     0.4881   -0.6522    4.9145 C.ar     1 ZINC000018710085   -0.1000
39     H39     0.3412    2.6443    0.7932 H        1 ZINC000018710085    0.1100
40     H40    -0.0346    1.9098   -0.7841 H        1 ZINC000018710085    0.1200
41     H41    -0.9061    1.3800    0.6747 H        1 ZINC000018710085    0.1000
42     H42     2.1803    1.8538   -1.8806 H        1 ZINC000018710085    0.1600
43     H43     4.2665    1.0026   -2.8606 H        1 ZINC000018710085    0.1700
44     H44     3.5800   -2.5209   -2.2014 H        1 ZINC000018710085    0.1400
45     H45     3.6188   -4.7662   -3.2023 H        1 ZINC000018710085    0.1700
46     H46    11.1827   -4.8392   -4.6511 H        1 ZINC000018710085    0.2000
47     H47     7.4143   -6.5550   -4.7125 H        1 ZINC000018710085    0.4400
48     H48     7.8018   -2.2512   -2.8837 H        1 ZINC000018710085    0.1700
49     H49     4.5824   -1.9115    0.2480 H        1 ZINC000018710085    0.1600
50     H50    -0.6525    0.2643    2.5094 H        1 ZINC000018710085    0.4500
51     H51     0.2827   -2.9193    2.4112 H        1 ZINC000018710085    0.1500
52     H52     0.6244   -4.4510    4.3069 H        1 ZINC000018710085    0.1600
53     H53     0.7842   -1.1276    6.9760 H        1 ZINC000018710085    0.1600
54     H54     0.4493    0.4133    5.0865 H        1 ZINC000018710085    0.1500
@<TRIPOS>BOND
1     1     2     1
2     1     39    1
3     1     40    1
4     1     41    1
5     2     27    ar
6     2     3     1
7     3     24    ar
8     3     4     ar
9     4     5     ar
10    4     42    1
11    5     6     ar
12    5     43    1
13    6     7     1
14    6     23    ar
15    7     8     1
16    8     22    ar
17    8     9     ar
18    9     10    ar
19    9     44    1
20    10    11    ar
21    10    45    1
22    11    12    ar
23    12    13    1
24    12    22    ar
25    13    21    1
26    13    14    2
27    14    15    1
28    15    16    2
29    15    46    1
30    16    17    1
31    16    21    1
32    17    18    1
33    17    19    1
34    17    20    1
35    21    47    1
36    22    48    1
37    23    24    ar
38    23    49    1
39    24    25    1
40    25    26    1
41    25    27    ar
42    27    28    ar
43    28    29    1
44    28    50    1
45    29    38    ar
46    29    30    ar
47    30    31    ar
48    30    51    1
49    31    32    ar
50    31    52    1
51    32    33    1
52    32    37    ar
53    33    34    1
54    33    35    1
55    33    36    1
56    37    38    ar
57    37    53    1
58    38    54    1
@<TRIPOS>SUBSTRUCTURE
1   ZINC000018710085 1     RESIDUE    1   A     ZIN   1
