@<TRIPOS>MOLECULE
ZINC000056898832
73    74    1     0     0
SMALL
USER_CHARGES
@<TRIPOS>ATOM
1      C1     -0.0187    1.5258    0.0104 C.3      1 ZINC000056898832   -0.1500
2      C2      0.0021   -0.0041    0.0020 C.3      1 ZINC000056898832    0.0600
3      O3      0.7043   -0.4851    1.1784 O.3      1 ZINC000056898832   -0.3400
4      C4      0.8118   -1.8153    1.3225 C.2      1 ZINC000056898832    0.4700
5      O5      0.3348   -2.5533    0.4932 O.2      1 ZINC000056898832   -0.5000
6      C6      1.5273   -2.3882    2.5187 C.3      1 ZINC000056898832    0.2000
7      H7      2.5596   -2.0383    2.5266 H        1 ZINC000056898832    0.1400
8      N8      1.5082   -3.8512    2.4446 N.am     1 ZINC000056898832   -0.7100
9      C9      2.4617   -4.5701    3.0693 C.2      1 ZINC000056898832    0.5300
10     O10     3.3357   -4.0059    3.6929 O.2      1 ZINC000056898832   -0.5200
11     C11     2.4421   -6.0751    2.9931 C.3      1 ZINC000056898832    0.1500
12     H12     2.5171   -6.3871    1.9515 H        1 ZINC000056898832    0.1300
13     C13     1.1341   -6.5988    3.5895 C.3      1 ZINC000056898832   -0.1200
14     S14     1.1104   -8.4104    3.4978 S.3      1 ZINC000056898832   -0.1700
15     C15    -0.4895   -8.8356    4.2395 C.3      1 ZINC000056898832   -0.0800
16     C16    -0.6623  -10.3327    4.2370 C.ar     1 ZINC000056898832   -0.0700
17     C17    -1.2526  -10.9585    3.1551 C.ar     1 ZINC000056898832   -0.1000
18     C18    -1.4111  -12.3318    3.1528 C.ar     1 ZINC000056898832   -0.1200
19     C19    -0.9788  -13.0792    4.2323 C.ar     1 ZINC000056898832   -0.1100
20     C20    -0.3876  -12.4534    5.3139 C.ar     1 ZINC000056898832   -0.1200
21     C21    -0.2253  -11.0807    5.3143 C.ar     1 ZINC000056898832   -0.1000
22     N22     3.5746   -6.6171    3.7481 N.am     1 ZINC000056898832   -0.7100
23     C23     4.0707   -7.8316    3.4395 C.2      1 ZINC000056898832    0.5200
24     O24     3.5797   -8.4757    2.5368 O.2      1 ZINC000056898832   -0.5000
25     C25     5.2357   -8.3892    4.2160 C.3      1 ZINC000056898832   -0.1500
26     C26     5.5994   -9.7707    3.6683 C.3      1 ZINC000056898832   -0.1300
27     C27     6.7821  -10.3367    4.4567 C.3      1 ZINC000056898832    0.0400
28     H28     6.5417  -10.3402    5.5198 H        1 ZINC000056898832    0.1800
29     N29     7.9689   -9.5024    4.2257 N.4      1 ZINC000056898832   -0.6300
30     H30     7.7815   -8.5592    4.5313 H        1 ZINC000056898832    0.4500
31     H31     8.7488   -9.8757    4.7457 H        1 ZINC000056898832    0.4400
32     H32     8.1914   -9.4991    3.2416 H        1 ZINC000056898832    0.4400
33     C33     7.0619  -11.7455    4.0003 C.2      1 ZINC000056898832    0.4600
34     O34     7.9601  -11.9610    3.2214 O.2      1 ZINC000056898832   -0.4900
35     O35     6.3133  -12.7608    4.4591 O.3      1 ZINC000056898832   -0.3300
36     C36     6.6396  -14.0908    3.9767 C.3      1 ZINC000056898832    0.0600
37     C37     5.6862  -15.1093    4.6048 C.3      1 ZINC000056898832   -0.1600
38     C38     0.8353   -1.9400    3.7801 C.ar     1 ZINC000056898832   -0.1100
39     C39    -0.3105   -2.5852    4.2065 C.ar     1 ZINC000056898832   -0.1000
40     C40    -0.9453   -2.1741    5.3637 C.ar     1 ZINC000056898832   -0.1200
41     C41    -0.4340   -1.1181    6.0947 C.ar     1 ZINC000056898832   -0.1100
42     C42     0.7123   -0.4735    5.6688 C.ar     1 ZINC000056898832   -0.1200
43     C43     1.3495   -0.8874    4.5139 C.ar     1 ZINC000056898832   -0.0800
44     H44     1.0039    1.9031    0.0027 H        1 ZINC000056898832    0.0700
45     H45    -0.5459    1.8868   -0.8726 H        1 ZINC000056898832    0.0900
46     H46    -0.5289    1.8773    0.9072 H        1 ZINC000056898832    0.0700
47     H47    -1.0205   -0.3814    0.0098 H        1 ZINC000056898832    0.0700
48     H48     0.5123   -0.3556   -0.8948 H        1 ZINC000056898832    0.0700
49     H49     0.8092   -4.3025    1.9459 H        1 ZINC000056898832    0.4200
50     H50     1.0590   -6.2868    4.6312 H        1 ZINC000056898832    0.0900
51     H51     0.2915   -6.1956    3.0278 H        1 ZINC000056898832    0.1000
52     H52    -0.5239   -8.4676    5.2649 H        1 ZINC000056898832    0.0900
53     H53    -1.2915   -8.3764    3.6615 H        1 ZINC000056898832    0.0900
54     H54    -1.5904  -10.3746    2.3117 H        1 ZINC000056898832    0.1200
55     H55    -1.8730  -12.8206    2.3078 H        1 ZINC000056898832    0.1300
56     H56    -1.1033  -14.1520    4.2308 H        1 ZINC000056898832    0.1200
57     H57    -0.0502  -13.0374    6.1574 H        1 ZINC000056898832    0.1200
58     H58     0.2366  -10.5918    6.1593 H        1 ZINC000056898832    0.1200
59     H59     3.9673   -6.1019    4.4701 H        1 ZINC000056898832    0.4100
60     H60     6.0917   -7.7218    4.1161 H        1 ZINC000056898832    0.0900
61     H61     4.9632   -8.4756    5.2679 H        1 ZINC000056898832    0.1200
62     H62     4.7434  -10.4380    3.7682 H        1 ZINC000056898832    0.1400
63     H63     5.8719   -9.6842    2.6164 H        1 ZINC000056898832    0.1100
64     H64     6.5380  -14.1189    2.8918 H        1 ZINC000056898832    0.0800
65     H65     7.6655  -14.3356    4.2520 H        1 ZINC000056898832    0.0800
66     H66     5.9311  -16.1078    4.2427 H        1 ZINC000056898832    0.0900
67     H67     5.7878  -15.0812    5.6897 H        1 ZINC000056898832    0.0700
68     H68     4.6603  -14.8645    4.3296 H        1 ZINC000056898832    0.0700
69     H69    -0.7100   -3.4102    3.6354 H        1 ZINC000056898832    0.1200
70     H70    -1.8409   -2.6777    5.6964 H        1 ZINC000056898832    0.1300
71     H71    -0.9303   -0.7964    6.9983 H        1 ZINC000056898832    0.1300
72     H72     1.1116    0.3517    6.2397 H        1 ZINC000056898832    0.1300
73     H73     2.2451   -0.3838    4.1812 H        1 ZINC000056898832    0.1300
@<TRIPOS>BOND
1     1     2     1
2     1     44    1
3     1     45    1
4     1     46    1
5     2     3     1
6     2     47    1
7     2     48    1
8     3     4     1
9     4     5     2
10    4     6     1
11    6     7     1
12    6     8     1
13    6     38    1
14    8     9     am
15    8     49    1
16    9     10    2
17    9     11    1
18    11    12    1
19    11    13    1
20    11    22    1
21    13    14    1
22    13    50    1
23    13    51    1
24    14    15    1
25    15    16    1
26    15    52    1
27    15    53    1
28    16    21    ar
29    16    17    ar
30    17    18    ar
31    17    54    1
32    18    19    ar
33    18    55    1
34    19    20    ar
35    19    56    1
36    20    21    ar
37    20    57    1
38    21    58    1
39    22    23    am
40    22    59    1
41    23    24    2
42    23    25    1
43    25    26    1
44    25    60    1
45    25    61    1
46    26    27    1
47    26    62    1
48    26    63    1
49    27    28    1
50    27    29    1
51    27    33    1
52    29    30    1
53    29    31    1
54    29    32    1
55    33    34    2
56    33    35    1
57    35    36    1
58    36    37    1
59    36    64    1
60    36    65    1
61    37    66    1
62    37    67    1
63    37    68    1
64    38    43    ar
65    38    39    ar
66    39    40    ar
67    39    69    1
68    40    41    ar
69    40    70    1
70    41    42    ar
71    41    71    1
72    42    43    ar
73    42    72    1
74    43    73    1
@<TRIPOS>SUBSTRUCTURE
1   ZINC000056898832 1     RESIDUE    1   A     ZIN   1
