@<TRIPOS>MOLECULE
ZINC000000607798
  46   50    0    0    0
SMALL
USER_CHARGES
NO_NAME
@<TRIPOS>ATOM
    1 C1       -0.0068     1.4912     0.0401 C.3    1 <0>      -0.0500
    2 N2        0.0079     0.0223     0.0312 N.4    1 <0>      -0.3900
    3 H3       -0.9321    -0.3355     0.1109 H      1 <0>       0.4200
    4 C4        0.6393    -0.4745    -1.2152 C.3    1 <0>      -0.0300
    5 C5        1.8517    -1.3342    -0.7409 C.3    1 <0>       0.1500
    6 H6        2.2312    -2.0661    -1.4540 H      1 <0>       0.1500
    7 C7        1.2637    -1.9028     0.6001 C.3    1 <0>      -0.1500
    8 C8        0.8522    -0.4915     1.1557 C.3    1 <0>       0.0200
    9 H9        0.4112    -0.4705     2.1523 H      1 <0>       0.1800
   10 C10       2.2082     0.2609     0.9848 C.3    1 <0>       0.1000
   11 N11       2.8373    -0.3303    -0.2418 N.pl3  1 <0>      -0.6800
   12 C12       4.0803    -0.0100    -0.7818 C.ar   1 <0>       0.1900
   13 C13       5.2060    -0.7091    -0.3774 C.ar   1 <0>      -0.1500
   14 C14       6.4476    -0.3909    -0.9152 C.ar   1 <0>       0.2100
   15 C15       6.5396     0.6415    -1.8662 C.ar   1 <0>      -0.1600
   16 C16       5.3956     1.3382    -2.2642 C.ar   1 <0>      -0.0500
   17 C17       4.1813     1.0103    -1.7315 C.ar   1 <0>       0.0400
   18 F18       3.0746     1.6830    -2.1160 F      1 <0>      -0.1500
   19 C19       7.8611     0.9680    -2.4275 C.2    1 <0>       0.4100
   20 O20       7.9989     1.8529    -3.2540 O.2    1 <0>      -0.4400
   21 C21       9.0099     0.1803    -1.9477 C.2    1 <0>      -0.2800
   22 C22      10.3595     0.4440    -2.4572 C.2    1 <0>       0.5300
   23 O23      11.3068    -0.2167    -2.0515 O.co2  1 <0>      -0.7000
   24 O24      10.5387     1.3247    -3.2882 O.co2  1 <0>      -0.6600
   25 C25       8.7946    -0.8107    -1.0092 C.2    1 <0>       0.1400
   26 N26       7.5772    -1.0779    -0.5219 N.pl3  1 <0>      -0.4600
   27 C27       7.4381    -2.1462     0.4709 C.3    1 <0>       0.0400
   28 C28       8.6930    -2.9441     0.8305 C.3    1 <0>      -0.1800
   29 C29       8.1122    -1.9407     1.8289 C.3    1 <0>      -0.1800
   30 H30       0.9745     1.8662    -0.2507 H      1 <0>       0.1300
   31 H31      -0.7567     1.8513    -0.6643 H      1 <0>       0.1200
   32 H32      -0.2491     1.8461     1.0418 H      1 <0>       0.1200
   33 H33      -0.0641    -1.0892    -1.7769 H      1 <0>       0.1400
   34 H34       0.9833     0.3614    -1.8244 H      1 <0>       0.1400
   35 H35       0.4021    -2.5494     0.4338 H      1 <0>       0.1100
   36 H36       2.0239    -2.3848     1.2147 H      1 <0>       0.1300
   37 H37       2.0336     1.3267     0.8374 H      1 <0>       0.0900
   38 H38       2.8438     0.0976     1.8551 H      1 <0>       0.1000
   39 H39       5.1191    -1.4990     0.3540 H      1 <0>       0.1400
   40 H40       5.4705     2.1302    -2.9946 H      1 <0>       0.1500
   41 H41       9.6364    -1.3887    -0.6574 H      1 <0>       0.1800
   42 H42       6.4883    -2.6809     0.4562 H      1 <0>       0.1400
   43 H43       8.5691    -4.0041     1.0524 H      1 <0>       0.1100
   44 H44       9.6221    -2.6742     0.3285 H      1 <0>       0.1200
   45 H45       8.6592    -1.0107     1.9837 H      1 <0>       0.1100
   46 H46       7.6062    -2.3405     2.7076 H      1 <0>       0.1100
@<TRIPOS>BOND
   1    1    2 1
   2    1   30 1
   3    1   31 1
   4    1   32 1
   5    2    3 1
   6    2    8 1
   7    2    4 1
   8    4    5 1
   9    4   33 1
  10    4   34 1
  11    5    6 1
  12    5   11 1
  13    5    7 1
  14    7    8 1
  15    7   35 1
  16    7   36 1
  17    8    9 1
  18    8   10 1
  19   10   11 1
  20   10   37 1
  21   10   38 1
  22   11   12 1
  23   12   17 ar
  24   12   13 ar
  25   13   14 ar
  26   13   39 1
  27   14   26 1
  28   14   15 ar
  29   15   16 ar
  30   15   19 1
  31   16   17 ar
  32   16   40 1
  33   17   18 1
  34   19   20 2
  35   19   21 1
  36   21   22 1
  37   21   25 2
  38   22   23 ar
  39   22   24 ar
  40   25   26 1
  41   25   41 1
  42   26   27 1
  43   27   29 1
  44   27   28 1
  45   27   42 1
  46   28   29 1
  47   28   43 1
  48   28   44 1
  49   29   45 1
  50   29   46 1
