@<TRIPOS>MOLECULE
ZINC000001091444
  29   30    0    0    0
SMALL
USER_CHARGES
NO_NAME
@<TRIPOS>ATOM
    1 N1       -0.0162     1.3436     0.0094 N.am   1 <0>      -0.8300
    2 C2        0.0021    -0.0041     0.0020 C.2    1 <0>       0.6200
    3 O3        1.0629    -0.5974    -0.0113 O.2    1 <0>      -0.5200
    4 C4       -1.2683    -0.7608     0.0101 C.2    1 <0>       0.1400
    5 N5       -1.3891    -2.0702     0.0095 N.2    1 <0>      -0.2300
    6 N6       -2.6423    -2.3695     0.0187 N.pl3  1 <0>      -0.3000
    7 C7       -3.1986    -3.7248     0.0222 C.3    1 <0>       0.3200
    8 H8       -4.2855    -3.6792    -0.0461 H      1 <0>       0.1400
    9 O9       -2.8127    -4.4085     1.2262 O.3    1 <0>      -0.3400
   10 C10      -2.6361    -5.7997     0.8829 C.3    1 <0>       0.0900
   11 H11      -3.6006    -6.3018     0.8073 H      1 <0>       0.1100
   12 C12      -1.7454    -6.4996     1.9113 C.3    1 <0>       0.0900
   13 O13      -2.4188    -6.5472     3.1708 O.3    1 <0>      -0.5700
   14 C14      -1.9393    -5.7451    -0.5005 C.3    1 <0>       0.0500
   15 H15      -2.1290    -6.6563    -1.0679 H      1 <0>       0.0900
   16 O16      -0.5355    -5.5202    -0.3559 O.3    1 <0>      -0.5300
   17 C17      -2.6321    -4.5267    -1.1656 C.3    1 <0>       0.0400
   18 H18      -1.9063    -3.9293    -1.7172 H      1 <0>       0.1000
   19 O19      -3.6829    -4.9601    -2.0316 O.3    1 <0>      -0.5500
   20 C20      -3.3541    -1.2273     0.0255 C.2    1 <0>       0.2100
   21 N21      -2.5052    -0.2313     0.0252 N.2    1 <0>      -0.4800
   22 H22       0.8172     1.8399     0.0041 H      1 <0>       0.4100
   23 H23      -0.8627     1.8171     0.0160 H      1 <0>       0.4100
   24 H24      -1.5307    -7.5141     1.5755 H      1 <0>       0.0700
   25 H25      -0.8118    -5.9474     2.0191 H      1 <0>       0.0700
   26 H26      -1.9115    -6.9785     3.8720 H      1 <0>       0.3900
   27 H27      -0.0555    -5.4781    -1.1943 H      1 <0>       0.3900
   28 H28      -3.3848    -5.5181    -2.7630 H      1 <0>       0.4000
   29 H29      -4.4311    -1.1472     0.0338 H      1 <0>       0.2300
@<TRIPOS>BOND
   1    1    2 am
   2    1   22 1
   3    1   23 1
   4    2    3 2
   5    2    4 1
   6    4   21 1
   7    4    5 2
   8    5    6 1
   9    6    7 1
  10    6   20 1
  11    7    8 1
  12    7   17 1
  13    7    9 1
  14    9   10 1
  15   10   11 1
  16   10   12 1
  17   10   14 1
  18   12   13 1
  19   12   24 1
  20   12   25 1
  21   13   26 1
  22   14   15 1
  23   14   16 1
  24   14   17 1
  25   16   27 1
  26   17   18 1
  27   17   19 1
  28   19   28 1
  29   20   21 2
  30   20   29 1
