@<TRIPOS>MOLECULE
ZINC000003931527
68    72    1     0     0
SMALL
USER_CHARGES
@<TRIPOS>ATOM
1      C1     -0.0173    1.4248    0.0099 C.3      1 ZINC000003931527    0.0200
2      O2      0.0021   -0.0041    0.0020 O.3      1 ZINC000003931527   -0.3000
3      C3      0.6262   -0.6188    1.0422 C.ar     1 ZINC000003931527    0.1600
4      C4      1.2019    0.1365    2.0506 C.ar     1 ZINC000003931527   -0.2000
5      C5      1.8358   -0.4901    3.1079 C.ar     1 ZINC000003931527   -0.0100
6      C6      1.8971   -1.8698    3.1612 C.ar     1 ZINC000003931527   -0.6700
7      S7      2.7068   -2.6623    4.5107 S.o2     1 ZINC000003931527    2.6900
8      O8      3.0940   -3.9485    4.0470 O.2      1 ZINC000003931527   -0.9400
9      O9      3.6271   -1.7166    5.0378 O.2      1 ZINC000003931527   -0.9400
10     N10     1.5682   -2.9124    5.6869 N.am     1 ZINC000003931527   -0.9100
11     C11     1.2580   -2.0087    6.7054 C.ar     1 ZINC000003931527    0.2000
12     C12     1.8006   -0.7490    6.9658 C.ar     1 ZINC000003931527   -0.1400
13     C13     1.3506   -0.0055    8.0362 C.ar     1 ZINC000003931527   -0.0600
14     C14     0.3574   -0.5029    8.8610 C.ar     1 ZINC000003931527   -0.0600
15     Cl15   -0.2069    0.4358   10.2079 Cl       1 ZINC000003931527   -0.0600
16     C16    -0.1850   -1.7506    8.6091 C.ar     1 ZINC000003931527   -0.0500
17     C17     0.2630   -2.4982    7.5374 C.ar     1 ZINC000003931527   -0.1500
18     C18    -0.1474   -3.8669    7.0424 C.3      1 ZINC000003931527    0.2400
19     O19    -1.5278   -3.8702    6.6727 O.3      1 ZINC000003931527   -0.5100
20     C20     0.1151   -4.9087    8.0992 C.ar     1 ZINC000003931527   -0.1100
21     C21    -0.9227   -5.6875    8.5748 C.ar     1 ZINC000003931527   -0.0900
22     C22    -0.6819   -6.6433    9.5445 C.ar     1 ZINC000003931527   -0.1100
23     C23     0.5966   -6.8202   10.0390 C.ar     1 ZINC000003931527   -0.1000
24     C24     1.6355   -6.0417    9.5640 C.ar     1 ZINC000003931527   -0.1000
25     C25     1.3964   -5.0895    8.5895 C.ar     1 ZINC000003931527   -0.0200
26     Cl26    2.7006   -4.1116    7.9924 Cl       1 ZINC000003931527   -0.0600
27     C27     0.7348   -4.1116    5.8073 C.3      1 ZINC000003931527    0.1500
28     C28    -0.1215   -4.2873    4.5797 C.2      1 ZINC000003931527    0.5400
29     O29    -0.2764   -3.3621    3.8110 O.2      1 ZINC000003931527   -0.5000
30     N30    -0.7152   -5.4725    4.3361 N.am     1 ZINC000003931527   -0.5900
31     C31    -0.6174   -6.6731    5.1860 C.3      1 ZINC000003931527    0.0900
32     C32    -1.8901   -7.4941    4.8604 C.3      1 ZINC000003931527   -0.1300
33     C33    -2.0422   -7.2420    3.3370 C.3      1 ZINC000003931527   -0.1300
34     C34    -1.5726   -5.7802    3.1822 C.3      1 ZINC000003931527    0.1200
35     H35    -0.9998   -5.6704    2.2613 H        1 ZINC000003931527    0.1000
36     C36    -2.7649   -4.8588    3.1567 C.2      1 ZINC000003931527    0.5000
37     N37    -3.6876   -4.9775    2.1815 N.am     1 ZINC000003931527   -0.8600
38     O38    -2.8941   -4.0105    4.0138 O.2      1 ZINC000003931527   -0.4900
39     C39     1.3241   -2.6298    2.1580 C.ar     1 ZINC000003931527   -0.0200
40     C40     0.6830   -2.0084    1.0988 C.ar     1 ZINC000003931527    0.0800
41     O41     0.1189   -2.7543    0.1114 O.3      1 ZINC000003931527   -0.3000
42     C42     0.2250   -4.1744    0.2301 C.3      1 ZINC000003931527    0.0200
43     H43     1.0053    1.8021    0.0021 H        1 ZINC000003931527    0.0600
44     H44    -0.5445    1.7859   -0.8732 H        1 ZINC000003931527    0.1100
45     H45    -0.5275    1.7763    0.9067 H        1 ZINC000003931527    0.0600
46     H46     1.1560    1.2148    2.0110 H        1 ZINC000003931527    0.1500
47     H47     2.2843    0.0999    3.8935 H        1 ZINC000003931527    0.1400
48     H48     2.5767   -0.3552    6.3262 H        1 ZINC000003931527    0.1500
49     H49     1.7750    0.9682    8.2316 H        1 ZINC000003931527    0.1500
50     H50    -0.9604   -2.1409    9.2517 H        1 ZINC000003931527    0.1400
51     H51    -2.1305   -3.6673    7.4012 H        1 ZINC000003931527    0.3800
52     H52    -1.9220   -5.5493    8.1893 H        1 ZINC000003931527    0.1400
53     H53    -1.4933   -7.2517    9.9159 H        1 ZINC000003931527    0.1300
54     H54     0.7839   -7.5664   10.7969 H        1 ZINC000003931527    0.1400
55     H55     2.6345   -6.1800    9.9504 H        1 ZINC000003931527    0.1400
56     H56     1.3634   -4.9890    5.9594 H        1 ZINC000003931527    0.1200
57     H57     0.2767   -7.2438    4.9349 H        1 ZINC000003931527    0.0800
58     H58    -0.6061   -6.3925    6.2392 H        1 ZINC000003931527    0.0800
59     H59    -1.7357   -8.5530    5.0677 H        1 ZINC000003931527    0.0900
60     H60    -2.7520   -7.1121    5.4076 H        1 ZINC000003931527    0.0800
61     H61    -1.4038   -7.9183    2.7686 H        1 ZINC000003931527    0.0900
62     H62    -3.0834   -7.3446    3.0312 H        1 ZINC000003931527    0.0900
63     H63    -3.5842   -5.6560    1.4960 H        1 ZINC000003931527    0.4000
64     H64    -4.4550   -4.3845    2.1652 H        1 ZINC000003931527    0.4000
65     H65     1.3734   -3.7078    2.2020 H        1 ZINC000003931527    0.1400
66     H66     1.2767   -4.4600    0.2483 H        1 ZINC000003931527    0.0600
67     H67    -0.2556   -4.4988    1.1530 H        1 ZINC000003931527    0.0500
68     H68    -0.2653   -4.6477   -0.6207 H        1 ZINC000003931527    0.1000
@<TRIPOS>BOND
1     1     2     1
2     1     43    1
3     1     44    1
4     1     45    1
5     2     3     1
6     3     40    ar
7     3     4     ar
8     4     5     ar
9     4     46    1
10    5     6     ar
11    5     47    1
12    6     7     1
13    6     39    ar
14    7     8     2
15    7     9     2
16    7     10    am
17    10    27    1
18    10    11    1
19    11    17    ar
20    11    12    ar
21    12    13    ar
22    12    48    1
23    13    14    ar
24    13    49    1
25    14    15    1
26    14    16    ar
27    16    17    ar
28    16    50    1
29    17    18    1
30    18    19    1
31    18    20    1
32    18    27    1
33    19    51    1
34    20    25    ar
35    20    21    ar
36    21    22    ar
37    21    52    1
38    22    23    ar
39    22    53    1
40    23    24    ar
41    23    54    1
42    24    25    ar
43    24    55    1
44    25    26    1
45    27    28    1
46    27    56    1
47    28    29    2
48    28    30    am
49    30    34    1
50    30    31    1
51    31    32    1
52    31    57    1
53    31    58    1
54    32    33    1
55    32    59    1
56    32    60    1
57    33    34    1
58    33    61    1
59    33    62    1
60    34    35    1
61    34    36    1
62    36    37    am
63    36    38    2
64    37    63    1
65    37    64    1
66    39    40    ar
67    39    65    1
68    40    41    1
69    41    42    1
70    42    66    1
71    42    67    1
72    42    68    1
@<TRIPOS>SUBSTRUCTURE
1   ZINC000003931527 1     RESIDUE    1   A     ZIN   1
