@<TRIPOS>MOLECULE
ZINC000043169621
57    60    1     0     0
SMALL
USER_CHARGES
@<TRIPOS>ATOM
1      C1      0.4877    2.8988   -0.2330 C.3      1 ZINC000043169621   -0.1600
2      C2      0.6420    1.4169    0.1147 C.3      1 ZINC000043169621   -0.1200
3      C3      1.2824    0.6806   -1.0637 C.3      1 ZINC000043169621    0.1900
4      H4      2.2224    1.1653   -1.3275 H        1 ZINC000043169621    0.0900
5      N5      0.3750    0.7165   -2.2133 N.am     1 ZINC000043169621   -0.7200
6      C6      0.3791    1.7792   -3.0421 C.2      1 ZINC000043169621    0.6100
7      O7      1.1362    2.7084   -2.8358 O.2      1 ZINC000043169621   -0.5300
8      C8     -0.5332    1.8153   -4.1979 C.ar     1 ZINC000043169621   -0.1800
9      C9     -1.8133    2.3666   -4.0975 C.ar     1 ZINC000043169621    0.2800
10     N10    -2.2562    2.8957   -2.8986 N.pl3    1 ZINC000043169621   -1.1400
11     S11    -2.4762    4.5299   -2.7457 S.o2     1 ZINC000043169621    2.5400
12     C12    -2.9014    4.7678   -0.9984 C.3      1 ZINC000043169621   -0.6400
13     O13    -1.1982    5.0834   -3.0277 O.2      1 ZINC000043169621   -1.0100
14     O14    -3.5957    4.8118   -3.5742 O.2      1 ZINC000043169621   -1.0000
15     C15    -2.6497    2.3770   -5.2370 C.ar     1 ZINC000043169621    0.1600
16     C16    -4.0060    2.9632   -5.1250 C.ar     1 ZINC000043169621    0.0000
17     C17    -4.8021    2.6789   -4.0159 C.ar     1 ZINC000043169621   -0.0500
18     C18    -6.0640    3.2281   -3.9170 C.ar     1 ZINC000043169621   -0.1300
19     C19    -6.5401    4.0589   -4.9156 C.ar     1 ZINC000043169621   -0.1200
20     C20    -5.7550    4.3445   -6.0183 C.ar     1 ZINC000043169621   -0.1300
21     C21    -4.4892    3.8059   -6.1256 C.ar     1 ZINC000043169621   -0.0800
22     N22    -2.2639    1.8845   -6.3919 N.ar     1 ZINC000043169621   -0.4600
23     C23    -1.0581    1.3399   -6.5740 C.ar     1 ZINC000043169621    0.0800
24     C24    -0.6807    0.8227   -7.8262 C.ar     1 ZINC000043169621   -0.0700
25     C25     0.5548    0.2725   -7.9856 C.ar     1 ZINC000043169621   -0.1400
26     C26     1.4564    0.2120   -6.9266 C.ar     1 ZINC000043169621   -0.1200
27     C27     1.1243    0.7034   -5.6979 C.ar     1 ZINC000043169621   -0.1100
28     C28    -0.1341    1.2806   -5.5015 C.ar     1 ZINC000043169621   -0.0300
29     C29     1.5470   -0.7518   -0.6771 C.ar     1 ZINC000043169621   -0.0800
30     C30     0.5204   -1.6770   -0.7084 C.ar     1 ZINC000043169621   -0.1100
31     C31     0.7631   -2.9909   -0.3538 C.ar     1 ZINC000043169621   -0.1200
32     C32     2.0325   -3.3796    0.0316 C.ar     1 ZINC000043169621   -0.1300
33     C33     3.0592   -2.4546    0.0619 C.ar     1 ZINC000043169621   -0.1200
34     C34     2.8175   -1.1416   -0.2968 C.ar     1 ZINC000043169621   -0.1100
35     H35     1.4683    3.3276   -0.4397 H        1 ZINC000043169621    0.0600
36     H36    -0.1466    3.0013   -1.1134 H        1 ZINC000043169621    0.0900
37     H37     0.0315    3.4234    0.6066 H        1 ZINC000043169621    0.0400
38     H38     1.2764    1.3144    0.9952 H        1 ZINC000043169621    0.0600
39     H39    -0.3385    0.9882    0.3215 H        1 ZINC000043169621    0.0600
40     H40    -0.2289   -0.0246   -2.3779 H        1 ZINC000043169621    0.4000
41     H41    -2.0846    4.4069   -0.3732 H        1 ZINC000043169621    0.1100
42     H42    -3.0655    5.8280   -0.8055 H        1 ZINC000043169621    0.1000
43     H43    -3.8096    4.2115   -0.7664 H        1 ZINC000043169621    0.1100
44     H44    -4.4317    2.0300   -3.2361 H        1 ZINC000043169621    0.1300
45     H45    -6.6815    3.0087   -3.0585 H        1 ZINC000043169621    0.1100
46     H46    -7.5288    4.4858   -4.8341 H        1 ZINC000043169621    0.1000
47     H47    -6.1322    4.9934   -6.7948 H        1 ZINC000043169621    0.1100
48     H48    -3.8770    4.0299   -6.9867 H        1 ZINC000043169621    0.1100
49     H49    -1.3682    0.8614   -8.6582 H        1 ZINC000043169621    0.1300
50     H50     0.8396   -0.1236   -8.9491 H        1 ZINC000043169621    0.1200
51     H51     2.4301   -0.2296   -7.0794 H        1 ZINC000043169621    0.1200
52     H52     1.8309    0.6508   -4.8829 H        1 ZINC000043169621    0.1200
53     H53    -0.4713   -1.3733   -1.0095 H        1 ZINC000043169621    0.1200
54     H54    -0.0391   -3.7136   -0.3775 H        1 ZINC000043169621    0.1200
55     H55     2.2219   -4.4060    0.3093 H        1 ZINC000043169621    0.1200
56     H56     4.0509   -2.7582    0.3634 H        1 ZINC000043169621    0.1200
57     H57     3.6197   -0.4189   -0.2730 H        1 ZINC000043169621    0.1200
@<TRIPOS>BOND
1     1     2     1
2     1     35    1
3     1     36    1
4     1     37    1
5     2     3     1
6     2     38    1
7     2     39    1
8     3     4     1
9     3     5     1
10    3     29    1
11    5     6     am
12    5     40    1
13    6     7     2
14    6     8     1
15    8     28    ar
16    8     9     ar
17    9     10    1
18    9     15    ar
19    10    11    1
20    11    12    1
21    11    13    2
22    11    14    2
23    12    41    1
24    12    42    1
25    12    43    1
26    15    16    1
27    15    22    ar
28    16    21    ar
29    16    17    ar
30    17    18    ar
31    17    44    1
32    18    19    ar
33    18    45    1
34    19    20    ar
35    19    46    1
36    20    21    ar
37    20    47    1
38    21    48    1
39    22    23    ar
40    23    28    ar
41    23    24    ar
42    24    25    ar
43    24    49    1
44    25    26    ar
45    25    50    1
46    26    27    ar
47    26    51    1
48    27    28    ar
49    27    52    1
50    29    34    ar
51    29    30    ar
52    30    31    ar
53    30    53    1
54    31    32    ar
55    31    54    1
56    32    33    ar
57    32    55    1
58    33    34    ar
59    33    56    1
60    34    57    1
@<TRIPOS>SUBSTRUCTURE
1   ZINC000043169621 1     RESIDUE    1   A     ZIN   1
