@<TRIPOS>MOLECULE
ZINC000299888870
71    76    1     0     0
SMALL
USER_CHARGES
@<TRIPOS>ATOM
1      C1     -1.3985    1.6207    2.0036 C.3      1 ZINC000299888870   -0.1500
2      C2     -1.5263    0.1265    2.1522 C.2      1 ZINC000299888870    0.4600
3      O3     -1.2867   -0.3976    3.2142 O.2      1 ZINC000299888870   -0.5100
4      O4     -1.9063   -0.6221    1.1049 O.3      1 ZINC000299888870   -0.3400
5      C5     -2.0081   -2.0543    1.3207 C.3      1 ZINC000299888870    0.0200
6      C6     -2.4439   -2.7251    0.0435 C.2      1 ZINC000299888870    0.3600
7      O7     -2.7367   -2.0578   -0.9195 O.2      1 ZINC000299888870   -0.4100
8      C8     -2.5145   -4.2285   -0.0320 C.3      1 ZINC000299888870    0.0600
9      O9     -1.4280   -4.8527    0.6814 O.3      1 ZINC000299888870   -0.3300
10     C10    -0.4566   -5.1539   -0.3299 C.3      1 ZINC000299888870    0.2500
11     C11     0.3863   -3.9149   -0.6621 C.3      1 ZINC000299888870   -0.1700
12     C12     1.6828   -4.1094    0.1660 C.3      1 ZINC000299888870   -0.1200
13     C13     1.9222   -5.6378    0.0774 C.3      1 ZINC000299888870   -0.1200
14     C14     0.5048   -6.2481    0.1429 C.3      1 ZINC000299888870   -0.1100
15     O15    -1.2020   -5.5853   -1.4758 O.3      1 ZINC000299888870   -0.3500
16     C16    -2.3763   -4.7453   -1.4951 C.3      1 ZINC000299888870    0.0600
17     H17    -2.2946   -3.9334   -2.2179 H        1 ZINC000299888870    0.1100
18     C18    -3.6067   -5.6544   -1.7636 C.3      1 ZINC000299888870   -0.1200
19     C19    -4.0172   -6.1075   -0.3584 C.3      1 ZINC000299888870   -0.0800
20     H20    -3.3314   -6.8697    0.0115 H        1 ZINC000299888870    0.1000
21     C21    -5.4540   -6.5705   -0.2080 C.3      1 ZINC000299888870   -0.1000
22     H22    -6.1376   -5.7844   -0.5288 H        1 ZINC000299888870    0.1000
23     C23    -5.6918   -7.8453   -1.0279 C.3      1 ZINC000299888870   -0.1200
24     C24    -7.1991   -8.1055   -1.0508 C.3      1 ZINC000299888870   -0.0900
25     C25    -7.7664   -8.0312    0.3362 C.2      1 ZINC000299888870   -0.0400
26     C26    -9.0286   -8.4760    0.5370 C.2      1 ZINC000299888870   -0.2300
27     C27    -9.5327   -8.3155    1.9284 C.2      1 ZINC000299888870    0.4100
28     O28   -10.1824   -9.1754    2.4935 O.2      1 ZINC000299888870   -0.4500
29     C29    -9.1799   -7.0215    2.5757 C.2      1 ZINC000299888870   -0.2200
30     C30    -7.9166   -6.5978    2.3530 C.2      1 ZINC000299888870   -0.0700
31     C31    -7.0389   -7.4875    1.5184 C.3      1 ZINC000299888870   -0.0300
32     C32    -6.7810   -8.7067    2.4061 C.3      1 ZINC000299888870   -0.1500
33     C33    -5.6793   -6.8958    1.2730 C.3      1 ZINC000299888870    0.1700
34     F34    -4.7375   -7.8751    1.6063 F        1 ZINC000299888870   -0.1900
35     C35    -5.4098   -5.7026    2.1826 C.3      1 ZINC000299888870    0.0900
36     H36    -6.1519   -4.9288    1.9861 H        1 ZINC000299888870    0.0800
37     O37    -5.5174   -6.1190    3.5454 O.3      1 ZINC000299888870   -0.5500
38     C38    -4.0042   -5.1252    1.9429 C.3      1 ZINC000299888870   -0.1300
39     C39    -3.8579   -4.7573    0.4539 C.3      1 ZINC000299888870   -0.0600
40     C40    -4.9882   -3.8117    0.0425 C.3      1 ZINC000299888870   -0.1600
41     H41    -1.0821    2.0545    2.9522 H        1 ZINC000299888870    0.1100
42     H42    -0.6589    1.8475    1.2357 H        1 ZINC000299888870    0.1000
43     H43    -2.3621    2.0409    1.7154 H        1 ZINC000299888870    0.1000
44     H44    -1.0371   -2.4461    1.6237 H        1 ZINC000299888870    0.1100
45     H45    -2.7403   -2.2527    2.1034 H        1 ZINC000299888870    0.1100
46     H46     0.6146   -3.8825   -1.7274 H        1 ZINC000299888870    0.0900
47     H47    -0.1314   -3.0067   -0.3535 H        1 ZINC000299888870    0.0700
48     H48     2.5125   -3.5622   -0.2817 H        1 ZINC000299888870    0.0800
49     H49     1.5298   -3.8020    1.2005 H        1 ZINC000299888870    0.0700
50     H50     2.4048   -5.8943   -0.8657 H        1 ZINC000299888870    0.0700
51     H51     2.5238   -5.9791    0.9199 H        1 ZINC000299888870    0.0800
52     H52     0.2685   -6.5370    1.1670 H        1 ZINC000299888870    0.0900
53     H53     0.4392   -7.1142   -0.5156 H        1 ZINC000299888870    0.0900
54     H54    -4.4092   -5.0871   -2.2351 H        1 ZINC000299888870    0.0900
55     H55    -3.3265   -6.5103   -2.3776 H        1 ZINC000299888870    0.0900
56     H56    -5.3252   -7.7048   -2.0448 H        1 ZINC000299888870    0.0800
57     H57    -5.1783   -8.6861   -0.5617 H        1 ZINC000299888870    0.0800
58     H58    -7.6838   -7.3575   -1.6783 H        1 ZINC000299888870    0.0900
59     H59    -7.3868   -9.0967   -1.4636 H        1 ZINC000299888870    0.0900
60     H60    -9.6240   -8.9131   -0.2510 H        1 ZINC000299888870    0.1500
61     H61    -9.8816   -6.4634    3.1777 H        1 ZINC000299888870    0.1500
62     H62    -7.5546   -5.6633    2.7555 H        1 ZINC000299888870    0.1400
63     H63    -7.7295   -9.1843    2.6518 H        1 ZINC000299888870    0.0600
64     H64    -6.1446   -9.4146    1.8752 H        1 ZINC000299888870    0.0700
65     H65    -6.2854   -8.3898    3.3237 H        1 ZINC000299888870    0.0800
66     H66    -5.3587   -5.4125    4.1862 H        1 ZINC000299888870    0.3800
67     H67    -3.8567   -4.2401    2.5617 H        1 ZINC000299888870    0.0700
68     H68    -3.2500   -5.8751    2.1814 H        1 ZINC000299888870    0.0900
69     H69    -4.8799   -2.8645    0.5708 H        1 ZINC000299888870    0.0600
70     H70    -4.9416   -3.6357   -1.0322 H        1 ZINC000299888870    0.0700
71     H71    -5.9483   -4.2613    0.2957 H        1 ZINC000299888870    0.0800
@<TRIPOS>BOND
1     1     2     1
2     1     41    1
3     1     42    1
4     1     43    1
5     2     3     2
6     2     4     1
7     4     5     1
8     5     6     1
9     5     44    1
10    5     45    1
11    6     7     2
12    6     8     1
13    8     16    1
14    8     39    1
15    8     9     1
16    9     10    1
17    10    14    1
18    10    11    1
19    10    15    1
20    11    12    1
21    11    46    1
22    11    47    1
23    12    13    1
24    12    48    1
25    12    49    1
26    13    14    1
27    13    50    1
28    13    51    1
29    14    52    1
30    14    53    1
31    15    16    1
32    16    17    1
33    16    18    1
34    18    19    1
35    18    54    1
36    18    55    1
37    19    20    1
38    19    39    1
39    19    21    1
40    21    22    1
41    21    33    1
42    21    23    1
43    23    24    1
44    23    56    1
45    23    57    1
46    24    25    1
47    24    58    1
48    24    59    1
49    25    31    1
50    25    26    2
51    26    27    1
52    26    60    1
53    27    28    2
54    27    29    1
55    29    30    2
56    29    61    1
57    30    31    1
58    30    62    1
59    31    32    1
60    31    33    1
61    32    63    1
62    32    64    1
63    32    65    1
64    33    34    1
65    33    35    1
66    35    36    1
67    35    37    1
68    35    38    1
69    37    66    1
70    38    39    1
71    38    67    1
72    38    68    1
73    39    40    1
74    40    69    1
75    40    70    1
76    40    71    1
@<TRIPOS>SUBSTRUCTURE
1   ZINC000299888870 1     RESIDUE    1   A     ZIN   1
