@<TRIPOS>MOLECULE
ZINC000071295757
  49   51    0    0    0
SMALL
USER_CHARGES
NO_NAME
@<TRIPOS>ATOM
    1 C1       -0.0152     1.5241     0.0769 C.3    1 <0>      -0.1500
    2 C2        0.0048    -0.0057     0.0608 C.3    1 <0>      -0.1400
    3 C3       -1.4309    -0.5345     0.0517 C.3    1 <0>       0.1200
    4 N4       -1.4117    -1.9993     0.0364 N.am   1 <0>      -0.7100
    5 C5       -2.5700    -2.6883     0.0263 C.2    1 <0>       0.6000
    6 O6       -3.6311    -2.0940     0.0299 O.2    1 <0>      -0.5600
    7 C7       -2.5507    -4.1618     0.0108 C.ar   1 <0>      -0.1200
    8 N8       -1.3905    -4.8122    -0.0992 N.ar   1 <0>      -0.1500
    9 N9       -1.3027    -6.0927    -0.1189 N.ar   1 <0>      -0.2400
   10 C10      -2.3811    -6.8797    -0.0295 C.ar   1 <0>       0.1400
   11 C11      -2.2714    -8.2882    -0.0518 C.ar   1 <0>      -0.0100
   12 C12      -0.9442    -8.9333    -0.1760 C.ar   1 <0>      -0.0400
   13 C13      -0.6336    -9.6822    -1.3098 C.ar   1 <0>      -0.0900
   14 C14       0.6091   -10.2824    -1.4203 C.ar   1 <0>       0.0900
   15 O15       0.9137   -11.0130    -2.5261 O.3    1 <0>      -0.3200
   16 C16       2.2135   -11.6048    -2.5749 C.3    1 <0>       0.0300
   17 C17       1.5448   -10.1397    -0.4051 C.ar   1 <0>      -0.1600
   18 C18       1.2427    -9.3987     0.7219 C.ar   1 <0>      -0.1700
   19 C19       0.0052    -8.7886     0.8416 C.ar   1 <0>       0.1300
   20 O20      -0.2906    -8.0603     1.9503 O.3    1 <0>      -0.3000
   21 C21       0.7225    -7.9657     2.9537 C.3    1 <0>       0.0300
   22 C22      -3.4186    -9.0599     0.0443 C.ar   1 <0>      -0.0700
   23 C23      -4.6678    -8.4648     0.1616 C.ar   1 <0>      -0.1100
   24 C24      -4.7991    -7.1060     0.1854 C.ar   1 <0>      -0.0800
   25 C25      -3.6639    -6.2935     0.0908 C.ar   1 <0>      -0.1400
   26 C26      -3.7507    -4.8791     0.1175 C.ar   1 <0>       0.3100
   27 N27      -4.9633    -4.2363     0.2390 N.pl3  1 <0>      -0.8100
   28 H28       1.0076     1.9008     0.0834 H      1 <0>       0.0600
   29 H29      -0.5315     1.8900    -0.8106 H      1 <0>       0.0600
   30 H30      -0.5359     1.8713     0.9693 H      1 <0>       0.0600
   31 H31       0.5256    -0.3529    -0.8315 H      1 <0>       0.0700
   32 H32       0.5212    -0.3716     0.9483 H      1 <0>       0.0700
   33 H33      -1.9516    -0.1872     0.9441 H      1 <0>       0.0700
   34 H34      -1.9472    -0.1685    -0.8357 H      1 <0>       0.0700
   35 H35      -0.5654    -2.4732     0.0335 H      1 <0>       0.4100
   36 H36      -1.3609    -9.7943    -2.1002 H      1 <0>       0.1400
   37 H37       2.9709   -10.8227    -2.5228 H      1 <0>       0.0500
   38 H38       2.3350   -12.2849    -1.7318 H      1 <0>       0.0500
   39 H39       2.3261   -12.1580    -3.5072 H      1 <0>       0.1000
   40 H40       2.5128   -10.6099    -0.4960 H      1 <0>       0.1300
   41 H41       1.9746    -9.2919     1.5088 H      1 <0>       0.1300
   42 H42       0.3578    -7.3582     3.7820 H      1 <0>       0.1000
   43 H43       0.9692    -8.9636     3.3161 H      1 <0>       0.0500
   44 H44       1.6131    -7.5031     2.5283 H      1 <0>       0.0600
   45 H45      -3.3402   -10.1369     0.0273 H      1 <0>       0.1400
   46 H46      -5.5483    -9.0858     0.2346 H      1 <0>       0.1400
   47 H47      -5.7779    -6.6589     0.2768 H      1 <0>       0.1300
   48 H48      -5.7724    -4.7507     0.3859 H      1 <0>       0.4000
   49 H49      -5.0078    -3.2693     0.1776 H      1 <0>       0.4300
@<TRIPOS>BOND
   1    1    2 1
   2    1   28 1
   3    1   29 1
   4    1   30 1
   5    2    3 1
   6    2   31 1
   7    2   32 1
   8    3    4 1
   9    3   33 1
  10    3   34 1
  11    4    5 am
  12    4   35 1
  13    5    6 2
  14    5    7 1
  15    7   26 ar
  16    7    8 ar
  17    8    9 ar
  18    9   10 ar
  19   10   25 ar
  20   10   11 ar
  21   11   12 1
  22   11   22 ar
  23   12   19 ar
  24   12   13 ar
  25   13   14 ar
  26   13   36 1
  27   14   15 1
  28   14   17 ar
  29   15   16 1
  30   16   37 1
  31   16   38 1
  32   16   39 1
  33   17   18 ar
  34   17   40 1
  35   18   19 ar
  36   18   41 1
  37   19   20 1
  38   20   21 1
  39   21   42 1
  40   21   43 1
  41   21   44 1
  42   22   23 ar
  43   22   45 1
  44   23   24 ar
  45   23   46 1
  46   24   25 ar
  47   24   47 1
  48   25   26 ar
  49   26   27 1
  50   27   48 1
  51   27   49 1
