@<TRIPOS>MOLECULE
ZINC000001538900
44    45    1     0     0
SMALL
USER_CHARGES
@<TRIPOS>ATOM
1      C1     -0.0173    1.4248    0.0099 C.3      1 ZINC000001538900    0.0200
2      O2      0.0021   -0.0041    0.0020 O.3      1 ZINC000001538900   -0.3100
3      C3     -1.2003   -0.6375    0.0101 C.ar     1 ZINC000001538900    0.1500
4      C4     -2.3744    0.1010    0.0195 C.ar     1 ZINC000001538900   -0.1900
5      C5     -3.5956   -0.5454    0.0272 C.ar     1 ZINC000001538900   -0.0600
6      C6     -3.6478   -1.9268    0.0260 C.ar     1 ZINC000001538900   -0.1600
7      C7     -2.4787   -2.6653    0.0172 C.ar     1 ZINC000001538900   -0.1000
8      C8     -2.5393   -4.1710    0.0164 C.3      1 ZINC000001538900    0.0800
9      H9     -1.5915   -4.5726   -0.3421 H        1 ZINC000001538900    0.1500
10     C10    -2.7999   -4.6717    1.4385 C.3      1 ZINC000001538900   -0.1800
11     N11    -3.6253   -4.6170   -0.8665 N.4      1 ZINC000001538900   -0.5100
12     H12    -4.5110   -4.3144   -0.4894 H        1 ZINC000001538900    0.4200
13     H13    -3.4971   -4.2190   -1.7848 H        1 ZINC000001538900    0.4300
14     C14    -3.6087   -6.0828   -0.9613 C.3      1 ZINC000001538900   -0.0100
15     C15    -4.7399   -6.5472   -1.8809 C.3      1 ZINC000001538900   -0.1500
16     C16    -4.7226   -8.0740   -1.9797 C.3      1 ZINC000001538900   -0.0800
17     C17    -5.8367   -8.5314   -2.8854 C.ar     1 ZINC000001538900   -0.0900
18     C18    -7.0546   -8.9040   -2.3490 C.ar     1 ZINC000001538900   -0.1000
19     C19    -8.0769   -9.3238   -3.1799 C.ar     1 ZINC000001538900   -0.1100
20     C20    -7.8814   -9.3715   -4.5473 C.ar     1 ZINC000001538900   -0.1000
21     C21    -6.6636   -8.9990   -5.0851 C.ar     1 ZINC000001538900   -0.1100
22     C22    -5.6424   -8.5731   -4.2548 C.ar     1 ZINC000001538900   -0.0300
23     Cl23   -4.1128   -8.1052   -4.9294 Cl       1 ZINC000001538900   -0.0700
24     C24    -1.2554   -2.0239    0.0032 C.ar     1 ZINC000001538900   -0.1300
25     H25     1.0053    1.8021    0.0021 H        1 ZINC000001538900    0.1100
26     H26    -0.5445    1.7859   -0.8732 H        1 ZINC000001538900    0.0600
27     H27    -0.5275    1.7763    0.9067 H        1 ZINC000001538900    0.0600
28     H28    -2.3342    1.1802    0.0211 H        1 ZINC000001538900    0.1400
29     H29    -4.5101    0.0291    0.0345 H        1 ZINC000001538900    0.1400
30     H30    -4.6033   -2.4302    0.0324 H        1 ZINC000001538900    0.1200
31     H31    -3.7477   -4.2701    1.7970 H        1 ZINC000001538900    0.0800
32     H32    -2.8438   -5.7608    1.4380 H        1 ZINC000001538900    0.0900
33     H33    -1.9941   -4.3408    2.0936 H        1 ZINC000001538900    0.1100
34     H34    -2.6520   -6.4097   -1.3686 H        1 ZINC000001538900    0.1400
35     H35    -3.7472   -6.5127    0.0307 H        1 ZINC000001538900    0.1400
36     H36    -5.6966   -6.2204   -1.4736 H        1 ZINC000001538900    0.0900
37     H37    -4.6014   -6.1174   -2.8729 H        1 ZINC000001538900    0.0900
38     H38    -3.7658   -8.4008   -2.3870 H        1 ZINC000001538900    0.0900
39     H39    -4.8611   -8.5038   -0.9877 H        1 ZINC000001538900    0.0900
40     H40    -7.2077   -8.8676   -1.2805 H        1 ZINC000001538900    0.1300
41     H41    -9.0285   -9.6148   -2.7602 H        1 ZINC000001538900    0.1300
42     H42    -8.6801   -9.7001   -5.1958 H        1 ZINC000001538900    0.1400
43     H43    -6.5110   -9.0363   -6.1536 H        1 ZINC000001538900    0.1400
44     H44    -0.3426   -2.6010   -0.0041 H        1 ZINC000001538900    0.1400
@<TRIPOS>BOND
1     1     2     1
2     1     25    1
3     1     26    1
4     1     27    1
5     2     3     1
6     3     24    ar
7     3     4     ar
8     4     5     ar
9     4     28    1
10    5     6     ar
11    5     29    1
12    6     7     ar
13    6     30    1
14    7     8     1
15    7     24    ar
16    8     9     1
17    8     10    1
18    8     11    1
19    10    31    1
20    10    32    1
21    10    33    1
22    11    12    1
23    11    13    1
24    11    14    1
25    14    15    1
26    14    34    1
27    14    35    1
28    15    16    1
29    15    36    1
30    15    37    1
31    16    17    1
32    16    38    1
33    16    39    1
34    17    22    ar
35    17    18    ar
36    18    19    ar
37    18    40    1
38    19    20    ar
39    19    41    1
40    20    21    ar
41    20    42    1
42    21    22    ar
43    21    43    1
44    22    23    1
45    24    44    1
@<TRIPOS>SUBSTRUCTURE
1   ZINC000001538900 1     RESIDUE    1   A     ZIN   1
