@<TRIPOS>MOLECULE
ZINC000002109876
42    45    1     0     0
SMALL
USER_CHARGES
@<TRIPOS>ATOM
1      C1     -0.0187    1.5258    0.0104 C.3      1 ZINC000002109876   -0.1500
2      C2      0.0021   -0.0041    0.0020 C.3      1 ZINC000002109876   -0.0600
3      H3     -1.0110   -0.4062   -0.0029 H        1 ZINC000002109876    0.1000
4      C4      0.8169   -0.5405   -1.1982 C.3      1 ZINC000002109876    0.0500
5      O5      1.4621   -1.6953   -0.6374 O.3      1 ZINC000002109876   -0.2900
6      C6      1.6249   -1.5156    0.6984 C.2      1 ZINC000002109876    0.2200
7      C7      0.7967   -0.5444    1.1802 C.2      1 ZINC000002109876   -0.3200
8      C8      0.7685   -0.1880    2.5360 C.2      1 ZINC000002109876    0.3800
9      O9      0.0054    0.6769    2.9231 O.2      1 ZINC000002109876   -0.4100
10     C10     1.6784   -0.8737    3.5060 C.2      1 ZINC000002109876    0.3600
11     O11     1.6736   -0.5824    4.6837 O.2      1 ZINC000002109876   -0.3800
12     C12     2.5835   -1.9187    2.9807 C.ar     1 ZINC000002109876   -0.1400
13     C13     2.5499   -2.2261    1.6119 C.ar     1 ZINC000002109876   -0.0200
14     C14     3.3999   -3.2102    1.1142 C.ar     1 ZINC000002109876   -0.0900
15     C15     4.2598   -3.8685    1.9741 C.ar     1 ZINC000002109876   -0.0900
16     C16     4.2932   -3.5648    3.3293 C.ar     1 ZINC000002109876   -0.0500
17     C17     3.4600   -2.5888    3.8375 C.ar     1 ZINC000002109876   -0.0100
18     C18     3.4583   -2.2010    5.2928 C.3      1 ZINC000002109876   -0.0900
19     C19     4.1255   -3.2838    6.1384 C.3      1 ZINC000002109876   -0.1300
20     C20     5.4890   -3.6101    5.5180 C.3      1 ZINC000002109876   -0.1100
21     C21     5.2551   -4.3365    4.1952 C.3      1 ZINC000002109876   -0.0300
22     C22     4.6780   -5.7251    4.4775 C.3      1 ZINC000002109876   -0.1400
23     C23     6.5880   -4.4854    3.4589 C.3      1 ZINC000002109876   -0.1400
24     H24     1.0039    1.9031    0.0027 H        1 ZINC000002109876    0.0600
25     H25    -0.5459    1.8868   -0.8726 H        1 ZINC000002109876    0.0600
26     H26    -0.5289    1.8773    0.9072 H        1 ZINC000002109876    0.0700
27     H27     0.1578   -0.8246   -2.0186 H        1 ZINC000002109876    0.1200
28     H28     1.5526    0.1936   -1.5267 H        1 ZINC000002109876    0.0900
29     H29     3.3875   -3.4581    0.0631 H        1 ZINC000002109876    0.1400
30     H30     4.9167   -4.6326    1.5854 H        1 ZINC000002109876    0.1400
31     H31     4.0011   -1.2638    5.4155 H        1 ZINC000002109876    0.0900
32     H32     2.4298   -2.0664    5.6276 H        1 ZINC000002109876    0.1000
33     H33     4.2629   -2.9214    7.1571 H        1 ZINC000002109876    0.0700
34     H34     3.5027   -4.1783    6.1473 H        1 ZINC000002109876    0.0700
35     H35     6.0405   -2.6873    5.3378 H        1 ZINC000002109876    0.0700
36     H36     6.0557   -4.2509    6.1935 H        1 ZINC000002109876    0.0700
37     H37     3.7328   -5.6242    5.0110 H        1 ZINC000002109876    0.0600
38     H38     4.5095   -6.2469    3.5354 H        1 ZINC000002109876    0.0600
39     H39     5.3804   -6.2934    5.0871 H        1 ZINC000002109876    0.0600
40     H40     7.2805   -5.0601    4.0738 H        1 ZINC000002109876    0.0600
41     H41     6.4251   -5.0036    2.5139 H        1 ZINC000002109876    0.0600
42     H42     7.0078   -3.4984    3.2644 H        1 ZINC000002109876    0.0600
@<TRIPOS>BOND
1     1     2     1
2     1     24    1
3     1     25    1
4     1     26    1
5     2     3     1
6     2     7     1
7     2     4     1
8     4     5     1
9     4     27    1
10    4     28    1
11    5     6     1
12    6     13    1
13    6     7     2
14    7     8     1
15    8     9     2
16    8     10    1
17    10    11    2
18    10    12    1
19    12    17    ar
20    12    13    ar
21    13    14    ar
22    14    15    ar
23    14    29    1
24    15    16    ar
25    15    30    1
26    16    21    1
27    16    17    ar
28    17    18    1
29    18    19    1
30    18    31    1
31    18    32    1
32    19    20    1
33    19    33    1
34    19    34    1
35    20    21    1
36    20    35    1
37    20    36    1
38    21    22    1
39    21    23    1
40    22    37    1
41    22    38    1
42    22    39    1
43    23    40    1
44    23    41    1
45    23    42    1
@<TRIPOS>SUBSTRUCTURE
1   ZINC000002109876 1     RESIDUE    1   A     ZIN   1
