@<TRIPOS>MOLECULE
ZINC000043204023
55    58    1     0     0
SMALL
USER_CHARGES
@<TRIPOS>ATOM
1      N1     -0.2106    1.4463   -0.0929 N.3      1 ZINC000043204023   -0.8200
2      C2      0.0021   -0.0041    0.0020 C.3      1 ZINC000043204023    0.1100
3      C3      0.7100   -0.4913   -1.2359 C.2      1 ZINC000043204023    0.4900
4      O4      0.3997   -1.5529   -1.7337 O.2      1 ZINC000043204023   -0.5200
5      N5      1.6878    0.2526   -1.7899 N.am     1 ZINC000043204023   -0.7200
6      C6      2.3760   -0.2211   -2.9933 C.3      1 ZINC000043204023    0.1900
7      H7      2.4688   -1.3065   -2.9554 H        1 ZINC000043204023    0.1000
8      C8      1.5715    0.1790   -4.2317 C.3      1 ZINC000043204023   -0.1300
9      C9      0.2255   -0.5484   -4.2224 C.3      1 ZINC000043204023    0.0800
10     O10    -0.5259   -0.1747   -5.3790 O.3      1 ZINC000043204023   -0.5800
11     C11     3.7481    0.3982   -3.0640 C.ar     1 ZINC000043204023   -0.0900
12     C12     3.9284    1.7209   -2.7049 C.ar     1 ZINC000043204023   -0.1000
13     C13     5.1865    2.2895   -2.7695 C.ar     1 ZINC000043204023   -0.1000
14     C14     6.2656    1.5345   -3.1937 C.ar     1 ZINC000043204023   -0.0300
15     Cl15    7.8462    2.2477   -3.2745 Cl       1 ZINC000043204023   -0.0600
16     C16     6.0844    0.2108   -3.5529 C.ar     1 ZINC000043204023   -0.1000
17     C17     4.8268   -0.3583   -3.4825 C.ar     1 ZINC000043204023   -0.0900
18     C18     0.8528   -0.3168    1.2361 C.3      1 ZINC000043204023   -0.1000
19     C19     1.0199   -1.8327    1.3637 C.3      1 ZINC000043204023    0.0600
20     N20    -0.3006   -2.4635    1.4848 N.3      1 ZINC000043204023   -0.4600
21     C21    -0.1816   -3.8191    1.7324 C.ar     1 ZINC000043204023    0.4200
22     C22    -1.3199   -4.6261    1.8790 C.ar     1 ZINC000043204023   -0.2200
23     C23    -2.7632   -4.3987    1.8372 C.2      1 ZINC000043204023   -0.1700
24     C24    -3.3500   -5.5871    2.0543 C.2      1 ZINC000043204023    0.0500
25     N25    -2.3928   -6.5526    2.2309 N.pl3    1 ZINC000043204023   -0.5700
26     C26    -1.1458   -5.9998    2.1301 C.ar     1 ZINC000043204023    0.3300
27     N27     0.0940   -6.4788    2.2178 N.ar     1 ZINC000043204023   -0.5500
28     C28     1.1328   -5.6848    2.0729 C.ar     1 ZINC000043204023    0.3400
29     N29     1.0147   -4.3915    1.8322 N.ar     1 ZINC000043204023   -0.5800
30     C30    -1.1185   -2.2165    0.2904 C.3      1 ZINC000043204023    0.0400
31     C31    -1.3495   -0.7121    0.1308 C.3      1 ZINC000043204023   -0.0900
32     H32     0.6675    1.9358   -0.1787 H        1 ZINC000043204023    0.3400
33     H33    -0.8268    1.6720   -0.8594 H        1 ZINC000043204023    0.3500
34     H34     1.9360    1.1016   -1.3918 H        1 ZINC000043204023    0.4000
35     H35     1.4026    1.2558   -4.2230 H        1 ZINC000043204023    0.0700
36     H36     2.1261   -0.0946   -5.1293 H        1 ZINC000043204023    0.0800
37     H37     0.3943   -1.6252   -4.2311 H        1 ZINC000043204023    0.0500
38     H38    -0.3291   -0.2748   -3.3248 H        1 ZINC000043204023    0.0500
39     H39    -1.3928   -0.5990   -5.4388 H        1 ZINC000043204023    0.3800
40     H40     3.0860    2.3103   -2.3742 H        1 ZINC000043204023    0.1300
41     H41     5.3273    3.3229   -2.4893 H        1 ZINC000043204023    0.1400
42     H42     6.9263   -0.3790   -3.8844 H        1 ZINC000043204023    0.1400
43     H43     4.6854   -1.3917   -3.7626 H        1 ZINC000043204023    0.1400
44     H44     1.8323    0.1497    1.1306 H        1 ZINC000043204023    0.0800
45     H45     0.3584    0.0711    2.1267 H        1 ZINC000043204023    0.1000
46     H46     1.5267   -2.2179    0.4789 H        1 ZINC000043204023    0.0600
47     H47     1.6132   -2.0593    2.2495 H        1 ZINC000043204023    0.0900
48     H48    -3.2618   -3.4563    1.6649 H        1 ZINC000043204023    0.1600
49     H49    -4.4162   -5.7566    2.0857 H        1 ZINC000043204023    0.1800
50     H50    -2.5734   -7.4901    2.4025 H        1 ZINC000043204023    0.4200
51     H51     2.1232   -6.1085    2.1508 H        1 ZINC000043204023    0.2000
52     H52    -0.6017   -2.6000   -0.5893 H        1 ZINC000043204023    0.0900
53     H53    -2.0784   -2.7220    0.3967 H        1 ZINC000043204023    0.0900
54     H54    -1.8785   -0.3305    1.0040 H        1 ZINC000043204023    0.0900
55     H55    -1.9434   -0.5281   -0.7645 H        1 ZINC000043204023    0.0800
@<TRIPOS>BOND
1     1     2     1
2     1     32    1
3     1     33    1
4     2     31    1
5     2     3     1
6     2     18    1
7     3     4     2
8     3     5     am
9     5     6     1
10    5     34    1
11    6     7     1
12    6     8     1
13    6     11    1
14    8     9     1
15    8     35    1
16    8     36    1
17    9     10    1
18    9     37    1
19    9     38    1
20    10    39    1
21    11    17    ar
22    11    12    ar
23    12    13    ar
24    12    40    1
25    13    14    ar
26    13    41    1
27    14    15    1
28    14    16    ar
29    16    17    ar
30    16    42    1
31    17    43    1
32    18    19    1
33    18    44    1
34    18    45    1
35    19    20    1
36    19    46    1
37    19    47    1
38    20    21    1
39    20    30    1
40    21    29    ar
41    21    22    ar
42    22    26    ar
43    22    23    1
44    23    24    2
45    23    48    1
46    24    25    1
47    24    49    1
48    25    26    1
49    25    50    1
50    26    27    ar
51    27    28    ar
52    28    29    ar
53    28    51    1
54    30    31    1
55    30    52    1
56    30    53    1
57    31    54    1
58    31    55    1
@<TRIPOS>SUBSTRUCTURE
1   ZINC000043204023 1     RESIDUE    1   A     ZIN   1
