@<TRIPOS>MOLECULE
ZINC000000000070
  32   34    0    0    0
SMALL
USER_CHARGES
NO_NAME
@<TRIPOS>ATOM
    1 C1       -0.0187     1.5258     0.0104 C.3    1 <0>      -0.1200
    2 C2        0.0021    -0.0041     0.0020 C.3    1 <0>      -0.1300
    3 H3        0.5123    -0.3556    -0.8948 H      1 <0>       0.0700
    4 C4       -1.4117    -0.5257     0.0127 C.2    1 <0>       0.5000
    5 O5       -1.7102    -1.4919    -0.6684 O.co2  1 <0>      -0.6900
    6 O6       -2.2571     0.0185     0.7025 O.co2  1 <0>      -0.6900
    7 C7        0.7309    -0.5033     1.2229 C.ar   1 <0>      -0.0300
    8 C8        0.2576    -0.1835     2.4866 C.ar   1 <0>      -0.0600
    9 C9        0.9135    -0.6329     3.6145 C.ar   1 <0>      -0.1000
   10 C10       2.0541    -1.4096     3.4870 C.ar   1 <0>       0.0000
   11 O11       2.8975    -1.9856     4.3722 O.3    1 <0>      -0.2100
   12 C12       3.8526    -2.6345     3.6795 C.2    1 <0>       0.2600
   13 C13       4.9675    -3.3948     4.2821 C.ar   1 <0>      -0.0100
   14 C14       5.9071    -4.0264     3.4654 C.ar   1 <0>      -0.0600
   15 C15       6.9456    -4.7340     4.0336 C.ar   1 <0>      -0.1100
   16 C16       7.0574    -4.8187     5.4113 C.ar   1 <0>      -0.0200
   17 Cl17      8.3674    -5.7113     6.1192 Cl     1 <0>      -0.0700
   18 C18       6.1286    -4.1939     6.2267 C.ar   1 <0>      -0.1100
   19 C19       5.0885    -3.4793     5.6702 C.ar   1 <0>      -0.0700
   20 N20       3.6490    -2.4933     2.3943 N.2    1 <0>      -0.4600
   21 C21       2.5373    -1.7360     2.2090 C.ar   1 <0>       0.0200
   22 C22       1.8595    -1.2787     1.0765 C.ar   1 <0>      -0.0700
   23 H23       1.0039     1.9031     0.0027 H      1 <0>       0.0400
   24 H24      -0.5459     1.8868    -0.8726 H      1 <0>       0.0500
   25 H25      -0.5289     1.8773     0.9072 H      1 <0>       0.0600
   26 H26      -0.6309     0.4219     2.5888 H      1 <0>       0.1500
   27 H27       0.5387    -0.3793     4.5952 H      1 <0>       0.1300
   28 H28       5.8207    -3.9613     2.3908 H      1 <0>       0.1500
   29 H29       7.6730    -5.2234     3.4028 H      1 <0>       0.1400
   30 H30       6.2212    -4.2631     7.3005 H      1 <0>       0.1400
   31 H31       4.3648    -2.9924     6.3071 H      1 <0>       0.1400
   32 H32       2.2208    -1.5296     0.0901 H      1 <0>       0.1300
@<TRIPOS>BOND
   1    1    2 1
   2    1   23 1
   3    1   24 1
   4    1   25 1
   5    2    3 1
   6    2    4 1
   7    2    7 1
   8    4    5 ar
   9    4    6 ar
  10    7   22 ar
  11    7    8 ar
  12    8    9 ar
  13    8   26 1
  14    9   10 ar
  15    9   27 1
  16   10   21 ar
  17   10   11 1
  18   11   12 1
  19   12   13 1
  20   12   20 2
  21   13   19 ar
  22   13   14 ar
  23   14   15 ar
  24   14   28 1
  25   15   16 ar
  26   15   29 1
  27   16   17 1
  28   16   18 ar
  29   18   19 ar
  30   18   30 1
  31   19   31 1
  32   20   21 1
  33   21   22 ar
  34   22   32 1
