@<TRIPOS>MOLECULE
ZINC000000008768
43    46    1     0     0
SMALL
USER_CHARGES
@<TRIPOS>ATOM
1      N1     -0.0164    1.3436    0.0052 N.am     1 ZINC000000008768   -0.8600
2      C2      0.0021   -0.0041    0.0020 C.2      1 ZINC000000008768    0.6000
3      O3      1.0594   -0.5978   -0.0993 O.2      1 ZINC000000008768   -0.5100
4      C4     -1.2533   -0.7556    0.1208 C.2      1 ZINC000000008768   -0.1100
5      C5     -1.3707   -2.1073    0.2251 C.2      1 ZINC000000008768    0.0900
6      N6     -2.6637   -2.3891    0.3080 N.2      1 ZINC000000008768   -0.5000
7      C7     -3.3725   -1.2735    0.2665 C.2      1 ZINC000000008768    0.2400
8      N8     -2.5507   -0.2317    0.1512 N.pl3    1 ZINC000000008768   -0.4200
9      C9     -2.7606    1.2108    0.0590 C.3      1 ZINC000000008768    0.0900
10     C10    -4.1558    1.6898    0.0971 C.3      1 ZINC000000008768   -0.1100
11     C11    -5.2537    0.9858   -0.6009 C.ar     1 ZINC000000008768   -0.0600
12     C12    -6.0550    1.8401   -1.3831 C.ar     1 ZINC000000008768   -0.1100
13     C13    -7.0983    1.3545   -2.1322 C.ar     1 ZINC000000008768   -0.1000
14     C14    -7.3526   -0.0037   -2.1344 C.ar     1 ZINC000000008768   -0.1000
15     C15    -6.5701   -0.8323   -1.3590 C.ar     1 ZINC000000008768   -0.1400
16     C16    -5.5516   -0.3218   -0.5488 C.ar     1 ZINC000000008768   -0.0800
17     C17    -4.8769   -1.3055    0.3580 C.3      1 ZINC000000008768    0.0800
18     C18    -5.3333   -2.7358    0.0751 C.3      1 ZINC000000008768   -0.1400
19     C19    -6.7586   -3.0086    0.5355 C.3      1 ZINC000000008768   -0.0100
20     N20    -6.9170   -2.6712    1.9565 N.4      1 ZINC000000008768   -0.5100
21     H21    -7.8517   -2.8966    2.2545 H        1 ZINC000000008768    0.4300
22     H22    -6.2448   -3.1823    2.5032 H        1 ZINC000000008768    0.4300
23     C23    -6.6852   -1.2277    2.1110 C.3      1 ZINC000000008768    0.0000
24     C24    -5.2180   -0.9342    1.8145 C.3      1 ZINC000000008768   -0.1500
25     H25     0.8169    1.8400    0.0034 H        1 ZINC000000008768    0.4100
26     H26    -0.8630    1.8170    0.0052 H        1 ZINC000000008768    0.3900
27     H27    -0.5595   -2.8195    0.2418 H        1 ZINC000000008768    0.1900
28     H28    -2.2263    1.6858    0.8796 H        1 ZINC000000008768    0.1100
29     H29    -2.3206    1.5563   -0.8760 H        1 ZINC000000008768    0.1000
30     H30    -4.4364    1.7640    1.1433 H        1 ZINC000000008768    0.0800
31     H31    -4.1393    2.7088   -0.2886 H        1 ZINC000000008768    0.1100
32     H32    -5.8496    2.9007   -1.3942 H        1 ZINC000000008768    0.1300
33     H33    -7.7137    2.0271   -2.7101 H        1 ZINC000000008768    0.1300
34     H34    -8.1519   -0.4135   -2.7331 H        1 ZINC000000008768    0.1300
35     H35    -6.7343   -1.8952   -1.4417 H        1 ZINC000000008768    0.1300
36     H36    -5.2517   -2.9438   -0.9978 H        1 ZINC000000008768    0.1200
37     H37    -4.6609   -3.4366    0.5905 H        1 ZINC000000008768    0.1200
38     H38    -7.4788   -2.4348   -0.0424 H        1 ZINC000000008768    0.1400
39     H39    -6.9798   -4.0738    0.4037 H        1 ZINC000000008768    0.1400
40     H40    -7.3197   -0.6830    1.4129 H        1 ZINC000000008768    0.1300
41     H41    -6.9237   -0.9299    3.1309 H        1 ZINC000000008768    0.1400
42     H42    -4.5884   -1.5188    2.4898 H        1 ZINC000000008768    0.1000
43     H43    -5.0185    0.1259    1.9764 H        1 ZINC000000008768    0.1100
@<TRIPOS>BOND
1     1     2     am
2     1     25    1
3     1     26    1
4     2     3     2
5     2     4     1
6     4     8     1
7     4     5     2
8     5     6     1
9     5     27    1
10    6     7     2
11    7     17    1
12    7     8     1
13    8     9     1
14    9     10    1
15    9     28    1
16    9     29    1
17    10    11    1
18    10    30    1
19    10    31    1
20    11    16    ar
21    11    12    ar
22    12    13    ar
23    12    32    1
24    13    14    ar
25    13    33    1
26    14    15    ar
27    14    34    1
28    15    16    ar
29    15    35    1
30    16    17    1
31    17    24    1
32    17    18    1
33    18    19    1
34    18    36    1
35    18    37    1
36    19    20    1
37    19    38    1
38    19    39    1
39    20    21    1
40    20    22    1
41    20    23    1
42    23    24    1
43    23    40    1
44    23    41    1
45    24    42    1
46    24    43    1
@<TRIPOS>SUBSTRUCTURE
1   ZINC000000008768 1     RESIDUE    1   A     ZIN   1
