@<TRIPOS>MOLECULE
ZINC000004963497
20    21    1     0     0
SMALL
USER_CHARGES
@<TRIPOS>ATOM
1      O1     -0.0173    1.4248    0.0099 O.3      1 ZINC000004963497   -0.5500
2      C2      0.0021   -0.0041    0.0020 C.3      1 ZINC000004963497    0.1000
3      H3     -1.0205   -0.3814    0.0098 H        1 ZINC000004963497    0.1200
4      C4      0.7421   -0.5109    1.2415 C.3      1 ZINC000004963497    0.1000
5      H5      1.7647   -0.1336    1.2338 H        1 ZINC000004963497    0.1200
6      O6      0.7614   -1.9398    1.2337 O.3      1 ZINC000004963497   -0.5500
7      C7      0.0259   -0.0175    2.5003 C.3      1 ZINC000004963497   -0.0500
8      H8     -0.3571    1.0021    2.4576 H        1 ZINC000004963497    0.1400
9      C9      0.5201   -0.5373    3.8518 C.3      1 ZINC000004963497   -0.0200
10     O10    -0.7100   -0.9738    3.2658 O.3      1 ZINC000004963497   -0.3500
11     C11     0.7182   -0.4975   -1.2568 C.3      1 ZINC000004963497   -0.0500
12     H12     1.1013   -1.5171   -1.2141 H        1 ZINC000004963497    0.1400
13     C13     0.2240    0.0224   -2.6082 C.3      1 ZINC000004963497   -0.0200
14     O14     1.4542    0.4588   -2.0223 O.3      1 ZINC000004963497   -0.3500
15     H15     0.8606    1.8301    0.0037 H        1 ZINC000004963497    0.3900
16     H16    -0.1165   -2.3450    1.2399 H        1 ZINC000004963497    0.3900
17     H17     1.3584   -1.2340    3.8523 H        1 ZINC000004963497    0.1200
18     H18     0.4643    0.1368    4.7065 H        1 ZINC000004963497    0.1100
19     H19     0.2798   -0.6517   -3.4630 H        1 ZINC000004963497    0.1100
20     H20    -0.6143    0.7190   -2.6087 H        1 ZINC000004963497    0.1200
@<TRIPOS>BOND
1     1     2     1
2     1     15    1
3     2     3     1
4     2     4     1
5     2     11    1
6     4     5     1
7     4     6     1
8     4     7     1
9     6     16    1
10    7     8     1
11    7     10    1
12    7     9     1
13    9     10    1
14    9     17    1
15    9     18    1
16    11    12    1
17    11    14    1
18    11    13    1
19    13    14    1
20    13    19    1
21    13    20    1
@<TRIPOS>SUBSTRUCTURE
1   ZINC000004963497 1     RESIDUE    1   A     ZIN   1
