@<TRIPOS>MOLECULE
ZINC000003994903
67    71    1     0     0
SMALL
USER_CHARGES
@<TRIPOS>ATOM
1      C1      0.0228    1.4561    0.0329 C.3      1 ZINC000003994903   -0.1500
2      C2      0.0391   -0.0737    0.0111 C.3      1 ZINC000003994903    0.0600
3      O3      0.7016   -0.5262   -1.1714 O.3      1 ZINC000003994903   -0.3700
4      C4      0.7718   -1.9485   -1.2902 C.3      1 ZINC000003994903    0.2500
5      H5     -0.2257   -2.3802   -1.2080 H        1 ZINC000003994903    0.1100
6      O6      1.6392   -2.4942   -0.2561 O.3      1 ZINC000003994903   -0.3700
7      C7      2.3803   -3.4932   -0.7684 C.2      1 ZINC000003994903    0.5000
8      O8      2.7565   -4.4807   -0.1826 O.2      1 ZINC000003994903   -0.4300
9      C9      2.6548   -3.1473   -2.2206 C.3      1 ZINC000003994903   -0.2000
10     C10     1.4069   -2.3363   -2.6415 C.3      1 ZINC000003994903    0.1300
11     H11     0.7250   -2.9543   -3.2256 H        1 ZINC000003994903    0.1300
12     N12     1.7958   -1.1423   -3.3961 N.am     1 ZINC000003994903   -0.7100
13     C13     1.9840   -1.2188   -4.7284 C.2      1 ZINC000003994903    0.5100
14     O14     1.8315   -2.2761   -5.3027 O.2      1 ZINC000003994903   -0.5200
15     C15     2.3841    0.0094   -5.5046 C.3      1 ZINC000003994903    0.1400
16     H16     3.3345    0.3837   -5.1243 H        1 ZINC000003994903    0.1400
17     C17     1.3093    1.0886   -5.3376 C.3      1 ZINC000003994903   -0.1300
18     C18     0.0021    0.5899   -5.9636 C.3      1 ZINC000003994903   -0.1400
19     C19     0.2093    0.4145   -7.4714 C.3      1 ZINC000003994903    0.1200
20     N20     1.3216   -0.4795   -7.7189 N.am     1 ZINC000003994903   -0.4000
21     C21     1.4495   -1.3957   -8.6213 C.2      1 ZINC000003994903    0.5200
22     O22     0.7100   -1.3578   -9.5819 O.2      1 ZINC000003994903   -0.5300
23     C23     2.4536   -2.4971   -8.5515 C.3      1 ZINC000003994903   -0.1700
24     C24     3.6451   -2.1087   -9.5455 C.3      1 ZINC000003994903   -0.0900
25     C25     3.6972   -0.5841   -9.0603 C.3      1 ZINC000003994903    0.1100
26     H26     2.8562   -0.0316   -9.4793 H        1 ZINC000003994903    0.1200
27     N27     4.9583    0.0315   -9.4808 N.am     1 ZINC000003994903   -0.6800
28     C28     5.0343    1.3669   -9.6461 C.2      1 ZINC000003994903    0.5800
29     O29     4.0565    2.0605   -9.4462 O.2      1 ZINC000003994903   -0.5200
30     C30     6.3079    1.9885  -10.0708 C.ar     1 ZINC000003994903    0.1200
31     C31     6.3618    3.3712  -10.3590 C.ar     1 ZINC000003994903   -0.0700
32     C32     5.2350    4.1972  -10.2574 C.ar     1 ZINC000003994903   -0.1000
33     C33     5.3461    5.5239  -10.5476 C.ar     1 ZINC000003994903   -0.1200
34     C34     6.5636    6.0740  -10.9449 C.ar     1 ZINC000003994903   -0.0900
35     C35     7.6800    5.3015  -11.0548 C.ar     1 ZINC000003994903   -0.1200
36     C36     7.6022    3.9311  -10.7632 C.ar     1 ZINC000003994903   -0.0300
37     C37     8.7171    3.0807  -10.8565 C.ar     1 ZINC000003994903   -0.1200
38     C38     8.5632    1.7562  -10.5558 C.ar     1 ZINC000003994903    0.0700
39     N39     7.4022    1.2544  -10.1772 N.ar     1 ZINC000003994903   -0.4500
40     C40     3.6067   -0.5966   -7.5711 C.2      1 ZINC000003994903    0.5200
41     O41     4.6082   -0.8717   -6.9450 O.2      1 ZINC000003994903   -0.5200
42     N42     2.5283   -0.3330   -6.9049 N.am     1 ZINC000003994903   -0.3900
43     H43     1.0465    1.8305    0.0241 H        1 ZINC000003994903    0.0700
44     H44    -0.5070    1.8264   -0.8447 H        1 ZINC000003994903    0.0700
45     H45    -0.4825    1.8012    0.9349 H        1 ZINC000003994903    0.0800
46     H46     0.5689   -0.4440    0.8887 H        1 ZINC000003994903    0.0700
47     H47    -0.9846   -0.4481    0.0199 H        1 ZINC000003994903    0.0600
48     H48     3.5552   -2.5391   -2.3066 H        1 ZINC000003994903    0.1200
49     H49     2.7435   -4.0529   -2.8206 H        1 ZINC000003994903    0.1200
50     H50     1.9178   -0.2967   -2.9368 H        1 ZINC000003994903    0.4200
51     H51     1.1535    1.2875   -4.2773 H        1 ZINC000003994903    0.1000
52     H52     1.6286    2.0023   -5.8388 H        1 ZINC000003994903    0.0900
53     H53    -0.2738   -0.3664   -5.5193 H        1 ZINC000003994903    0.0800
54     H54    -0.7888    1.3186   -5.7862 H        1 ZINC000003994903    0.1000
55     H55    -0.6951   -0.0023   -7.9146 H        1 ZINC000003994903    0.1100
56     H56     0.4175    1.3844   -7.9231 H        1 ZINC000003994903    0.0800
57     H57     2.8335   -2.5899   -7.5341 H        1 ZINC000003994903    0.1100
58     H58     1.9980   -3.4360   -8.8663 H        1 ZINC000003994903    0.1200
59     H59     4.5656   -2.6480   -9.3221 H        1 ZINC000003994903    0.1100
60     H60     3.3599   -2.2023  -10.5933 H        1 ZINC000003994903    0.1100
61     H61     5.7387   -0.5221   -9.6404 H        1 ZINC000003994903    0.4200
62     H62     4.2846    3.7853   -9.9514 H        1 ZINC000003994903    0.1700
63     H63     4.4765    6.1595  -10.4688 H        1 ZINC000003994903    0.1300
64     H64     6.6225    7.1288  -11.1695 H        1 ZINC000003994903    0.1300
65     H65     8.6172    5.7400  -11.3640 H        1 ZINC000003994903    0.1400
66     H66     9.6786    3.4668  -11.1610 H        1 ZINC000003994903    0.1500
67     H67     9.4186    1.1006  -10.6268 H        1 ZINC000003994903    0.1600
@<TRIPOS>BOND
1     1     2     1
2     1     43    1
3     1     44    1
4     1     45    1
5     2     3     1
6     2     46    1
7     2     47    1
8     3     4     1
9     4     5     1
10    4     10    1
11    4     6     1
12    6     7     1
13    7     8     2
14    7     9     1
15    9     10    1
16    9     48    1
17    9     49    1
18    10    11    1
19    10    12    1
20    12    13    am
21    12    50    1
22    13    14    2
23    13    15    1
24    15    16    1
25    15    42    1
26    15    17    1
27    17    18    1
28    17    51    1
29    17    52    1
30    18    19    1
31    18    53    1
32    18    54    1
33    19    20    1
34    19    55    1
35    19    56    1
36    20    42    1
37    20    21    am
38    21    22    2
39    21    23    1
40    23    24    1
41    23    57    1
42    23    58    1
43    24    25    1
44    24    59    1
45    24    60    1
46    25    26    1
47    25    27    1
48    25    40    1
49    27    28    am
50    27    61    1
51    28    29    2
52    28    30    1
53    30    39    ar
54    30    31    ar
55    31    36    ar
56    31    32    ar
57    32    33    ar
58    32    62    1
59    33    34    ar
60    33    63    1
61    34    35    ar
62    34    64    1
63    35    36    ar
64    35    65    1
65    36    37    ar
66    37    38    ar
67    37    66    1
68    38    39    ar
69    38    67    1
70    40    41    2
71    40    42    am
@<TRIPOS>SUBSTRUCTURE
1   ZINC000003994903 1     RESIDUE    1   A     ZIN   1
