@<TRIPOS>MOLECULE
ZINC000003927605
74    77    1     0     0
SMALL
USER_CHARGES
@<TRIPOS>ATOM
1      C1     -0.2072    1.6727   -0.0784 C.3      1 ZINC000003927605   -0.1800
2      C2     -0.1853    0.1667   -0.1272 C.2      1 ZINC000003927605    0.5100
3      O3      0.8731   -0.4229   -0.1838 O.2      1 ZINC000003927605   -0.5100
4      N4     -1.3418   -0.5251   -0.1079 N.am     1 ZINC000003927605   -0.7400
5      C5     -1.3270   -1.9814   -0.2664 C.3      1 ZINC000003927605    0.2200
6      C6     -0.6045   -2.3425   -1.5387 C.ar     1 ZINC000003927605   -0.0900
7      C7     -0.5324   -1.4307   -2.5752 C.ar     1 ZINC000003927605   -0.1000
8      C8      0.1303   -1.7619   -3.7422 C.ar     1 ZINC000003927605   -0.1100
9      C9      0.7211   -3.0048   -3.8727 C.ar     1 ZINC000003927605   -0.1100
10     C10     0.6498   -3.9163   -2.8359 C.ar     1 ZINC000003927605   -0.1100
11     C11    -0.0092   -3.5835   -1.6672 C.ar     1 ZINC000003927605   -0.1100
12     C12    -0.6128   -2.6194    0.9287 C.3      1 ZINC000003927605   -0.1600
13     C13    -1.3963   -2.3134    2.2069 C.3      1 ZINC000003927605    0.0000
14     N14    -2.7534   -2.8617    2.0964 N.4      1 ZINC000003927605   -0.3800
15     H15    -2.7008   -3.8530    1.9158 H        1 ZINC000003927605    0.4200
16     C16    -3.4766   -2.6323    3.3543 C.3      1 ZINC000003927605   -0.0100
17     C17    -4.8459   -3.3113    3.2864 C.3      1 ZINC000003927605   -0.1400
18     C18    -5.5992   -3.0724    4.5965 C.3      1 ZINC000003927605   -0.0600
19     H19    -4.9879   -3.4094    5.4337 H        1 ZINC000003927605    0.1000
20     C20    -6.9145   -3.8536    4.5784 C.3      1 ZINC000003927605    0.1300
21     N21    -7.5790   -3.7214    5.8773 N.am     1 ZINC000003927605   -0.6100
22     C22    -8.5191   -2.6223    6.1107 C.3      1 ZINC000003927605    0.0700
23     C23    -7.3255   -4.6109    6.8576 C.2      1 ZINC000003927605    0.5700
24     O24    -6.4680   -5.4583    6.7024 O.2      1 ZINC000003927605   -0.5300
25     C25    -8.0904   -4.5559    8.1216 C.ar     1 ZINC000003927605   -0.1400
26     C26    -9.4367   -4.1878    8.1108 C.ar     1 ZINC000003927605   -0.0900
27     C27   -10.1448   -4.1390    9.2937 C.ar     1 ZINC000003927605   -0.1300
28     C28    -9.5232   -4.4535   10.4891 C.ar     1 ZINC000003927605   -0.0900
29     C29    -8.1888   -4.8187   10.5069 C.ar     1 ZINC000003927605   -0.1200
30     C30    -7.4709   -4.8775    9.3303 C.ar     1 ZINC000003927605   -0.0600
31     C31    -5.8905   -1.6015    4.7474 C.ar     1 ZINC000003927605   -0.0800
32     C32    -6.6591   -0.9491    3.8018 C.ar     1 ZINC000003927605   -0.1100
33     C33    -6.9271    0.4002    3.9390 C.ar     1 ZINC000003927605   -0.0900
34     C34    -6.4262    1.0980    5.0229 C.ar     1 ZINC000003927605   -0.0300
35     Cl35   -6.7630    2.7922    5.1960 Cl       1 ZINC000003927605   -0.0300
36     C36    -5.6562    0.4443    5.9704 C.ar     1 ZINC000003927605   -0.0300
37     Cl37   -5.0267    1.3188    7.3315 Cl       1 ZINC000003927605   -0.0300
38     C38    -5.3937   -0.9068    5.8345 C.ar     1 ZINC000003927605   -0.0900
39     C39    -3.4687   -2.2028    0.9970 C.3      1 ZINC000003927605   -0.0100
40     C40    -2.7649   -2.5046   -0.3278 C.3      1 ZINC000003927605   -0.1400
41     H41     0.8144    2.0520   -0.1028 H        1 ZINC000003927605    0.1000
42     H42    -0.7578    2.0561   -0.9375 H        1 ZINC000003927605    0.0900
43     H43    -0.6942    1.9994    0.8405 H        1 ZINC000003927605    0.0900
44     H44    -2.1840   -0.0588    0.0110 H        1 ZINC000003927605    0.4000
45     H45    -0.9940   -0.4597   -2.4733 H        1 ZINC000003927605    0.1200
46     H46     0.1860   -1.0498   -4.5523 H        1 ZINC000003927605    0.1300
47     H47     1.2382   -3.2638   -4.7848 H        1 ZINC000003927605    0.1300
48     H48     1.1111   -4.8874   -2.9379 H        1 ZINC000003927605    0.1300
49     H49    -0.0650   -4.2956   -0.8571 H        1 ZINC000003927605    0.1200
50     H50    -0.5568   -3.6985    0.7856 H        1 ZINC000003927605    0.1000
51     H51     0.3940   -2.2099    1.0120 H        1 ZINC000003927605    0.1300
52     H52    -0.8904   -2.7660    3.0598 H        1 ZINC000003927605    0.1300
53     H53    -1.4514   -1.2341    2.3492 H        1 ZINC000003927605    0.1300
54     H54    -2.9049   -3.0493    4.1833 H        1 ZINC000003927605    0.1300
55     H55    -3.6093   -1.5612    3.5069 H        1 ZINC000003927605    0.1300
56     H56    -5.4176   -2.8942    2.4574 H        1 ZINC000003927605    0.0900
57     H57    -4.7132   -4.3824    3.1337 H        1 ZINC000003927605    0.1000
58     H58    -7.5622   -3.4565    3.7968 H        1 ZINC000003927605    0.0900
59     H59    -6.7095   -4.9057    4.3806 H        1 ZINC000003927605    0.1000
60     H60    -9.5087   -2.9089    5.7550 H        1 ZINC000003927605    0.0600
61     H61    -8.5655   -2.4042    7.1776 H        1 ZINC000003927605    0.0800
62     H62    -8.1824   -1.7359    5.5730 H        1 ZINC000003927605    0.0700
63     H63    -9.9229   -3.9414    7.1784 H        1 ZINC000003927605    0.1300
64     H64   -11.1866   -3.8543    9.2867 H        1 ZINC000003927605    0.1300
65     H65   -10.0819   -4.4133   11.4125 H        1 ZINC000003927605    0.1300
66     H66    -7.7094   -5.0627   11.4434 H        1 ZINC000003927605    0.1300
67     H67    -6.4294   -5.1631    9.3455 H        1 ZINC000003927605    0.1300
68     H68    -7.0501   -1.4936    2.9550 H        1 ZINC000003927605    0.1400
69     H69    -7.5274    0.9094    3.1996 H        1 ZINC000003927605    0.1500
70     H70    -4.7936   -1.4172    6.5732 H        1 ZINC000003927605    0.1400
71     H71    -4.4929   -2.5738    0.9566 H        1 ZINC000003927605    0.1400
72     H72    -3.4797   -1.1259    1.1650 H        1 ZINC000003927605    0.1300
73     H73    -3.2966   -2.0130   -1.1426 H        1 ZINC000003927605    0.1200
74     H74    -2.7536   -3.5813   -0.4970 H        1 ZINC000003927605    0.1100
@<TRIPOS>BOND
1     1     2     1
2     1     41    1
3     1     42    1
4     1     43    1
5     2     3     2
6     2     4     am
7     4     5     1
8     4     44    1
9     5     40    1
10    5     6     1
11    5     12    1
12    6     11    ar
13    6     7     ar
14    7     8     ar
15    7     45    1
16    8     9     ar
17    8     46    1
18    9     10    ar
19    9     47    1
20    10    11    ar
21    10    48    1
22    11    49    1
23    12    13    1
24    12    50    1
25    12    51    1
26    13    14    1
27    13    52    1
28    13    53    1
29    14    15    1
30    14    16    1
31    14    39    1
32    16    17    1
33    16    54    1
34    16    55    1
35    17    18    1
36    17    56    1
37    17    57    1
38    18    19    1
39    18    20    1
40    18    31    1
41    20    21    1
42    20    58    1
43    20    59    1
44    21    22    1
45    21    23    am
46    22    60    1
47    22    61    1
48    22    62    1
49    23    24    2
50    23    25    1
51    25    30    ar
52    25    26    ar
53    26    27    ar
54    26    63    1
55    27    28    ar
56    27    64    1
57    28    29    ar
58    28    65    1
59    29    30    ar
60    29    66    1
61    30    67    1
62    31    38    ar
63    31    32    ar
64    32    33    ar
65    32    68    1
66    33    34    ar
67    33    69    1
68    34    35    1
69    34    36    ar
70    36    37    1
71    36    38    ar
72    38    70    1
73    39    40    1
74    39    71    1
75    39    72    1
76    40    73    1
77    40    74    1
@<TRIPOS>SUBSTRUCTURE
1   ZINC000003927605 1     RESIDUE    1   A     ZIN   1
