@<TRIPOS>MOLECULE
ZINC000038277193
  40   41    0    0    0
SMALL
USER_CHARGES
NO_NAME
@<TRIPOS>ATOM
    1 C1       -0.0187     1.5258     0.0104 C.3    1 <0>      -0.1900
    2 C2        0.0021    -0.0041     0.0020 C.3    1 <0>      -0.0100
    3 N3        0.6897    -0.4778    -1.2066 N.4    1 <0>      -0.3800
    4 H4        0.2504    -0.0764    -2.0214 H      1 <0>       0.4200
    5 C5        0.6015    -1.9413    -1.2760 C.3    1 <0>      -0.0100
    6 C6        1.2454    -2.4339    -2.5738 C.3    1 <0>      -0.1400
    7 C7        2.7160    -2.0077    -2.6013 C.3    1 <0>      -0.0600
    8 C8        3.3361    -2.4214    -3.9110 C.ar   1 <0>      -0.1500
    9 C9        2.8305    -1.9322    -5.1002 C.ar   1 <0>      -0.0400
   10 C10       3.3992    -2.3116    -6.3021 C.ar   1 <0>      -0.1400
   11 C11       4.4737    -3.1809    -6.3155 C.ar   1 <0>       0.0200
   12 C12       4.9810    -3.6720    -5.1272 C.ar   1 <0>      -0.6900
   13 S13       6.3507    -4.7802    -5.1446 S.o2   1 <0>       2.5000
   14 C14       7.6845    -3.8642    -4.3244 C.3    1 <0>      -0.6500
   15 O15       5.9280    -5.8726    -4.3402 O.2    1 <0>      -0.9200
   16 O16       6.6418    -4.9558    -6.5244 O.2    1 <0>      -0.9200
   17 C17       4.4165    -3.2876    -3.9229 C.ar   1 <0>       0.2000
   18 F18       4.9115    -3.7669    -2.7608 F      1 <0>      -0.1200
   19 C19       2.7991    -0.4857    -2.4535 C.3    1 <0>      -0.1400
   20 C20       2.0980    -0.0668    -1.1594 C.3    1 <0>      -0.0100
   21 H21       1.0039     1.9031     0.0027 H      1 <0>       0.0800
   22 H22      -0.5459     1.8868    -0.8726 H      1 <0>       0.0800
   23 H23      -0.5289     1.8773     0.9072 H      1 <0>       0.1100
   24 H24       0.5293    -0.3651     0.8851 H      1 <0>       0.1300
   25 H25      -1.0205    -0.3814     0.0098 H      1 <0>       0.1300
   26 H26       1.1231    -2.3771    -0.4239 H      1 <0>       0.1300
   27 H27      -0.4456    -2.2433    -1.2531 H      1 <0>       0.1300
   28 H28       1.1805    -3.5209    -2.6226 H      1 <0>       0.1200
   29 H29       0.7243    -1.9989    -3.4266 H      1 <0>       0.0900
   30 H30       3.2492    -2.4846    -1.7789 H      1 <0>       0.1000
   31 H31       1.9905    -1.2534    -5.0910 H      1 <0>       0.1400
   32 H32       3.0033    -1.9287    -7.2311 H      1 <0>       0.1500
   33 H33       4.9169    -3.4769    -7.2548 H      1 <0>       0.1600
   34 H34       7.3797    -3.6100    -3.3092 H      1 <0>       0.1300
   35 H35       8.5819    -4.4819    -4.2903 H      1 <0>       0.1400
   36 H36       7.8932    -2.9504    -4.8806 H      1 <0>       0.1400
   37 H37       3.8447    -0.1802    -2.4164 H      1 <0>       0.1200
   38 H38       2.3102    -0.0103    -3.3039 H      1 <0>       0.0900
   39 H39       2.1549     1.0162    -1.0500 H      1 <0>       0.1400
   40 H40       2.5884    -0.5431    -0.3104 H      1 <0>       0.1300
@<TRIPOS>BOND
   1    1    2 1
   2    1   21 1
   3    1   22 1
   4    1   23 1
   5    2    3 1
   6    2   24 1
   7    2   25 1
   8    3    4 1
   9    3   20 1
  10    3    5 1
  11    5    6 1
  12    5   26 1
  13    5   27 1
  14    6    7 1
  15    6   28 1
  16    6   29 1
  17    7    8 1
  18    7   19 1
  19    7   30 1
  20    8   17 ar
  21    8    9 ar
  22    9   10 ar
  23    9   31 1
  24   10   11 ar
  25   10   32 1
  26   11   12 ar
  27   11   33 1
  28   12   13 1
  29   12   17 ar
  30   13   14 1
  31   13   15 2
  32   13   16 2
  33   14   34 1
  34   14   35 1
  35   14   36 1
  36   17   18 1
  37   19   20 1
  38   19   37 1
  39   19   38 1
  40   20   39 1
  41   20   40 1
