@<TRIPOS>MOLECULE
ZINC000035308805
34    36    1     0     0
SMALL
USER_CHARGES
@<TRIPOS>ATOM
1      C1     -0.0187    1.5258    0.0104 C.3      1 ZINC000035308805   -0.1600
2      C2      0.0021   -0.0041    0.0020 C.3      1 ZINC000035308805    0.1000
3      N3      0.7106   -0.4894    1.1889 N.am     1 ZINC000035308805   -0.5100
4      C4      2.0418   -0.6880    1.1359 C.2      1 ZINC000035308805    0.5500
5      O5      2.6472   -0.4636    0.1029 O.2      1 ZINC000035308805   -0.4900
6      C6      2.7650   -1.1718    2.3136 C.2      1 ZINC000035308805   -0.1200
7      C7      4.2301   -1.3891    2.2544 C.2      1 ZINC000035308805    0.1200
8      N8      5.0028   -1.1810    1.2084 N.2      1 ZINC000035308805   -0.2500
9      N9      6.3172   -1.5063    1.5667 N.pl3    1 ZINC000035308805   -0.4800
10     C10     6.3136   -1.9147    2.8540 C.2      1 ZINC000035308805    0.0600
11     C11     5.0436   -1.8491    3.3091 C.2      1 ZINC000035308805   -0.2600
12     C12     2.0763   -1.4211    3.4697 C.2      1 ZINC000035308805    0.0300
13     C13     0.6794   -1.2039    3.4958 C.ar     1 ZINC000035308805   -0.2900
14     C14    -0.0720   -1.4439    4.6558 C.ar     1 ZINC000035308805    0.2900
15     C15     0.5922   -1.9423    5.9133 C.3      1 ZINC000035308805   -0.1200
16     N16    -1.3730   -1.2233    4.6227 N.ar     1 ZINC000035308805   -0.5900
17     C17    -1.9681   -0.7835    3.5195 C.ar     1 ZINC000035308805    0.6200
18     N18    -3.3319   -0.5691    3.5398 N.pl3    1 ZINC000035308805   -0.8100
19     N19    -1.3013   -0.5429    2.4011 N.ar     1 ZINC000035308805   -0.6100
20     C20     0.0124   -0.7316    2.3449 C.ar     1 ZINC000035308805    0.4700
21     H21     1.0039    1.9031    0.0027 H        1 ZINC000035308805    0.0600
22     H22    -0.5459    1.8868   -0.8726 H        1 ZINC000035308805    0.0800
23     H23    -0.5289    1.8773    0.9072 H        1 ZINC000035308805    0.0600
24     H24    -1.0205   -0.3814    0.0098 H        1 ZINC000035308805    0.1000
25     H25     0.5123   -0.3556   -0.8948 H        1 ZINC000035308805    0.1000
26     H26     7.0951   -1.4486    0.9902 H        1 ZINC000035308805    0.4400
27     H27     7.1755   -2.2341    3.4211 H        1 ZINC000035308805    0.1800
28     H28     4.7099   -2.1090    4.3029 H        1 ZINC000035308805    0.1500
29     H29     2.5919   -1.7787    4.3487 H        1 ZINC000035308805    0.1500
30     H30     0.9087   -1.0927    6.5184 H        1 ZINC000035308805    0.1000
31     H31    -0.1132   -2.5497    6.4806 H        1 ZINC000035308805    0.0900
32     H32     1.4615   -2.5452    5.6507 H        1 ZINC000035308805    0.0900
33     H33    -3.8376   -0.7394    4.3499 H        1 ZINC000035308805    0.4200
34     H34    -3.7843   -0.2481    2.7441 H        1 ZINC000035308805    0.4200
@<TRIPOS>BOND
1     1     2     1
2     1     21    1
3     1     22    1
4     1     23    1
5     2     3     1
6     2     24    1
7     2     25    1
8     3     20    1
9     3     4     am
10    4     5     2
11    4     6     1
12    6     7     1
13    6     12    2
14    7     11    1
15    7     8     2
16    8     9     1
17    9     10    1
18    9     26    1
19    10    11    2
20    10    27    1
21    11    28    1
22    12    13    1
23    12    29    1
24    13    20    ar
25    13    14    ar
26    14    15    1
27    14    16    ar
28    15    30    1
29    15    31    1
30    15    32    1
31    16    17    ar
32    17    18    1
33    17    19    ar
34    18    33    1
35    18    34    1
36    19    20    ar
@<TRIPOS>SUBSTRUCTURE
1   ZINC000035308805 1     RESIDUE    1   A     ZIN   1
