@<TRIPOS>MOLECULE
ZINC000001704225
34    34    1     0     0
SMALL
USER_CHARGES
@<TRIPOS>ATOM
1      C1     -0.4845    1.4981   -0.2944 C.3      1 ZINC000001704225   -0.1500
2      C2     -0.3589   -0.0255   -0.2340 C.3      1 ZINC000001704225   -0.1200
3      C3      0.4074   -0.5232   -1.4612 C.3      1 ZINC000001704225   -0.1200
4      C4      0.5330   -2.0468   -1.4008 C.3      1 ZINC000001704225    0.0500
5      O5      1.2487   -2.5116   -2.5470 O.3      1 ZINC000001704225   -0.2500
6      C6      1.5363   -3.8301   -2.5972 C.2      1 ZINC000001704225    0.0800
7      C7      1.2248   -4.9384   -1.8103 C.2      1 ZINC000001704225   -0.0500
8      O8      0.5011   -5.0965   -0.6811 O.3      1 ZINC000001704225   -0.2800
9      C9      1.2080   -5.5099    0.4900 C.3      1 ZINC000001704225    0.0500
10     C10     0.2544   -5.5146    1.6864 C.3      1 ZINC000001704225   -0.1200
11     C11     1.0113   -5.9572    2.9402 C.3      1 ZINC000001704225   -0.1200
12     C12     0.0576   -5.9619    4.1366 C.3      1 ZINC000001704225   -0.1500
13     C13     1.9747   -5.8718   -2.6647 C.2      1 ZINC000001704225    0.3600
14     O14     2.2131   -7.0642   -2.6775 O.2      1 ZINC000001704225   -0.3700
15     C15     2.3026   -4.6942   -3.5082 C.2      1 ZINC000001704225    0.3700
16     O16     2.9430   -4.5170   -4.5266 O.2      1 ZINC000001704225   -0.3600
17     H17     0.5099    1.9444   -0.3074 H        1 ZINC000001704225    0.0600
18     H18    -1.0224    1.7828   -1.1987 H        1 ZINC000001704225    0.0600
19     H19    -1.0304    1.8526    0.5799 H        1 ZINC000001704225    0.0600
20     H20     0.1789   -0.3102    0.6703 H        1 ZINC000001704225    0.0700
21     H21    -1.3533   -0.4718   -0.2210 H        1 ZINC000001704225    0.0700
22     H22    -0.1305   -0.2385   -2.3655 H        1 ZINC000001704225    0.0800
23     H23     1.4018   -0.0769   -1.4742 H        1 ZINC000001704225    0.0800
24     H24     1.0708   -2.3315   -0.4965 H        1 ZINC000001704225    0.0700
25     H25    -0.4614   -2.4931   -1.3878 H        1 ZINC000001704225    0.0800
26     H26     1.6062   -6.5132    0.3388 H        1 ZINC000001704225    0.0700
27     H27     2.0285   -4.8185    0.6821 H        1 ZINC000001704225    0.0600
28     H28    -0.1438   -4.5112    1.8376 H        1 ZINC000001704225    0.0700
29     H29    -0.5661   -6.2059    1.4943 H        1 ZINC000001704225    0.0800
30     H30     1.4094   -6.9605    2.7890 H        1 ZINC000001704225    0.0700
31     H31     1.8317   -5.2658    3.1323 H        1 ZINC000001704225    0.0700
32     H32    -0.7629   -6.6532    3.9445 H        1 ZINC000001704225    0.0600
33     H33     0.5968   -6.2772    5.0299 H        1 ZINC000001704225    0.0600
34     H34    -0.3406   -4.9585    4.2878 H        1 ZINC000001704225    0.0600
@<TRIPOS>BOND
1     1     2     1
2     1     17    1
3     1     18    1
4     1     19    1
5     2     3     1
6     2     20    1
7     2     21    1
8     3     4     1
9     3     22    1
10    3     23    1
11    4     5     1
12    4     24    1
13    4     25    1
14    5     6     1
15    6     15    1
16    6     7     2
17    7     8     1
18    7     13    1
19    8     9     1
20    9     10    1
21    9     26    1
22    9     27    1
23    10    11    1
24    10    28    1
25    10    29    1
26    11    12    1
27    11    30    1
28    11    31    1
29    12    32    1
30    12    33    1
31    12    34    1
32    13    14    2
33    13    15    1
34    15    16    2
@<TRIPOS>SUBSTRUCTURE
1   ZINC000001704225 1     RESIDUE    1   A     ZIN   1
