@<TRIPOS>MOLECULE
ZINC000040379938
56    59    1     0     0
SMALL
USER_CHARGES
@<TRIPOS>ATOM
1      C1     -4.0962    1.5370   -2.0258 C.3      1 ZINC000040379938   -0.1800
2      C2     -4.6259    0.5112   -1.0573 C.2      1 ZINC000040379938    0.5100
3      O3     -5.8133    0.4619   -0.8152 O.2      1 ZINC000040379938   -0.5400
4      N4     -3.7801   -0.3516   -0.4600 N.am     1 ZINC000040379938   -0.7300
5      C5     -4.2951   -1.3489    0.4815 C.3      1 ZINC000040379938    0.1100
6      C6     -3.1363   -2.1955    1.0121 C.3      1 ZINC000040379938    0.0600
7      H7     -2.4024   -1.5650    1.5141 H        1 ZINC000040379938    0.1400
8      C8     -3.6573   -3.2850    1.9692 C.3      1 ZINC000040379938    0.0600
9      N9     -3.2673   -4.5427    1.3137 N.am     1 ZINC000040379938   -0.5700
10     C10    -3.5223   -5.8278    1.8028 C.ar     1 ZINC000040379938    0.2300
11     C11    -3.2014   -6.9393    1.0328 C.ar     1 ZINC000040379938   -0.1600
12     C12    -3.4517   -8.2079    1.5114 C.ar     1 ZINC000040379938   -0.0400
13     C13    -4.0271   -8.3764    2.7695 C.ar     1 ZINC000040379938   -0.1300
14     C14    -4.2968   -9.7402    3.2866 C.ar     1 ZINC000040379938    0.0000
15     C15    -4.9716  -10.6677    2.4948 C.ar     1 ZINC000040379938   -0.1000
16     C16    -5.2199  -11.9351    2.9811 C.ar     1 ZINC000040379938   -0.0900
17     C17    -4.8004  -12.2857    4.2518 C.ar     1 ZINC000040379938   -0.1700
18     C18    -5.0740  -13.6714    4.7770 C.3      1 ZINC000040379938    0.0500
19     N19    -3.9549  -14.5570    4.4287 N.4      1 ZINC000040379938   -0.5100
20     H20    -3.8530  -14.5916    3.4255 H        1 ZINC000040379938    0.4300
21     H21    -3.1048  -14.2028    4.8411 H        1 ZINC000040379938    0.4300
22     C22    -4.2216  -15.9078    4.9407 C.3      1 ZINC000040379938    0.1000
23     C23    -3.0735  -16.8162    4.5834 C.2      1 ZINC000040379938   -0.1100
24     C24    -2.0124  -17.1258    5.3645 C.2      1 ZINC000040379938    0.0100
25     N25    -1.2420  -17.9677    4.6375 N.pl3    1 ZINC000040379938   -0.3800
26     N26    -1.8083  -18.1483    3.4958 N.2      1 ZINC000040379938   -0.0400
27     N27    -2.9056  -17.4798    3.4341 N.2      1 ZINC000040379938   -0.2400
28     C28    -4.1302  -11.3692    5.0420 C.ar     1 ZINC000040379938   -0.0900
29     C29    -3.8714  -10.1007    4.5639 C.ar     1 ZINC000040379938   -0.1000
30     C30    -4.3487   -7.2589    3.5425 C.ar     1 ZINC000040379938    0.1500
31     F31    -4.9062   -7.4180    4.7627 F        1 ZINC000040379938   -0.1300
32     C32    -4.0909   -5.9910    3.0600 C.ar     1 ZINC000040379938   -0.1900
33     C33    -2.6285   -4.2563    0.1711 C.2      1 ZINC000040379938    0.6500
34     O34    -2.1932   -5.1093   -0.5770 O.2      1 ZINC000040379938   -0.4900
35     O35    -2.5117   -2.9429   -0.0715 O.3      1 ZINC000040379938   -0.3100
36     H36    -4.9217    2.1401   -2.4038 H        1 ZINC000040379938    0.1000
37     H37    -3.3791    2.1810   -1.5167 H        1 ZINC000040379938    0.0900
38     H38    -3.6047    1.0320   -2.8573 H        1 ZINC000040379938    0.0900
39     H39    -2.8304   -0.3123   -0.6536 H        1 ZINC000040379938    0.4100
40     H40    -4.7866   -0.8439    1.3130 H        1 ZINC000040379938    0.1000
41     H41    -5.0122   -1.9929   -0.0275 H        1 ZINC000040379938    0.0800
42     H42    -3.1796   -3.1977    2.9450 H        1 ZINC000040379938    0.1100
43     H43    -4.7413   -3.2235    2.0655 H        1 ZINC000040379938    0.1100
44     H44    -2.7555   -6.8091    0.0578 H        1 ZINC000040379938    0.1700
45     H45    -3.2024   -9.0707    0.9115 H        1 ZINC000040379938    0.1400
46     H46    -5.2999  -10.3949    1.5027 H        1 ZINC000040379938    0.1400
47     H47    -5.7430  -12.6546    2.3686 H        1 ZINC000040379938    0.1400
48     H48    -5.1841  -13.6341    5.8608 H        1 ZINC000040379938    0.1400
49     H49    -5.9923  -14.0541    4.3315 H        1 ZINC000040379938    0.1400
50     H50    -4.3317  -15.8704    6.0245 H        1 ZINC000040379938    0.1500
51     H51    -5.1399  -16.2904    4.4952 H        1 ZINC000040379938    0.1500
52     H52    -1.8191  -16.7715    6.3663 H        1 ZINC000040379938    0.2100
53     H53    -0.4065  -18.3665    4.9268 H        1 ZINC000040379938    0.4600
54     H54    -3.8050  -11.6483    6.0333 H        1 ZINC000040379938    0.1300
55     H55    -3.3481   -9.3860    5.1817 H        1 ZINC000040379938    0.1400
56     H56    -4.3390   -5.1256    3.6566 H        1 ZINC000040379938    0.1500
@<TRIPOS>BOND
1     1     2     1
2     1     36    1
3     1     37    1
4     1     38    1
5     2     3     2
6     2     4     am
7     4     5     1
8     4     39    1
9     5     6     1
10    5     40    1
11    5     41    1
12    6     7     1
13    6     35    1
14    6     8     1
15    8     9     1
16    8     42    1
17    8     43    1
18    9     10    1
19    9     33    am
20    10    32    ar
21    10    11    ar
22    11    12    ar
23    11    44    1
24    12    13    ar
25    12    45    1
26    13    14    1
27    13    30    ar
28    14    29    ar
29    14    15    ar
30    15    16    ar
31    15    46    1
32    16    17    ar
33    16    47    1
34    17    18    1
35    17    28    ar
36    18    19    1
37    18    48    1
38    18    49    1
39    19    20    1
40    19    21    1
41    19    22    1
42    22    23    1
43    22    50    1
44    22    51    1
45    23    27    1
46    23    24    2
47    24    25    1
48    24    52    1
49    25    26    1
50    25    53    1
51    26    27    2
52    28    29    ar
53    28    54    1
54    29    55    1
55    30    31    1
56    30    32    ar
57    32    56    1
58    33    34    2
59    33    35    1
@<TRIPOS>SUBSTRUCTURE
1   ZINC000040379938 1     RESIDUE    1   A     ZIN   1
