@<TRIPOS>MOLECULE
ZINC000000004247
33    34    1     0     0
SMALL
USER_CHARGES
@<TRIPOS>ATOM
1      C1     -0.0163    1.4589    0.0089 C.3      1 ZINC000000004247    0.0600
2      N2     -0.0061   -0.0061    0.0026 N.pl3    1 ZINC000000004247   -0.4000
3      C3     -0.0084   -0.7873   -1.0969 C.2      1 ZINC000000004247    0.0400
4      C4      0.0043   -2.0889   -0.7154 C.2      1 ZINC000000004247   -0.2100
5      C5      0.0151   -2.1271    0.6800 C.2      1 ZINC000000004247   -0.1100
6      C6      0.0136   -0.8143    1.1193 C.2      1 ZINC000000004247   -0.1000
7      C7      0.0223   -0.3822    2.4651 C.2      1 ZINC000000004247    0.4300
8      O8      0.0204    0.8048    2.7217 O.2      1 ZINC000000004247   -0.4100
9      C9      0.0339   -1.3944    3.5815 C.3      1 ZINC000000004247   -0.0400
10     H10     0.6240   -2.2602    3.2808 H        1 ZINC000000004247    0.1700
11     C11    -1.3451   -1.8181    3.8741 C.1      1 ZINC000000004247    0.2000
12     N12    -2.4093   -2.1450    4.0999 N.1      1 ZINC000000004247   -0.3700
13     C13     0.6417   -0.7759    4.8141 C.2      1 ZINC000000004247    0.5300
14     O14     1.0273    0.3737    4.7885 O.2      1 ZINC000000004247   -0.4700
15     N15     0.7566   -1.5003    5.9448 N.am     1 ZINC000000004247   -0.6700
16     C16     1.4076   -0.9594    7.0590 C.ar     1 ZINC000000004247    0.1400
17     C17     2.1685   -1.7764    7.8849 C.ar     1 ZINC000000004247   -0.1400
18     C18     2.8099   -1.2395    8.9839 C.ar     1 ZINC000000004247   -0.1000
19     C19     2.6946    0.1100    9.2626 C.ar     1 ZINC000000004247   -0.1300
20     C20     1.9373    0.9262    8.4425 C.ar     1 ZINC000000004247   -0.1000
21     C21     1.2989    0.3966    7.3382 C.ar     1 ZINC000000004247   -0.1200
22     H22     1.0087    1.8295   -0.0023 H        1 ZINC000000004247    0.0800
23     H23    -0.5438    1.8224   -0.8730 H        1 ZINC000000004247    0.0900
24     H24    -0.5215    1.8148    0.9068 H        1 ZINC000000004247    0.1000
25     H25    -0.0190   -0.4334   -2.1172 H        1 ZINC000000004247    0.1700
26     H26     0.0055   -2.9444   -1.3746 H        1 ZINC000000004247    0.1500
27     H27     0.0259   -3.0121    1.2988 H        1 ZINC000000004247    0.1500
28     H28     0.3879   -2.3965    5.9862 H        1 ZINC000000004247    0.4100
29     H29     2.2584   -2.8306    7.6681 H        1 ZINC000000004247    0.1300
30     H30     3.4018   -1.8744    9.6265 H        1 ZINC000000004247    0.1300
31     H31     3.1968    0.5274   10.1228 H        1 ZINC000000004247    0.1200
32     H32     1.8486    1.9797    8.6632 H        1 ZINC000000004247    0.1300
33     H33     0.7075    1.0346    6.6980 H        1 ZINC000000004247    0.1400
@<TRIPOS>BOND
1     1     2     1
2     1     22    1
3     1     23    1
4     1     24    1
5     2     6     1
6     2     3     1
7     3     4     2
8     3     25    1
9     4     5     1
10    4     26    1
11    5     6     2
12    5     27    1
13    6     7     1
14    7     8     2
15    7     9     1
16    9     10    1
17    9     11    1
18    9     13    1
19    11    12    3
20    13    14    2
21    13    15    am
22    15    16    1
23    15    28    1
24    16    21    ar
25    16    17    ar
26    17    18    ar
27    17    29    1
28    18    19    ar
29    18    30    1
30    19    20    ar
31    19    31    1
32    20    21    ar
33    20    32    1
34    21    33    1
@<TRIPOS>SUBSTRUCTURE
1   ZINC000000004247 1     RESIDUE    1   A     ZIN   1
