@<TRIPOS>MOLECULE
ZINC000003947932
46    48    1     0     0
SMALL
USER_CHARGES
@<TRIPOS>ATOM
1      O1      0.0100    0.0256   -0.3504 O.2      1 ZINC000003947932   -0.5100
2      C2     -0.0113    1.2237   -0.1437 C.2      1 ZINC000003947932    0.5700
3      N3      1.1423    1.8975    0.0336 N.am     1 ZINC000003947932   -0.7200
4      C4      2.4220    1.1866   -0.0227 C.3      1 ZINC000003947932    0.1300
5      C5      3.5658    2.1760    0.2089 C.3      1 ZINC000003947932   -0.1000
6      C6      3.4839    2.7293    1.6350 C.3      1 ZINC000003947932   -0.1500
7      C7      4.6760    3.6571    1.8833 C.3      1 ZINC000003947932    0.0600
8      O8      5.8914    2.9372    1.6673 O.3      1 ZINC000003947932   -0.3800
9      C9      6.0447    2.4368    0.3375 C.3      1 ZINC000003947932    0.0600
10     C10     4.9076    1.4599    0.0271 C.3      1 ZINC000003947932   -0.1500
11     C11    -1.2998    1.9408   -0.0931 C.ar     1 ZINC000003947932   -0.2500
12     C12    -1.3452    3.3218    0.1381 C.ar     1 ZINC000003947932    0.2400
13     N13    -2.5178    3.9262    0.1760 N.ar     1 ZINC000003947932   -0.5300
14     C14    -3.6418    3.2441   -0.0010 C.ar     1 ZINC000003947932    0.5900
15     N15    -4.8472    3.9151    0.0460 N.pl3    1 ZINC000003947932   -0.6200
16     C16    -4.8677    5.3101    0.1530 C.ar     1 ZINC000003947932    0.1700
17     C17    -3.8698    6.0682   -0.4445 C.ar     1 ZINC000003947932   -0.0900
18     C18    -3.8923    7.4454   -0.3373 C.ar     1 ZINC000003947932   -0.0800
19     C19    -4.9077    8.0699    0.3649 C.ar     1 ZINC000003947932   -0.0400
20     Cl20   -4.9319    9.8006    0.4976 Cl       1 ZINC000003947932   -0.0500
21     C21    -5.9045    7.3174    0.9615 C.ar     1 ZINC000003947932   -0.0800
22     C22    -5.8904    5.9400    0.8529 C.ar     1 ZINC000003947932   -0.0500
23     Cl23   -7.1410    4.9964    1.6007 Cl       1 ZINC000003947932   -0.0400
24     N24    -3.6411    1.9358   -0.2223 N.ar     1 ZINC000003947932   -0.5200
25     C25    -2.5099    1.2592   -0.2807 C.ar     1 ZINC000003947932    0.2000
26     C26    -2.5196   -0.2266   -0.5326 C.3      1 ZINC000003947932    0.5300
27     F27    -3.8293   -0.6482   -0.7855 F        1 ZINC000003947932   -0.1600
28     F28    -1.7142   -0.5173   -1.6390 F        1 ZINC000003947932   -0.1500
29     F29    -2.0241   -0.8936    0.5930 F        1 ZINC000003947932   -0.1500
30     H30     1.1253    2.8533    0.1985 H        1 ZINC000003947932    0.4000
31     H31     2.4448    0.4177    0.7496 H        1 ZINC000003947932    0.0800
32     H32     2.5365    0.7215   -1.0018 H        1 ZINC000003947932    0.0800
33     H33     3.4898    2.9951   -0.5063 H        1 ZINC000003947932    0.0800
34     H34     2.5559    3.2881    1.7561 H        1 ZINC000003947932    0.0700
35     H35     3.5094    1.9048    2.3475 H        1 ZINC000003947932    0.0800
36     H36     4.6276    4.5027    1.1971 H        1 ZINC000003947932    0.0500
37     H37     4.6463    4.0202    2.9106 H        1 ZINC000003947932    0.1000
38     H38     6.0142    3.2664   -0.3688 H        1 ZINC000003947932    0.0500
39     H39     7.0009    1.9207    0.2513 H        1 ZINC000003947932    0.1000
40     H40     4.9618    0.6098    0.7072 H        1 ZINC000003947932    0.0800
41     H41     4.9978    1.1109   -1.0015 H        1 ZINC000003947932    0.0800
42     H42    -0.4342    3.8834    0.2834 H        1 ZINC000003947932    0.1900
43     H43    -5.6800    3.4195    0.0048 H        1 ZINC000003947932    0.4300
44     H44    -3.0764    5.5816   -0.9923 H        1 ZINC000003947932    0.1500
45     H45    -3.1161    8.0352   -0.8021 H        1 ZINC000003947932    0.1500
46     H46    -6.6961    7.8074    1.5088 H        1 ZINC000003947932    0.1500
@<TRIPOS>BOND
1     1     2     2
2     2     3     am
3     2     11    1
4     3     4     1
5     3     30    1
6     4     5     1
7     4     31    1
8     4     32    1
9     5     10    1
10    5     6     1
11    5     33    1
12    6     7     1
13    6     34    1
14    6     35    1
15    7     8     1
16    7     36    1
17    7     37    1
18    8     9     1
19    9     10    1
20    9     38    1
21    9     39    1
22    10    40    1
23    10    41    1
24    11    25    ar
25    11    12    ar
26    12    13    ar
27    12    42    1
28    13    14    ar
29    14    15    1
30    14    24    ar
31    15    16    1
32    15    43    1
33    16    22    ar
34    16    17    ar
35    17    18    ar
36    17    44    1
37    18    19    ar
38    18    45    1
39    19    20    1
40    19    21    ar
41    21    22    ar
42    21    46    1
43    22    23    1
44    24    25    ar
45    25    26    1
46    26    27    1
47    26    28    1
48    26    29    1
@<TRIPOS>SUBSTRUCTURE
1   ZINC000003947932 1     RESIDUE    1   A     ZIN   1
