@<TRIPOS>MOLECULE
ZINC000001549189
  31   33    0    0    0
SMALL
USER_CHARGES
NO_NAME
@<TRIPOS>ATOM
    1 C1        0.5364     1.0662     1.6537 C.2    1 <0>      -0.0800
    2 C2        0.2670     0.0072     0.8878 C.2    1 <0>      -0.1900
    3 C3       -1.1197    -0.4670     0.6559 C.2    1 <0>       0.4100
    4 O4       -2.0388     0.2994     0.4428 O.2    1 <0>      -0.4100
    5 C5       -1.3129    -1.9471     0.7019 C.2    1 <0>       0.2900
    6 N6       -2.5636    -2.4844     0.8847 N.pl3  1 <0>      -0.7300
    7 C7       -3.6300    -2.8820     1.8072 C.3    1 <0>       0.1100
    8 C8       -3.7753    -3.0584     0.2944 C.3    1 <0>       0.1100
    9 C9       -0.2269    -2.7527     0.5589 C.2    1 <0>      -0.2000
   10 C10      -0.4270    -4.2457     0.6042 C.3    1 <0>       0.1300
   11 O11      -1.7837    -4.5343     0.9475 O.3    1 <0>      -0.5400
   12 C12       1.0700    -2.2563     0.3707 C.2    1 <0>       0.4100
   13 O13       1.9971    -3.0402     0.3454 O.2    1 <0>      -0.4400
   14 C14       1.3582    -0.7848     0.1934 C.3    1 <0>       0.0500
   15 N15       1.3824    -0.4566    -1.2382 N.3    1 <0>      -0.4400
   16 C16       2.6187     0.2521    -1.5950 C.3    1 <0>      -0.0600
   17 C17       2.4206    -1.2259    -1.9372 C.3    1 <0>      -0.0800
   18 H18       1.5588     1.3842     1.7952 H      1 <0>       0.1200
   19 H19      -0.2683     1.6079     2.1285 H      1 <0>       0.1200
   20 H20      -3.4695    -3.7754     2.4107 H      1 <0>       0.1000
   21 H21      -4.2119    -2.0903     2.2790 H      1 <0>       0.0800
   22 H22      -4.4508    -2.3832    -0.2309 H      1 <0>       0.0900
   23 H23      -3.7126    -4.0707    -0.1050 H      1 <0>       0.0900
   24 H24      -0.2008    -4.6724    -0.3730 H      1 <0>       0.0600
   25 H25       0.2371    -4.6787     1.3523 H      1 <0>       0.0600
   26 H26      -1.9850    -5.4789     0.9952 H      1 <0>       0.3700
   27 H27       2.3221    -0.5446     0.6420 H      1 <0>       0.1000
   28 H28       2.5712     0.9712    -2.4128 H      1 <0>       0.1300
   29 H29       3.3118     0.4962    -0.7900 H      1 <0>       0.1000
   30 H30       2.9828    -1.9586    -1.3583 H      1 <0>       0.1100
   31 H31       2.2421    -1.4836    -2.9811 H      1 <0>       0.1300
@<TRIPOS>BOND
   1    1    2 2
   2    1   18 1
   3    1   19 1
   4    2   14 1
   5    2    3 1
   6    3    4 2
   7    3    5 1
   8    5    6 1
   9    5    9 2
  10    6    8 1
  11    6    7 1
  12    7    8 1
  13    7   20 1
  14    7   21 1
  15    8   22 1
  16    8   23 1
  17    9   10 1
  18    9   12 1
  19   10   11 1
  20   10   24 1
  21   10   25 1
  22   11   26 1
  23   12   13 2
  24   12   14 1
  25   14   15 1
  26   14   27 1
  27   15   17 1
  28   15   16 1
  29   16   17 1
  30   16   28 1
  31   16   29 1
  32   17   30 1
  33   17   31 1
