@<TRIPOS>MOLECULE
ZINC000003596274
  34   36    0    0    0
SMALL
USER_CHARGES
NO_NAME
@<TRIPOS>ATOM
    1 C1       -0.0187     1.5258     0.0104 C.3    1 <0>      -0.1400
    2 C2        0.0021    -0.0041     0.0020 C.3    1 <0>       0.1100
    3 C3       -1.4343    -0.5308     0.0199 C.3    1 <0>      -0.1800
    4 C4        0.7032    -0.4946    -1.2656 C.3    1 <0>      -0.1400
    5 C5        0.8114    -2.0249    -1.2417 C.3    1 <0>      -0.1100
    6 C6        1.5382    -2.4333     0.0399 C.3    1 <0>      -0.1600
    7 H7        2.5434    -2.0117     0.0399 H      1 <0>       0.1200
    8 C8        1.6202    -3.9406     0.1554 C.2    1 <0>       0.3400
    9 O9        1.2248    -4.6851    -0.7097 O.2    1 <0>      -0.3900
   10 C10       2.2365    -4.4354     1.4387 C.2    1 <0>       0.3600
   11 O11       2.8903    -5.4571     1.4841 O.2    1 <0>      -0.4000
   12 C12       1.9985    -3.6039     2.6420 C.ar   1 <0>      -0.1600
   13 C13       2.4661    -4.0445     3.8835 C.ar   1 <0>      -0.0600
   14 C14       2.2648    -3.2714     5.0072 C.ar   1 <0>      -0.1300
   15 C15       1.6022    -2.0605     4.9009 C.ar   1 <0>      -0.0800
   16 C16       1.1316    -1.6230     3.6767 C.ar   1 <0>      -0.1100
   17 C17       1.3149    -2.3880     2.5383 C.ar   1 <0>      -0.0300
   18 C18       0.7584    -1.8965     1.2378 C.3    1 <0>       0.1400
   19 H19      -0.2640    -2.2647     1.1530 H      1 <0>       0.0800
   20 O20       0.6953    -0.4759     1.1633 O.3    1 <0>      -0.3500
   21 H21       1.0039     1.9031     0.0027 H      1 <0>       0.0700
   22 H22      -0.5459     1.8868    -0.8726 H      1 <0>       0.0700
   23 H23      -0.5289     1.8773     0.9072 H      1 <0>       0.0700
   24 H24      -1.9650    -0.1688    -0.8607 H      1 <0>       0.0700
   25 H25      -1.4217    -1.6207     0.0139 H      1 <0>       0.0600
   26 H26      -1.9394    -0.1782     0.9191 H      1 <0>       0.0700
   27 H27       0.1297    -0.1856    -2.1395 H      1 <0>       0.0800
   28 H28       1.7022    -0.0616    -1.3177 H      1 <0>       0.0800
   29 H29      -0.1861    -2.4642    -1.2546 H      1 <0>       0.0800
   30 H30       1.3756    -2.3671    -2.1093 H      1 <0>       0.0800
   31 H31       2.9839    -4.9890     3.9624 H      1 <0>       0.1400
   32 H32       2.6229    -3.6098     5.9683 H      1 <0>       0.1400
   33 H33       1.4514    -1.4531     5.7810 H      1 <0>       0.1300
   34 H34       0.6166    -0.6762     3.6083 H      1 <0>       0.1400
@<TRIPOS>BOND
   1    1    2 1
   2    1   21 1
   3    1   22 1
   4    1   23 1
   5    2   20 1
   6    2    3 1
   7    2    4 1
   8    3   24 1
   9    3   25 1
  10    3   26 1
  11    4    5 1
  12    4   27 1
  13    4   28 1
  14    5    6 1
  15    5   29 1
  16    5   30 1
  17    6    7 1
  18    6   18 1
  19    6    8 1
  20    8    9 2
  21    8   10 1
  22   10   11 2
  23   10   12 1
  24   12   17 ar
  25   12   13 ar
  26   13   14 ar
  27   13   31 1
  28   14   15 ar
  29   14   32 1
  30   15   16 ar
  31   15   33 1
  32   16   17 ar
  33   16   34 1
  34   17   18 1
  35   18   19 1
  36   18   20 1
