@<TRIPOS>MOLECULE
ZINC000002012812
  51   53    0    0    0
SMALL
USER_CHARGES
NO_NAME
@<TRIPOS>ATOM
    1 C1        0.7213     1.6888    -1.1723 C.3    1 <0>      -0.1200
    2 C2        0.9325     0.2300    -1.4857 C.ar   1 <0>      -0.0300
    3 C3        2.0910    -0.1803    -2.1185 C.ar   1 <0>      -0.1400
    4 C4        2.2848    -1.5185    -2.4060 C.ar   1 <0>      -0.0100
    5 C5        1.3203    -2.4464    -2.0603 C.ar   1 <0>      -0.6500
    6 S6        1.5670    -4.1520    -2.4272 S.o2   1 <0>       2.6700
    7 O7        0.2752    -4.7413    -2.4833 O.2    1 <0>      -0.9800
    8 O8        2.4911    -4.2008    -3.5056 O.2    1 <0>      -0.9800
    9 N9        2.3331    -4.8280    -1.1240 N.am   1 <0>      -1.0000
   10 C10       2.6377    -6.0928    -1.1325 C.2    1 <0>       0.6900
   11 O11       2.3290    -6.8547    -2.2045 O.3    1 <0>      -0.5000
   12 N12       3.2731    -6.6534    -0.0516 N.pl3  1 <0>      -0.6900
   13 C13       3.6161    -8.0776    -0.0612 C.3    1 <0>       0.0800
   14 H14       2.8358    -8.6522    -0.5602 H      1 <0>       0.1000
   15 C15       3.8244    -8.5915     1.3818 C.3    1 <0>       0.1100
   16 H16       3.1479    -9.4200     1.5914 H      1 <0>       0.0800
   17 O17       3.6215    -7.5340     2.3213 O.3    1 <0>      -0.5500
   18 C18       5.3058    -9.0768     1.4174 C.3    1 <0>      -0.0500
   19 C19       5.6628   -10.0534     2.5397 C.3    1 <0>      -0.1200
   20 C20       6.1477    -7.7667     1.3401 C.3    1 <0>      -0.1100
   21 C21       5.9394    -7.2528    -0.1029 C.3    1 <0>      -0.1200
   22 C22       4.9897    -8.3012    -0.7643 C.3    1 <0>      -0.1100
   23 H23       4.9845    -8.3186    -1.8542 H      1 <0>       0.1100
   24 C24       5.4703    -9.6142    -0.0481 C.3    1 <0>      -0.0600
   25 C25       6.9276    -9.9459    -0.3753 C.3    1 <0>      -0.1400
   26 C26       4.5416   -10.7962    -0.3333 C.3    1 <0>      -0.1500
   27 C27       0.1624    -2.0363    -1.4263 C.ar   1 <0>      -0.0100
   28 C28      -0.0297    -0.6986    -1.1354 C.ar   1 <0>      -0.1400
   29 H29       1.1273     1.9109    -0.1854 H      1 <0>       0.0800
   30 H30       1.2292     2.2983    -1.9197 H      1 <0>       0.0700
   31 H31      -0.3455     1.9124    -1.1851 H      1 <0>       0.0700
   32 H32       2.8446     0.5447    -2.3886 H      1 <0>       0.1300
   33 H33       3.1896    -1.8389    -2.9010 H      1 <0>       0.1400
   34 H34       2.5945    -7.7806    -2.1185 H      1 <0>       0.4200
   35 H35       3.4948    -6.1063     0.7181 H      1 <0>       0.4300
   36 H36       2.7298    -7.1602     2.3061 H      1 <0>       0.3800
   37 H37       5.0390   -10.9436     2.4589 H      1 <0>       0.0600
   38 H38       6.7121   -10.3361     2.4552 H      1 <0>       0.0600
   39 H39       5.4917    -9.5762     3.5047 H      1 <0>       0.0600
   40 H40       5.7803    -7.0358     2.0604 H      1 <0>       0.0800
   41 H41       7.2014    -7.9810     1.5187 H      1 <0>       0.0700
   42 H42       5.4696    -6.2693    -0.0919 H      1 <0>       0.0700
   43 H43       6.8907    -7.2146    -0.6337 H      1 <0>       0.0700
   44 H44       7.5659    -9.1157    -0.0730 H      1 <0>       0.0600
   45 H45       7.2246   -10.8468     0.1617 H      1 <0>       0.0600
   46 H46       7.0305   -10.1116    -1.4477 H      1 <0>       0.0600
   47 H47       4.5332   -11.0016    -1.4037 H      1 <0>       0.0600
   48 H48       4.8980   -11.6759     0.2026 H      1 <0>       0.0600
   49 H49       3.5320   -10.5533    -0.0020 H      1 <0>       0.0600
   50 H50      -0.5910    -2.7613    -1.1558 H      1 <0>       0.1400
   51 H51      -0.9343    -0.3782    -0.6400 H      1 <0>       0.1300
@<TRIPOS>BOND
   1    1    2 1
   2    1   29 1
   3    1   30 1
   4    1   31 1
   5    2   28 ar
   6    2    3 ar
   7    3    4 ar
   8    3   32 1
   9    4    5 ar
  10    4   33 1
  11    5    6 1
  12    5   27 ar
  13    6    7 2
  14    6    8 2
  15    6    9 am
  16    9   10 2
  17   10   11 1
  18   10   12 1
  19   11   34 1
  20   12   13 1
  21   12   35 1
  22   13   14 1
  23   13   22 1
  24   13   15 1
  25   15   16 1
  26   15   17 1
  27   15   18 1
  28   17   36 1
  29   18   24 1
  30   18   19 1
  31   18   20 1
  32   19   37 1
  33   19   38 1
  34   19   39 1
  35   20   21 1
  36   20   40 1
  37   20   41 1
  38   21   22 1
  39   21   42 1
  40   21   43 1
  41   22   23 1
  42   22   24 1
  43   24   25 1
  44   24   26 1
  45   25   44 1
  46   25   45 1
  47   25   46 1
  48   26   47 1
  49   26   48 1
  50   26   49 1
  51   27   28 ar
  52   27   50 1
  53   28   51 1
