@<TRIPOS>MOLECULE
ZINC000013346682
28    28    1     0     0
SMALL
USER_CHARGES
@<TRIPOS>ATOM
1      C1     -0.1771    1.5039   -0.5659 C.3      1 ZINC000013346682   -0.1700
2      C2     -0.1610   -0.0029   -0.5818 C.2      1 ZINC000013346682    0.5100
3      O3      0.7473   -0.5939   -1.1267 O.2      1 ZINC000013346682   -0.5200
4      N4     -1.1558   -0.6938    0.0094 N.am     1 ZINC000013346682   -0.6800
5      C5     -1.1925   -2.0876   -0.0880 C.ar     1 ZINC000013346682    0.1700
6      C6     -0.0069   -2.8139   -0.0913 C.ar     1 ZINC000013346682   -0.1300
7      C7     -0.0390   -4.1879   -0.1871 C.ar     1 ZINC000013346682   -0.0600
8      C8     -1.2653   -4.8516   -0.2806 C.ar     1 ZINC000013346682   -0.0900
9      C9     -1.3040   -6.3216   -0.3828 C.2      1 ZINC000013346682    0.1600
10     N10    -2.4439   -6.9364   -0.4695 N.2      1 ZINC000013346682   -0.2900
11     N11    -2.4806   -8.3335   -0.5666 N.am     1 ZINC000013346682   -0.5400
12     C12    -3.6642   -8.9718   -0.6567 C.2      1 ZINC000013346682    0.6000
13     N13    -4.8125   -8.2661   -0.6534 N.am     1 ZINC000013346682   -0.7800
14     S14    -3.7092  -10.6791   -0.7754 S.2      1 ZINC000013346682   -0.6200
15     C15    -2.4549   -4.1180   -0.2765 C.ar     1 ZINC000013346682   -0.0500
16     C16    -2.4147   -2.7446   -0.1755 C.ar     1 ZINC000013346682   -0.1500
17     H17     0.7013    1.8822   -1.0888 H        1 ZINC000013346682    0.1000
18     H18    -1.0784    1.8629   -1.0627 H        1 ZINC000013346682    0.0900
19     H19    -0.1658    1.8565    0.4655 H        1 ZINC000013346682    0.0900
20     H20    -1.8464   -0.2237    0.5024 H        1 ZINC000013346682    0.4200
21     H21     0.9404   -2.3003   -0.0190 H        1 ZINC000013346682    0.1500
22     H22     0.8824   -4.7513   -0.1903 H        1 ZINC000013346682    0.1400
23     H23    -0.3839   -6.8872   -0.3854 H        1 ZINC000013346682    0.1300
24     H24    -1.6543   -8.8414   -0.5690 H        1 ZINC000013346682    0.4200
25     H25    -4.7870   -7.2987   -0.5861 H        1 ZINC000013346682    0.4100
26     H26    -5.6643   -8.7255   -0.7182 H        1 ZINC000013346682    0.4300
27     H27    -3.4045   -4.6273   -0.3489 H        1 ZINC000013346682    0.1400
28     H28    -3.3335   -2.1770   -0.1723 H        1 ZINC000013346682    0.1300
@<TRIPOS>BOND
1     1     2     1
2     1     17    1
3     1     18    1
4     1     19    1
5     2     3     2
6     2     4     am
7     4     5     1
8     4     20    1
9     5     16    ar
10    5     6     ar
11    6     7     ar
12    6     21    1
13    7     8     ar
14    7     22    1
15    8     9     1
16    8     15    ar
17    9     10    2
18    9     23    1
19    10    11    1
20    11    12    am
21    11    24    1
22    12    13    am
23    12    14    2
24    13    25    1
25    13    26    1
26    15    16    ar
27    15    27    1
28    16    28    1
@<TRIPOS>SUBSTRUCTURE
1   ZINC000013346682 1     RESIDUE    1   A     ZIN   1
