@<TRIPOS>MOLECULE
ZINC000150603137
75    79    1     0     0
SMALL
USER_CHARGES
@<TRIPOS>ATOM
1      C1      0.0439    1.7010    0.2024 C.3      1 ZINC000150603137   -0.6700
2      S2      0.0423   -0.1064    0.0486 S.o2     1 ZINC000150603137    2.6000
3      O3      0.9029   -0.6900    1.0172 O.2      1 ZINC000150603137   -0.9400
4      O4     -1.2804   -0.5895   -0.1420 O.2      1 ZINC000150603137   -0.9400
5      N5      0.7961   -0.3989   -1.3965 N.am     1 ZINC000150603137   -1.0500
6      C6      2.1054    0.0305   -1.5983 C.ar     1 ZINC000150603137    0.1700
7      C7      3.0126    0.0094   -0.5451 C.ar     1 ZINC000150603137   -0.1600
8      C8      4.3084    0.4335   -0.7401 C.ar     1 ZINC000150603137   -0.0600
9      C9      4.7141    0.8859   -1.9988 C.ar     1 ZINC000150603137   -0.1100
10     C10     6.1006    1.3395   -2.2087 C.2      1 ZINC000150603137    0.5100
11     O11     6.4521    1.7326   -3.3034 O.2      1 ZINC000150603137   -0.5000
12     O12     6.9785    1.3184   -1.1864 O.3      1 ZINC000150603137   -0.3300
13     C13     8.3267    1.7795   -1.4657 C.3      1 ZINC000150603137    0.1500
14     H14     8.5716    1.5762   -2.5082 H        1 ZINC000150603137    0.1000
15     C15     8.4151    3.2846   -1.2052 C.3      1 ZINC000150603137   -0.1100
16     C16     7.5327    4.0164   -2.1835 C.ar     1 ZINC000150603137   -0.0200
17     C17     8.0272    4.4347   -3.4105 C.ar     1 ZINC000150603137   -0.0200
18     Cl18    9.6786    4.1225   -3.8454 Cl       1 ZINC000150603137    0.0000
19     C19     7.1877    5.1032   -4.2830 C.ar     1 ZINC000150603137    0.1000
20     N20     5.9311    5.3442   -3.9594 N.ar     1 ZINC000150603137   -0.1000
21     O21     5.1020    6.0318   -4.8786 O.3      1 ZINC000150603137   -0.5200
22     C22     5.4269    4.9607   -2.8016 C.ar     1 ZINC000150603137    0.0900
23     C23     6.2051    4.2826   -1.8810 C.ar     1 ZINC000150603137   -0.0400
24     Cl24    5.5326    3.7818   -0.3609 Cl       1 ZINC000150603137    0.0100
25     C25     9.3003    1.0568   -0.5708 C.ar     1 ZINC000150603137   -0.0800
26     C26     8.9313    0.7166    0.7169 C.ar     1 ZINC000150603137   -0.0900
27     C27     9.8212    0.0538    1.5422 C.ar     1 ZINC000150603137   -0.1500
28     C28    11.0855   -0.2710    1.0785 C.ar     1 ZINC000150603137    0.0900
29     O29    11.9617   -0.9232    1.8886 O.3      1 ZINC000150603137   -0.3100
30     C30    11.5119   -1.2429    3.2068 C.3      1 ZINC000150603137    0.4100
31     F31    11.1787   -0.0652    3.8843 F        1 ZINC000150603137   -0.2000
32     F32    10.3862   -2.0698    3.1276 F        1 ZINC000150603137   -0.2000
33     C33    11.4569    0.0712   -0.2186 C.ar     1 ZINC000150603137    0.1200
34     O34    12.6968   -0.2459   -0.6785 O.3      1 ZINC000150603137   -0.3000
35     C35    13.0087    0.1365   -2.0196 C.3      1 ZINC000150603137    0.0900
36     C36    14.4356   -0.3013   -2.3560 C.3      1 ZINC000150603137   -0.1600
37     C37    14.6131   -1.3381   -3.4670 C.3      1 ZINC000150603137   -0.1700
38     C38    15.0028    0.1209   -3.7129 C.3      1 ZINC000150603137   -0.1700
39     C39    10.5588    0.7305   -1.0418 C.ar     1 ZINC000150603137   -0.1600
40     C40     3.8017    0.9069   -3.0593 C.ar     1 ZINC000150603137   -0.1200
41     C41     2.5063    0.4760   -2.8598 C.ar     1 ZINC000150603137    0.1000
42     O42     1.6170    0.4952   -3.8888 O.3      1 ZINC000150603137   -0.3000
43     C43     2.0925    0.9739   -5.1485 C.3      1 ZINC000150603137    0.0900
44     C44     0.9591    0.9213   -6.1749 C.3      1 ZINC000150603137   -0.1600
45     C45     0.4776    2.2486   -6.7643 C.3      1 ZINC000150603137   -0.1700
46     C46     1.2990    1.2839   -7.6219 C.3      1 ZINC000150603137   -0.1700
47     H47     1.0713    2.0651    0.1984 H        1 ZINC000150603137    0.1300
48     H48    -0.4996    2.1374   -0.6356 H        1 ZINC000150603137    0.1400
49     H49    -0.4391    1.9866    1.1369 H        1 ZINC000150603137    0.1400
50     H50     0.3257   -0.8692   -2.1025 H        1 ZINC000150603137    0.4300
51     H51     2.7006   -0.3399    0.4280 H        1 ZINC000150603137    0.1800
52     H52     5.0110    0.4169    0.0799 H        1 ZINC000150603137    0.1500
53     H53     8.0848    3.4974   -0.1885 H        1 ZINC000150603137    0.1100
54     H54     9.4465    3.6148   -1.3288 H        1 ZINC000150603137    0.1200
55     H55     7.5649    5.4322   -5.2401 H        1 ZINC000150603137    0.2000
56     H56     4.3938    5.1758   -2.5719 H        1 ZINC000150603137    0.1900
57     H57     7.9459    0.9693    1.0796 H        1 ZINC000150603137    0.1400
58     H58     9.5307   -0.2103    2.5483 H        1 ZINC000150603137    0.1500
59     H59    12.3055   -1.7602    3.7460 H        1 ZINC000150603137    0.1800
60     H60    12.3104   -0.3427   -2.7058 H        1 ZINC000150603137    0.0700
61     H61    12.9284    1.2192   -2.1167 H        1 ZINC000150603137    0.0700
62     H62    15.1256   -0.3431   -1.5132 H        1 ZINC000150603137    0.1200
63     H63    15.4199   -2.0625   -3.3552 H        1 ZINC000150603137    0.1000
64     H64    13.7133   -1.7084   -3.9583 H        1 ZINC000150603137    0.1000
65     H65    14.3593    0.7105   -4.3659 H        1 ZINC000150603137    0.1000
66     H66    16.0658    0.3564   -3.7628 H        1 ZINC000150603137    0.1000
67     H67    10.8445    0.9972   -2.0486 H        1 ZINC000150603137    0.1400
68     H68     4.1119    1.2559   -4.0332 H        1 ZINC000150603137    0.1500
69     H69     2.4369    2.0023   -5.0398 H        1 ZINC000150603137    0.0700
70     H70     2.9183    0.3480   -5.4867 H        1 ZINC000150603137    0.0700
71     H71     0.2140    0.1424   -6.0130 H        1 ZINC000150603137    0.1200
72     H72    -0.5845    2.3431   -6.9901 H        1 ZINC000150603137    0.1000
73     H73     0.9684    3.1592   -6.4208 H        1 ZINC000150603137    0.1000
74     H74     2.3302    1.5599   -7.8427 H        1 ZINC000150603137    0.1000
75     H75     0.7773    0.7438   -8.4120 H        1 ZINC000150603137    0.1000
@<TRIPOS>BOND
1     1     2     1
2     1     47    1
3     1     48    1
4     1     49    1
5     2     3     2
6     2     4     2
7     2     5     am
8     5     6     1
9     5     50    1
10    6     41    ar
11    6     7     ar
12    7     8     ar
13    7     51    1
14    8     9     ar
15    8     52    1
16    9     10    1
17    9     40    ar
18    10    11    2
19    10    12    1
20    12    13    1
21    13    14    1
22    13    15    1
23    13    25    1
24    15    16    1
25    15    53    1
26    15    54    1
27    16    23    ar
28    16    17    ar
29    17    18    1
30    17    19    ar
31    19    20    ar
32    19    55    1
33    20    21    1
34    20    22    ar
35    22    23    ar
36    22    56    1
37    23    24    1
38    25    39    ar
39    25    26    ar
40    26    27    ar
41    26    57    1
42    27    28    ar
43    27    58    1
44    28    29    1
45    28    33    ar
46    29    30    1
47    30    31    1
48    30    32    1
49    30    59    1
50    33    34    1
51    33    39    ar
52    34    35    1
53    35    36    1
54    35    60    1
55    35    61    1
56    36    38    1
57    36    37    1
58    36    62    1
59    37    38    1
60    37    63    1
61    37    64    1
62    38    65    1
63    38    66    1
64    39    67    1
65    40    41    ar
66    40    68    1
67    41    42    1
68    42    43    1
69    43    44    1
70    43    69    1
71    43    70    1
72    44    46    1
73    44    45    1
74    44    71    1
75    45    46    1
76    45    72    1
77    45    73    1
78    46    74    1
79    46    75    1
@<TRIPOS>SUBSTRUCTURE
1   ZINC000150603137 1     RESIDUE    1   A     ZIN   1
