@<TRIPOS>MOLECULE
ZINC000095586643
  56   58    0    0    0
SMALL
USER_CHARGES
NO_NAME
@<TRIPOS>ATOM
    1 C1       -0.0187     1.5258     0.0104 C.3    1 <0>      -0.1600
    2 C2        0.0021    -0.0041     0.0020 C.3    1 <0>       0.1300
    3 H3       -1.0205    -0.3814     0.0098 H      1 <0>       0.1200
    4 N4        0.7106    -0.4894     1.1889 N.am   1 <0>      -0.7100
    5 C5        0.0512    -0.6335     2.3554 C.2    1 <0>       0.5300
    6 O6       -1.1288    -0.3614     2.4226 O.2    1 <0>      -0.5400
    7 C7        0.7801    -1.1327     3.5763 C.3    1 <0>      -0.1500
    8 C8       -0.1910    -1.2038     4.7565 C.3    1 <0>      -0.1500
    9 C9        0.5490    -1.7106     5.9960 C.3    1 <0>       0.4500
   10 F10       1.5952    -0.8349     6.3052 F      1 <0>      -0.1800
   11 F11      -0.3390    -1.7757     7.0752 F      1 <0>      -0.1800
   12 F12       1.0673    -2.9848     5.7412 F      1 <0>      -0.1800
   13 C13       0.7074    -0.4901    -1.2379 C.2    1 <0>       0.5100
   14 O14       1.7039    -1.1744    -1.1398 O.2    1 <0>      -0.5100
   15 N15       0.2309    -0.1642    -2.4557 N.am   1 <0>      -0.7100
   16 C16       0.9167    -0.6367    -3.6611 C.3    1 <0>       0.1800
   17 H17       1.3246    -1.6315    -3.4822 H      1 <0>       0.1400
   18 C18      -0.0590    -0.6909    -4.8072 C.ar   1 <0>      -0.1000
   19 C19      -0.2561    -1.8950    -5.4593 C.ar   1 <0>      -0.0900
   20 C20      -1.1393    -1.9760    -6.5197 C.ar   1 <0>      -0.1100
   21 C21      -1.8290    -0.8502    -6.9322 C.ar   1 <0>      -0.1000
   22 C22      -1.6407     0.3519    -6.2856 C.ar   1 <0>      -0.1100
   23 C23      -0.7501     0.4399    -5.2078 C.ar   1 <0>      -0.0300
   24 C24      -0.6005     1.7505    -4.5357 C.ar   1 <0>      -0.1300
   25 C25      -1.7678     2.5112    -4.3644 C.ar   1 <0>      -0.0400
   26 C26      -1.6800     3.7403    -3.7373 C.ar   1 <0>      -0.1900
   27 C27      -0.4463     4.1816    -3.2979 C.ar   1 <0>       0.1400
   28 N28       0.6328     3.4511    -3.4716 N.ar   1 <0>      -0.5000
   29 C29       0.6058     2.2597    -4.0737 C.ar   1 <0>       0.3800
   30 N30       1.8187     1.6075    -4.1999 N.am   1 <0>      -0.5300
   31 C31       2.9763     2.4223    -4.5771 C.3    1 <0>       0.1100
   32 C32       3.6581     2.9548    -3.3152 C.3    1 <0>       0.0600
   33 O33       4.1930     1.8621    -2.5656 O.3    1 <0>      -0.5600
   34 C34       2.0314     0.3086    -4.0082 C.2    1 <0>       0.5200
   35 O35       3.1587    -0.1247    -4.1190 O.2    1 <0>      -0.4800
   36 H36       1.0039     1.9031     0.0027 H      1 <0>       0.0700
   37 H37      -0.5459     1.8868    -0.8726 H      1 <0>       0.0700
   38 H38      -0.5289     1.8773     0.9072 H      1 <0>       0.0800
   39 H39       1.6544    -0.7070     1.1351 H      1 <0>       0.4100
   40 H40       1.1839    -2.1254     3.3778 H      1 <0>       0.1100
   41 H41       1.5952    -0.4503     3.8172 H      1 <0>       0.1100
   42 H42      -0.5949    -0.2111     4.9551 H      1 <0>       0.1200
   43 H43      -1.0062    -1.8862     4.5157 H      1 <0>       0.1200
   44 H44      -0.5660     0.3831    -2.5342 H      1 <0>       0.4000
   45 H45       0.2822    -2.7748    -5.1389 H      1 <0>       0.1300
   46 H46      -1.2905    -2.9178    -7.0262 H      1 <0>       0.1300
   47 H47      -2.5161    -0.9135    -7.7630 H      1 <0>       0.1300
   48 H48      -2.1808     1.2288    -6.6109 H      1 <0>       0.1300
   49 H49      -2.7196     2.1423    -4.7173 H      1 <0>       0.1500
   50 H50      -2.5622     4.3465    -3.5934 H      1 <0>       0.1500
   51 H51      -0.3677     5.1393    -2.8049 H      1 <0>       0.1700
   52 H52       3.6817     1.8122    -5.1413 H      1 <0>       0.1000
   53 H53       2.6465     3.2593    -5.1926 H      1 <0>       0.0900
   54 H54       4.4647     3.6320    -3.5962 H      1 <0>       0.0500
   55 H55       2.9293     3.4905    -2.7069 H      1 <0>       0.0600
   56 H56       4.6409     2.1263    -1.7503 H      1 <0>       0.3700
@<TRIPOS>BOND
   1    1    2 1
   2    1   36 1
   3    1   37 1
   4    1   38 1
   5    2    3 1
   6    2    4 1
   7    2   13 1
   8    4    5 am
   9    4   39 1
  10    5    6 2
  11    5    7 1
  12    7    8 1
  13    7   40 1
  14    7   41 1
  15    8    9 1
  16    8   42 1
  17    8   43 1
  18    9   10 1
  19    9   11 1
  20    9   12 1
  21   13   14 2
  22   13   15 am
  23   15   16 1
  24   15   44 1
  25   16   17 1
  26   16   34 1
  27   16   18 1
  28   18   23 ar
  29   18   19 ar
  30   19   20 ar
  31   19   45 1
  32   20   21 ar
  33   20   46 1
  34   21   22 ar
  35   21   47 1
  36   22   23 ar
  37   22   48 1
  38   23   24 1
  39   24   29 ar
  40   24   25 ar
  41   25   26 ar
  42   25   49 1
  43   26   27 ar
  44   26   50 1
  45   27   28 ar
  46   27   51 1
  47   28   29 ar
  48   29   30 1
  49   30   31 1
  50   30   34 am
  51   31   32 1
  52   31   52 1
  53   31   53 1
  54   32   33 1
  55   32   54 1
  56   32   55 1
  57   33   56 1
  58   34   35 2
