@<TRIPOS>MOLECULE
ZINC000000584203
  64   66    0    0    0
SMALL
USER_CHARGES
NO_NAME
@<TRIPOS>ATOM
    1 C1       -0.0178     1.4608     0.0101 C.3    1 <0>       0.0800
    2 N2        0.0021    -0.0041     0.0020 N.am   1 <0>      -0.6200
    3 C3        0.0241    -0.7433     1.2666 C.3    1 <0>       0.0700
    4 C4        0.0001    -0.6716    -1.1688 C.2    1 <0>       0.5100
    5 O5       -0.0182    -0.0596    -2.2157 O.2    1 <0>      -0.5100
    6 C6        0.0205    -2.1784    -1.1771 C.3    1 <0>       0.0400
    7 O7        0.0141    -2.6475    -2.5269 O.3    1 <0>      -0.2900
    8 C8        0.0307    -3.9937    -2.7124 C.ar   1 <0>       0.1400
    9 C9        0.0469    -4.8479    -1.6195 C.ar   1 <0>      -0.2000
   10 C10       0.0606    -6.2122    -1.8186 C.ar   1 <0>      -0.0700
   11 C11       0.0584    -6.7398    -3.1036 C.ar   1 <0>      -0.1200
   12 C12       0.0592    -8.2397    -3.2447 C.3    1 <0>      -0.0700
   13 C13       0.4855    -8.6465    -4.6537 C.3    1 <0>      -0.1400
   14 C14      -0.3653    -7.8646    -5.6614 C.3    1 <0>       0.0300
   15 H15      -1.4196    -7.9542    -5.3993 H      1 <0>       0.1500
   16 N16      -0.1447    -8.3962    -7.0130 N.4    1 <0>      -0.5000
   17 H17       0.8118    -8.2298    -7.2878 H      1 <0>       0.4300
   18 H18      -0.3285    -9.3883    -7.0183 H      1 <0>       0.4300
   19 C19      -1.0491    -7.7256    -7.9566 C.3    1 <0>      -0.0500
   20 C20      -0.8193    -8.2793    -9.3642 C.3    1 <0>       0.1400
   21 H21      -1.0178    -9.3511    -9.3700 H      1 <0>       0.1300
   22 O22       0.5353    -8.0437    -9.7535 O.3    1 <0>      -0.5500
   23 C23      -1.7471    -7.5914   -10.3323 C.ar   1 <0>      -0.1500
   24 C24      -1.3830    -6.3832   -10.8969 C.ar   1 <0>      -0.0900
   25 C25      -2.2316    -5.7508   -11.7851 C.ar   1 <0>      -0.1400
   26 C26      -3.4498    -6.3291   -12.1100 C.ar   1 <0>       0.1400
   27 O27      -4.2861    -5.7091   -12.9836 O.3    1 <0>      -0.4900
   28 C28      -3.8130    -7.5417   -11.5418 C.ar   1 <0>      -0.1000
   29 C29      -5.1355    -8.1731   -11.8930 C.3    1 <0>      -0.0800
   30 C30      -6.2501    -7.5049   -11.0854 C.3    1 <0>       0.0800
   31 O31      -7.5042    -8.1035   -11.4184 O.3    1 <0>      -0.5700
   32 C32      -2.9587    -8.1726   -10.6586 C.ar   1 <0>      -0.0800
   33 C33       0.0545    -6.3971    -5.6102 C.3    1 <0>      -0.0900
   34 C34       0.0480    -5.8935    -4.1905 C.ar   1 <0>      -0.0500
   35 C35       0.0257    -4.5199    -3.9932 C.ar   1 <0>      -0.1400
   36 H36       1.0048     1.8381     0.0023 H      1 <0>       0.0600
   37 H37      -0.5450     1.8219    -0.8730 H      1 <0>       0.0800
   38 H38      -0.5280     1.8123     0.9069 H      1 <0>       0.0800
   39 H39      -0.9979    -0.9406     1.5900 H      1 <0>       0.0600
   40 H40       0.5496    -1.6879     1.1262 H      1 <0>       0.0700
   41 H41       0.5371    -0.1514     2.0246 H      1 <0>       0.0800
   42 H42       0.9202    -2.5324    -0.6737 H      1 <0>       0.1000
   43 H43      -0.8595    -2.5566    -0.6569 H      1 <0>       0.1000
   44 H44       0.0492    -4.4461    -0.6171 H      1 <0>       0.1300
   45 H45       0.0735    -6.8768    -0.9675 H      1 <0>       0.1300
   46 H46       0.7529    -8.6684    -2.5215 H      1 <0>       0.1000
   47 H47      -0.9435    -8.6196    -3.0489 H      1 <0>       0.0900
   48 H48       1.5392    -8.4097    -4.8012 H      1 <0>       0.0900
   49 H49       0.3265    -9.7161    -4.7909 H      1 <0>       0.0900
   50 H50      -2.0824    -7.9054    -7.6596 H      1 <0>       0.1500
   51 H51      -0.8506    -6.6539    -7.9508 H      1 <0>       0.1400
   52 H52       0.7827    -7.1090    -9.7706 H      1 <0>       0.3900
   53 H53      -0.4345    -5.9332   -10.6434 H      1 <0>       0.1300
   54 H54      -1.9469    -4.8067   -12.2257 H      1 <0>       0.1400
   55 H55      -4.1456    -5.9589   -13.9072 H      1 <0>       0.4000
   56 H56      -5.3295    -8.0419   -12.9575 H      1 <0>       0.0900
   57 H57      -5.1041    -9.2369   -11.6578 H      1 <0>       0.0800
   58 H58      -6.0561    -7.6360   -10.0208 H      1 <0>       0.0400
   59 H59      -6.2815    -6.4410   -11.3206 H      1 <0>       0.0500
   60 H60      -8.2578    -7.7283   -10.9427 H      1 <0>       0.3900
   61 H61      -3.2408    -9.1167   -10.2164 H      1 <0>       0.1300
   62 H62       1.0582    -6.2958    -6.0229 H      1 <0>       0.1000
   63 H63      -0.6397    -5.8036    -6.2053 H      1 <0>       0.1000
   64 H64       0.0095    -3.8563    -4.8451 H      1 <0>       0.1400
@<TRIPOS>BOND
   1    1    2 1
   2    1   36 1
   3    1   37 1
   4    1   38 1
   5    2    3 1
   6    2    4 am
   7    3   39 1
   8    3   40 1
   9    3   41 1
  10    4    5 2
  11    4    6 1
  12    6    7 1
  13    6   42 1
  14    6   43 1
  15    7    8 1
  16    8   35 ar
  17    8    9 ar
  18    9   10 ar
  19    9   44 1
  20   10   11 ar
  21   10   45 1
  22   11   34 ar
  23   11   12 1
  24   12   13 1
  25   12   46 1
  26   12   47 1
  27   13   14 1
  28   13   48 1
  29   13   49 1
  30   14   15 1
  31   14   16 1
  32   14   33 1
  33   16   17 1
  34   16   18 1
  35   16   19 1
  36   19   20 1
  37   19   50 1
  38   19   51 1
  39   20   21 1
  40   20   22 1
  41   20   23 1
  42   22   52 1
  43   23   32 ar
  44   23   24 ar
  45   24   25 ar
  46   24   53 1
  47   25   26 ar
  48   25   54 1
  49   26   27 1
  50   26   28 ar
  51   27   55 1
  52   28   29 1
  53   28   32 ar
  54   29   30 1
  55   29   56 1
  56   29   57 1
  57   30   31 1
  58   30   58 1
  59   30   59 1
  60   31   60 1
  61   32   61 1
  62   33   34 1
  63   33   62 1
  64   33   63 1
  65   34   35 ar
  66   35   64 1
