@<TRIPOS>MOLECULE
ZINC000003596269
34    36    1     0     0
SMALL
USER_CHARGES
@<TRIPOS>ATOM
1      C1     -0.0187    1.5258    0.0104 C.3      1 ZINC000003596269   -0.1800
2      C2      0.0021   -0.0041    0.0020 C.3      1 ZINC000003596269    0.1100
3      C3     -1.4343   -0.5308    0.0199 C.3      1 ZINC000003596269   -0.1400
4      C4      0.7032   -0.4946   -1.2656 C.3      1 ZINC000003596269   -0.1400
5      C5      2.1722   -0.0519   -1.2525 C.3      1 ZINC000003596269   -0.1100
6      C6      2.8187   -0.5768    0.0298 C.3      1 ZINC000003596269   -0.1600
7      H7      2.7817   -1.6662    0.0380 H        1 ZINC000003596269    0.1200
8      C8      4.2574   -0.1173    0.1345 C.2      1 ZINC000003596269    0.3400
9      O9      4.8081    0.5113   -0.7376 O.2      1 ZINC000003596269   -0.3900
10     C10     4.9454   -0.5081    1.4173 C.2      1 ZINC000003596269    0.3600
11     O11     6.1329   -0.7560    1.4585 O.2      1 ZINC000003596269   -0.4000
12     C12     4.0897   -0.5721    2.6255 C.ar     1 ZINC000003596269   -0.1600
13     C13     4.6740   -0.8436    3.8661 C.ar     1 ZINC000003596269   -0.0600
14     C14     3.8855   -0.9217    4.9944 C.ar     1 ZINC000003596269   -0.1300
15     C15     2.5178   -0.7332    4.8936 C.ar     1 ZINC000003596269   -0.0800
16     C16     1.9353   -0.4582    3.6702 C.ar     1 ZINC000003596269   -0.1100
17     C17     2.7098   -0.3656    2.5273 C.ar     1 ZINC000003596269   -0.0300
18     C18     2.0460   -0.0297    1.2276 C.3      1 ZINC000003596269    0.1400
19     H19     2.0260    1.0561    1.1351 H        1 ZINC000003596269    0.0800
20     O20     0.6953   -0.4759    1.1633 O.3      1 ZINC000003596269   -0.3500
21     H21     1.0039    1.9031    0.0027 H        1 ZINC000003596269    0.0600
22     H22    -0.5459    1.8868   -0.8726 H        1 ZINC000003596269    0.0700
23     H23    -0.5289    1.8773    0.9072 H        1 ZINC000003596269    0.0700
24     H24    -1.9650   -0.1688   -0.8607 H        1 ZINC000003596269    0.0700
25     H25    -1.4217   -1.6207    0.0139 H        1 ZINC000003596269    0.0700
26     H26    -1.9394   -0.1782    0.9191 H        1 ZINC000003596269    0.0700
27     H27     0.6531   -1.5826   -1.3094 H        1 ZINC000003596269    0.0800
28     H28     0.2062   -0.0747   -2.1401 H        1 ZINC000003596269    0.0800
29     H29     2.6882   -0.4642   -2.1196 H        1 ZINC000003596269    0.0800
30     H30     2.2284    1.0364   -1.2737 H        1 ZINC000003596269    0.0800
31     H31     5.7411   -0.9921    3.9405 H        1 ZINC000003596269    0.1400
32     H32     4.3339   -1.1298    5.9547 H        1 ZINC000003596269    0.1400
33     H33     1.9008   -0.8018    5.7774 H        1 ZINC000003596269    0.1300
34     H34     0.8668   -0.3147    3.6061 H        1 ZINC000003596269    0.1400
@<TRIPOS>BOND
1     1     2     1
2     1     21    1
3     1     22    1
4     1     23    1
5     2     20    1
6     2     3     1
7     2     4     1
8     3     24    1
9     3     25    1
10    3     26    1
11    4     5     1
12    4     27    1
13    4     28    1
14    5     6     1
15    5     29    1
16    5     30    1
17    6     7     1
18    6     18    1
19    6     8     1
20    8     9     2
21    8     10    1
22    10    11    2
23    10    12    1
24    12    17    ar
25    12    13    ar
26    13    14    ar
27    13    31    1
28    14    15    ar
29    14    32    1
30    15    16    ar
31    15    33    1
32    16    17    ar
33    16    34    1
34    17    18    1
35    18    19    1
36    18    20    1
@<TRIPOS>SUBSTRUCTURE
1   ZINC000003596269 1     RESIDUE    1   A     ZIN   1
