@<TRIPOS>MOLECULE
ZINC000038276539
  31   30    0    0    0
SMALL
USER_CHARGES
NO_NAME
@<TRIPOS>ATOM
    1 C1       -0.0187     1.5258     0.0104 C.3    1 <0>      -0.1600
    2 C2        0.0021    -0.0041     0.0020 C.3    1 <0>      -0.1300
    3 C3       -1.4333    -0.5336     0.0129 C.3    1 <0>      -0.1200
    4 C4       -1.4126    -2.0635     0.0045 C.3    1 <0>      -0.1000
    5 H5       -0.8263    -2.4142    -0.8449 H      1 <0>       0.0600
    6 C6       -0.7836    -2.5722     1.3032 C.3    1 <0>      -0.1600
    7 C7       -2.8437    -2.5923    -0.1104 C.3    1 <0>      -0.1400
    8 C8       -2.8150    -4.1162    -0.2443 C.3    1 <0>       0.0500
    9 H9       -2.2594    -4.5439     0.5902 H      1 <0>       0.1400
   10 N10      -2.1620    -4.4846    -1.5075 N.4    1 <0>      -0.6300
   11 H11      -2.1431    -5.4895    -1.5958 H      1 <0>       0.4400
   12 H12      -2.6764    -4.0887    -2.2800 H      1 <0>       0.4200
   13 H13      -1.2179    -4.1286    -1.5144 H      1 <0>       0.4200
   14 C14      -4.2466    -4.6560    -0.2339 C.3    1 <0>      -0.2100
   15 C15      -4.2154    -6.1627    -0.2419 C.2    1 <0>       0.4800
   16 O16      -3.1471    -6.7502    -0.2548 O.co2  1 <0>      -0.7000
   17 O17      -5.2583    -6.7941    -0.2355 O.co2  1 <0>      -0.6600
   18 H18       1.0039     1.9031     0.0027 H      1 <0>       0.0600
   19 H19      -0.5459     1.8868    -0.8726 H      1 <0>       0.0500
   20 H20      -0.5289     1.8773     0.9072 H      1 <0>       0.0600
   21 H21       0.5123    -0.3556    -0.8948 H      1 <0>       0.0600
   22 H22       0.5293    -0.3651     0.8851 H      1 <0>       0.0700
   23 H23      -1.9435    -0.1821     0.9097 H      1 <0>       0.0700
   24 H24      -1.9605    -0.1726    -0.8702 H      1 <0>       0.0700
   25 H25      -1.3699    -2.2214     2.1525 H      1 <0>       0.0700
   26 H26      -0.7688    -3.6620     1.2972 H      1 <0>       0.0600
   27 H27       0.2359    -2.1954     1.3850 H      1 <0>       0.0700
   28 H28      -3.4057    -2.3165     0.7818 H      1 <0>       0.1100
   29 H29      -3.3216    -2.1593    -0.9892 H      1 <0>       0.0800
   30 H30      -4.7596    -4.3081     0.6627 H      1 <0>       0.1100
   31 H31      -4.7761    -4.2989    -1.1171 H      1 <0>       0.0800
@<TRIPOS>BOND
   1    1    2 1
   2    1   18 1
   3    1   19 1
   4    1   20 1
   5    2    3 1
   6    2   21 1
   7    2   22 1
   8    3    4 1
   9    3   23 1
  10    3   24 1
  11    4    5 1
  12    4    6 1
  13    4    7 1
  14    6   25 1
  15    6   26 1
  16    6   27 1
  17    7    8 1
  18    7   28 1
  19    7   29 1
  20    8    9 1
  21    8   10 1
  22    8   14 1
  23   10   11 1
  24   10   12 1
  25   10   13 1
  26   14   15 1
  27   14   30 1
  28   14   31 1
  29   15   16 ar
  30   15   17 ar
