@<TRIPOS>MOLECULE
ZINC000000006489
33    35    1     0     0
SMALL
USER_CHARGES
@<TRIPOS>ATOM
1      O1      0.0668    0.0269    0.2694 O.2      1 ZINC000000006489   -0.5300
2      C2     -0.0144    1.2113    0.0087 C.2      1 ZINC000000006489    0.5600
3      C3      1.1914    2.0653    0.0657 C.ar     1 ZINC000000006489   -0.1000
4      C4      2.4103    1.5864   -0.4453 C.ar     1 ZINC000000006489   -0.0600
5      C5      3.5308    2.3518   -0.4043 C.ar     1 ZINC000000006489   -0.0800
6      C6      3.4833    3.6420    0.1543 C.ar     1 ZINC000000006489    0.0900
7      N7      4.5780    4.4098    0.2023 N.ar     1 ZINC000000006489   -0.4300
8      C8      4.5091    5.6111    0.7282 C.ar     1 ZINC000000006489    0.0900
9      C9      3.3032    6.0984    1.2397 C.ar     1 ZINC000000006489    0.0800
10     N10     2.2155    5.3643    1.2047 N.ar     1 ZINC000000006489   -0.4200
11     C11     2.2599    4.1368    0.6733 C.ar     1 ZINC000000006489    0.0700
12     C12     1.1103    3.3327    0.6169 C.ar     1 ZINC000000006489   -0.0500
13     N13    -1.2025    1.7451   -0.3378 N.am     1 ZINC000000006489   -0.6000
14     C14    -1.2938    3.1418   -0.7846 C.3      1 ZINC000000006489    0.0900
15     C15    -2.0062    3.1801   -2.1403 C.3      1 ZINC000000006489   -0.1400
16     C16    -3.3559    2.4682   -2.0231 C.3      1 ZINC000000006489   -0.1200
17     C17    -3.1306    1.0045   -1.6371 C.3      1 ZINC000000006489   -0.1400
18     C18    -2.4300    0.9397   -0.2816 C.3      1 ZINC000000006489    0.1100
19     H19     2.4560    0.5969   -0.8757 H        1 ZINC000000006489    0.1500
20     H20     4.4598    1.9696   -0.8007 H        1 ZINC000000006489    0.1500
21     H21     5.3940    6.2291    0.7663 H        1 ZINC000000006489    0.1800
22     H22     3.2660    7.0889    1.6685 H        1 ZINC000000006489    0.1800
23     H23     0.1709    3.6983    1.0047 H        1 ZINC000000006489    0.1500
24     H24    -1.8614    3.7219   -0.0570 H        1 ZINC000000006489    0.0800
25     H25    -0.2920    3.5592   -0.8864 H        1 ZINC000000006489    0.0900
26     H26    -2.1662    4.2164   -2.4380 H        1 ZINC000000006489    0.0800
27     H27    -1.3931    2.6769   -2.8879 H        1 ZINC000000006489    0.0700
28     H28    -3.9590    2.9568   -1.2579 H        1 ZINC000000006489    0.0700
29     H29    -3.8757    2.5155   -2.9800 H        1 ZINC000000006489    0.0700
30     H30    -4.0908    0.4922   -1.5767 H        1 ZINC000000006489    0.0800
31     H31    -2.5068    0.5217   -2.3894 H        1 ZINC000000006489    0.0700
32     H32    -2.1792   -0.0953   -0.0490 H        1 ZINC000000006489    0.1000
33     H33    -3.0880    1.3405    0.4894 H        1 ZINC000000006489    0.0700
@<TRIPOS>BOND
1     1     2     2
2     2     3     1
3     2     13    am
4     3     12    ar
5     3     4     ar
6     4     5     ar
7     4     19    1
8     5     6     ar
9     5     20    1
10    6     11    ar
11    6     7     ar
12    7     8     ar
13    8     9     ar
14    8     21    1
15    9     10    ar
16    9     22    1
17    10    11    ar
18    11    12    ar
19    12    23    1
20    13    18    1
21    13    14    1
22    14    15    1
23    14    24    1
24    14    25    1
25    15    16    1
26    15    26    1
27    15    27    1
28    16    17    1
29    16    28    1
30    16    29    1
31    17    18    1
32    17    30    1
33    17    31    1
34    18    32    1
35    18    33    1
@<TRIPOS>SUBSTRUCTURE
1   ZINC000000006489 1     RESIDUE    1   A     ZIN   1
