@<TRIPOS>MOLECULE
ZINC000102403694
  44   46    0    0    0
SMALL
USER_CHARGES
NO_NAME
@<TRIPOS>ATOM
    1 C1        0.0126     1.4607     0.0106 C.3    1 <0>       0.0700
    2 N2        0.0152    -0.0043     0.0024 N.am   1 <0>      -0.5400
    3 C3        0.0201    -0.6524    -1.1751 C.2    1 <0>       0.5700
    4 O4        0.0223    -0.0147    -2.2130 O.2    1 <0>      -0.5800
    5 C5        0.0233    -2.1146    -1.2252 C.2    1 <0>      -0.4800
    6 C6        0.0297    -2.8153    -2.5165 C.2    1 <0>       0.6000
    7 O7        0.1403    -4.0264    -2.5510 O.2    1 <0>      -0.5600
    8 N8       -0.0871    -2.1164    -3.6630 N.am   1 <0>      -0.7400
    9 C9       -0.1931    -2.8212    -4.9429 C.3    1 <0>       0.1200
   10 C10      -0.3140    -1.8021    -6.0778 C.3    1 <0>       0.0700
   11 O11       0.8919    -1.0403    -6.1644 O.3    1 <0>      -0.5600
   12 C12       0.0208    -2.8344    -0.0308 C.2    1 <0>       0.3700
   13 O13       0.0240    -4.1837    -0.0365 O.3    1 <0>      -0.5800
   14 C14       0.0149    -2.0861     1.2349 C.ar   1 <0>       0.0700
   15 N15       0.0119    -2.7329     2.3985 N.ar   1 <0>      -0.4000
   16 C16       0.0066    -2.0892     3.5426 C.ar   1 <0>       0.0600
   17 C17       0.0035    -0.7001     3.5875 C.ar   1 <0>      -0.1000
   18 C18      -0.0026     0.0154     4.9138 C.3    1 <0>      -0.0300
   19 C19       1.4162     0.2570     5.3608 C.ar   1 <0>      -0.0800
   20 C20       2.0686    -0.6888     6.1295 C.ar   1 <0>      -0.0800
   21 C21       3.3697    -0.4684     6.5399 C.ar   1 <0>      -0.1500
   22 C22       4.0199     0.7000     6.1806 C.ar   1 <0>       0.0900
   23 F23       5.2920     0.9163     6.5810 F      1 <0>      -0.1400
   24 C24       3.3656     1.6464     5.4104 C.ar   1 <0>      -0.1500
   25 C25       2.0661     1.4216     4.9970 C.ar   1 <0>      -0.0800
   26 C26       0.0064     0.0204     2.4094 C.ar   1 <0>      -0.1400
   27 C27       0.0182    -0.6823     1.2021 C.ar   1 <0>       0.1600
   28 H28       1.0396     1.8258     0.0112 H      1 <0>       0.0600
   29 H29      -0.5032     1.8281    -0.8765 H      1 <0>       0.0900
   30 H30      -0.5006     1.8181     0.9034 H      1 <0>       0.0700
   31 H31      -0.1009    -1.1467    -3.6406 H      1 <0>       0.4100
   32 H32       0.6967    -3.4318    -5.0962 H      1 <0>       0.0600
   33 H33      -1.0755    -3.4609    -4.9335 H      1 <0>       0.0700
   34 H34      -0.4818    -2.3250    -7.0193 H      1 <0>       0.0500
   35 H35      -1.1521    -1.1343    -5.8786 H      1 <0>       0.0500
   36 H36       0.8862    -0.3730    -6.8643 H      1 <0>       0.3700
   37 H37       0.0042    -2.6494     4.4659 H      1 <0>       0.1500
   38 H38      -0.5181     0.9701     4.8092 H      1 <0>       0.0900
   39 H39      -0.5177    -0.5964     5.6544 H      1 <0>       0.0900
   40 H40       1.5613    -1.6002     6.4096 H      1 <0>       0.1400
   41 H41       3.8790    -1.2071     7.1410 H      1 <0>       0.1300
   42 H42       3.8716     2.5583     5.1298 H      1 <0>       0.1300
   43 H43       1.5556     2.1595     4.3959 H      1 <0>       0.1300
   44 H44       0.0041     1.1004     2.4212 H      1 <0>       0.1400
@<TRIPOS>BOND
   1    1    2 1
   2    1   28 1
   3    1   29 1
   4    1   30 1
   5    2   27 1
   6    2    3 am
   7    3    4 2
   8    3    5 1
   9    5    6 1
  10    5   12 2
  11    6    7 2
  12    6    8 am
  13    8    9 1
  14    8   31 1
  15    9   10 1
  16    9   32 1
  17    9   33 1
  18   10   11 1
  19   10   34 1
  20   10   35 1
  21   11   36 1
  22   12   13 1
  23   12   14 1
  24   14   27 ar
  25   14   15 ar
  26   15   16 ar
  27   16   17 ar
  28   16   37 1
  29   17   18 1
  30   17   26 ar
  31   18   19 1
  32   18   38 1
  33   18   39 1
  34   19   25 ar
  35   19   20 ar
  36   20   21 ar
  37   20   40 1
  38   21   22 ar
  39   21   41 1
  40   22   23 1
  41   22   24 ar
  42   24   25 ar
  43   24   42 1
  44   25   43 1
  45   26   27 ar
  46   26   44 1
