@<TRIPOS>MOLECULE
ZINC000003964449
79    82    1     0     0
SMALL
USER_CHARGES
@<TRIPOS>ATOM
1      C1      1.4181   -1.0512   -2.4657 C.2      1 ZINC000003964449   -0.5200
2      C2      1.8161   -1.4223   -1.2741 C.2      1 ZINC000003964449   -0.1200
3      C3      1.3734   -0.6508   -0.0576 C.3      1 ZINC000003964449   -0.1000
4      C4      1.4902   -1.5357    1.1742 C.3      1 ZINC000003964449   -0.1200
5      H5      1.2548   -0.9339    2.0638 H        1 ZINC000003964449    0.1100
6      C6      0.5548   -2.7097    1.1340 C.2      1 ZINC000003964449    0.3800
7      O7      0.8049   -3.6519    1.8753 O.2      1 ZINC000003964449   -0.4400
8      C8     -0.6695   -2.8283    0.2723 C.3      1 ZINC000003964449   -0.0900
9      C9     -1.3450   -4.1750    0.6358 C.3      1 ZINC000003964449   -0.1200
10     C10    -1.6744   -1.7294    0.6003 C.3      1 ZINC000003964449   -0.1500
11     C11    -0.3070   -2.8968   -1.2019 C.3      1 ZINC000003964449    0.1200
12     H12     0.7856   -2.9052   -1.3065 H        1 ZINC000003964449    0.1000
13     O13    -0.7825   -4.1472   -1.7327 O.3      1 ZINC000003964449   -0.5600
14     C14    -0.8819   -1.7638   -2.0397 C.3      1 ZINC000003964449   -0.1600
15     C15     0.0187   -1.5372   -3.2410 C.2      1 ZINC000003964449    0.5300
16     O16     0.7106   -2.4444   -3.6343 O.2      1 ZINC000003964449   -0.5100
17     O17     0.0209   -0.3387   -3.8272 O.3      1 ZINC000003964449   -0.3900
18     C18     0.9980   -0.0226   -4.8426 C.3      1 ZINC000003964449    0.1600
19     H19     0.9503    1.0525   -5.0600 H        1 ZINC000003964449    0.1300
20     C20     0.7075   -0.7801   -6.1105 C.ar     1 ZINC000003964449   -0.0900
21     C21    -0.4436   -1.5495   -6.2009 C.ar     1 ZINC000003964449   -0.0800
22     C22    -0.7189   -2.2460   -7.3564 C.ar     1 ZINC000003964449   -0.0700
23     C23     0.1593   -2.1778   -8.4355 C.ar     1 ZINC000003964449   -0.1800
24     S24     0.1178   -2.9245  -10.0295 S.3      1 ZINC000003964449    0.1000
25     C25     1.5947   -2.1775  -10.4451 C.2      1 ZINC000003964449    0.0900
26     C26     2.2833   -2.3423  -11.7754 C.3      1 ZINC000003964449   -0.0800
27     N27     2.0440   -1.4597   -9.4862 N.2      1 ZINC000003964449   -0.4700
28     C28     1.3221   -1.4036   -8.3508 C.ar     1 ZINC000003964449    0.0900
29     C29     1.5748   -0.6977   -7.1575 C.ar     1 ZINC000003964449   -0.0500
30     C30     2.4050   -0.3582   -4.3410 C.3      1 ZINC000003964449   -0.2900
31     C31     3.2627    0.9059   -4.3521 C.3      1 ZINC000003964449    0.0100
32     H32     2.7237    1.8387   -4.5321 H        1 ZINC000003964449    0.1200
33     O33     4.5863    0.8013   -4.8844 O.3      1 ZINC000003964449   -0.3600
34     C34     4.5029    0.9661   -3.4613 C.3      1 ZINC000003964449    0.0200
35     C35     4.9166    2.3328   -2.9061 C.3      1 ZINC000003964449   -0.1300
36     C36     4.8545   -0.2445   -2.6015 C.3      1 ZINC000003964449   -0.1000
37     C37     4.7059    0.0818   -1.1142 C.3      1 ZINC000003964449   -0.1100
38     C38     4.6265   -1.2317   -0.3270 C.3      1 ZINC000003964449   -0.1300
39     C39     3.9628   -0.9922    1.0281 C.3      1 ZINC000003964449   -0.1200
40     H40     3.5302    0.0063    1.0635 H        1 ZINC000003964449    0.0900
41     C41     5.0497   -1.0613    2.1165 C.3      1 ZINC000003964449   -0.1500
42     C42     2.9205   -2.0625    1.3246 C.3      1 ZINC000003964449    0.1300
43     H43     3.0493   -2.3990    2.3654 H        1 ZINC000003964449    0.0600
44     O44     3.0993   -3.1964    0.4744 O.3      1 ZINC000003964449   -0.5600
45     H45     0.7424   -0.2155   -2.5735 H        1 ZINC000003964449    0.2400
46     H46     1.7691   -1.5780   -3.3407 H        1 ZINC000003964449    0.2700
47     H47     2.4615   -2.2811   -1.1635 H        1 ZINC000003964449    0.1400
48     H48     2.0060    0.2283    0.0652 H        1 ZINC000003964449    0.1000
49     H49     0.3368   -0.3379   -0.1832 H        1 ZINC000003964449    0.0800
50     H50    -1.6142   -4.1730    1.6921 H        1 ZINC000003964449    0.0500
51     H51    -2.2432   -4.3056    0.0322 H        1 ZINC000003964449    0.0700
52     H52    -0.6528   -4.9936    0.4389 H        1 ZINC000003964449    0.0700
53     H53    -1.1905   -0.7566    0.5126 H        1 ZINC000003964449    0.0600
54     H54    -2.5114   -1.7829   -0.0958 H        1 ZINC000003964449    0.0800
55     H55    -2.0396   -1.8631    1.6186 H        1 ZINC000003964449    0.0700
56     H56    -0.5922   -4.2734   -2.6724 H        1 ZINC000003964449    0.3800
57     H57    -1.8758   -2.0329   -2.4004 H        1 ZINC000003964449    0.1100
58     H58    -0.9254   -0.8186   -1.5088 H        1 ZINC000003964449    0.1100
59     H59    -1.1241   -1.6025   -5.3640 H        1 ZINC000003964449    0.1300
60     H60    -1.6149   -2.8449   -7.4258 H        1 ZINC000003964449    0.1300
61     H61     1.6932   -3.0030  -12.4106 H        1 ZINC000003964449    0.0800
62     H62     2.3825   -1.3691  -12.2563 H        1 ZINC000003964449    0.0900
63     H63     3.2723   -2.7740  -11.6216 H        1 ZINC000003964449    0.0900
64     H64     2.4632   -0.0896   -7.0718 H        1 ZINC000003964449    0.1400
65     H65     2.3424   -0.7456   -3.3234 H        1 ZINC000003964449    0.2400
66     H66     2.8509   -1.1101   -4.9918 H        1 ZINC000003964449    0.0900
67     H67     5.0727    3.0280   -3.7310 H        1 ZINC000003964449    0.0700
68     H68     4.1304    2.7133   -2.2541 H        1 ZINC000003964449    0.0800
69     H69     5.8413    2.2295   -2.3382 H        1 ZINC000003964449    0.0700
70     H70     4.1989   -1.0797   -2.8537 H        1 ZINC000003964449    0.0800
71     H71     5.8887   -0.5397   -2.8001 H        1 ZINC000003964449    0.0700
72     H72     5.5722    0.6477   -0.7716 H        1 ZINC000003964449    0.0600
73     H73     3.7984    0.6572   -0.9501 H        1 ZINC000003964449    0.0700
74     H74     4.0664   -1.9520   -0.9169 H        1 ZINC000003964449    0.0900
75     H75     5.6414   -1.6075   -0.1689 H        1 ZINC000003964449    0.0600
76     H76     5.8021   -0.2955    1.9278 H        1 ZINC000003964449    0.0600
77     H77     4.5968   -0.8928    3.0935 H        1 ZINC000003964449    0.0600
78     H78     5.5198   -2.0446    2.0987 H        1 ZINC000003964449    0.0500
79     H79     3.9620   -3.6237    0.5648 H        1 ZINC000003964449    0.3800
@<TRIPOS>BOND
1     1     2     2
2     1     45    1
3     1     46    1
4     2     3     1
5     2     47    1
6     3     4     1
7     3     48    1
8     3     49    1
9     4     5     1
10    4     42    1
11    4     6     1
12    6     7     2
13    6     8     1
14    8     9     1
15    8     10    1
16    8     11    1
17    9     50    1
18    9     51    1
19    9     52    1
20    10    53    1
21    10    54    1
22    10    55    1
23    11    12    1
24    11    13    1
25    11    14    1
26    13    56    1
27    14    15    1
28    14    57    1
29    14    58    1
30    15    16    2
31    15    17    1
32    17    18    1
33    18    19    1
34    18    20    1
35    18    30    1
36    20    29    ar
37    20    21    ar
38    21    22    ar
39    21    59    1
40    22    23    ar
41    22    60    1
42    23    28    ar
43    23    24    1
44    24    25    1
45    25    26    1
46    25    27    2
47    26    61    1
48    26    62    1
49    26    63    1
50    27    28    1
51    28    29    ar
52    29    64    1
53    30    31    1
54    30    65    1
55    30    66    1
56    31    32    1
57    31    34    1
58    31    33    1
59    33    34    1
60    34    35    1
61    34    36    1
62    35    67    1
63    35    68    1
64    35    69    1
65    36    37    1
66    36    70    1
67    36    71    1
68    37    38    1
69    37    72    1
70    37    73    1
71    38    39    1
72    38    74    1
73    38    75    1
74    39    40    1
75    39    41    1
76    39    42    1
77    41    76    1
78    41    77    1
79    41    78    1
80    42    43    1
81    42    44    1
82    44    79    1
@<TRIPOS>SUBSTRUCTURE
1   ZINC000003964449 1     RESIDUE    1   A     ZIN   1
