@<TRIPOS>MOLECULE
ZINC000034884331
51    53    1     0     0
SMALL
USER_CHARGES
@<TRIPOS>ATOM
1      O1     -8.6704    1.2546   -6.0123 O.co2    1 ZINC000034884331   -0.7000
2      C2     -8.3177    2.4148   -5.8858 C.2      1 ZINC000034884331    0.4900
3      O3     -8.5885    3.2318   -6.7493 O.co2    1 ZINC000034884331   -0.6900
4      C4     -7.5524    2.8403   -4.6593 C.3      1 ZINC000034884331   -0.1800
5      C5     -7.3524    1.6344   -3.7392 C.3      1 ZINC000034884331   -0.1200
6      C6     -6.5754    2.0664   -2.4939 C.3      1 ZINC000034884331   -0.0300
7      N7     -6.3834    0.9086   -1.6105 N.4      1 ZINC000034884331   -0.3800
8      H8     -7.2745    0.4769   -1.4166 H        1 ZINC000034884331    0.4300
9      C9     -5.4872   -0.0707   -2.2614 C.3      1 ZINC000034884331   -0.0100
10     C10    -4.6431   -0.6636   -1.1058 C.3      1 ZINC000034884331   -0.1400
11     C11    -4.4301    0.5801   -0.2032 C.3      1 ZINC000034884331   -0.1300
12     C12    -5.7588    1.3456   -0.3484 C.3      1 ZINC000034884331    0.0300
13     H13    -6.4161    1.1095    0.4884 H        1 ZINC000034884331    0.1500
14     C14    -5.4901    2.8513   -0.3902 C.3      1 ZINC000034884331    0.0400
15     O15    -4.7907    3.2434    0.7926 O.3      1 ZINC000034884331   -0.3000
16     C16    -4.4726    4.5598    0.9139 C.ar     1 ZINC000034884331    0.0900
17     C17    -4.8319    5.4548   -0.0829 C.ar     1 ZINC000034884331   -0.1700
18     C18    -4.5084    6.7920    0.0399 C.ar     1 ZINC000034884331   -0.1500
19     C19    -3.8245    7.2399    1.1607 C.ar     1 ZINC000034884331    0.1000
20     O20    -3.5064    8.5562    1.2819 O.3      1 ZINC000034884331   -0.2500
21     C21    -3.9837    9.4169    0.3448 C.ar     1 ZINC000034884331    0.0900
22     C22    -5.3435    9.6843    0.2755 C.ar     1 ZINC000034884331   -0.1300
23     C23    -5.8266   10.5594   -0.6778 C.ar     1 ZINC000034884331   -0.0900
24     C24    -4.9556   11.1693   -1.5633 C.ar     1 ZINC000034884331   -0.0400
25     Cl25   -5.5653   12.2691   -2.7601 Cl       1 ZINC000034884331   -0.0500
26     C26    -3.5992   10.9040   -1.4959 C.ar     1 ZINC000034884331   -0.0900
27     C27    -3.1113   10.0339   -0.5404 C.ar     1 ZINC000034884331   -0.1100
28     C28    -3.4655    6.3448    2.1578 C.ar     1 ZINC000034884331   -0.1000
29     C29    -3.7937    5.0086    2.0372 C.ar     1 ZINC000034884331   -0.1000
30     H30    -6.5811    3.2359   -4.9562 H        1 ZINC000034884331    0.0700
31     H31    -8.1128    3.6116   -4.1308 H        1 ZINC000034884331    0.0700
32     H32    -8.3237    1.2388   -3.4423 H        1 ZINC000034884331    0.0800
33     H33    -6.7921    0.8631   -4.2676 H        1 ZINC000034884331    0.0900
34     H34    -5.6041    2.4620   -2.7908 H        1 ZINC000034884331    0.1300
35     H35    -7.1357    2.8377   -1.9655 H        1 ZINC000034884331    0.1300
36     H36    -6.0696   -0.8541   -2.7465 H        1 ZINC000034884331    0.1400
37     H37    -4.8425    0.4276   -2.9854 H        1 ZINC000034884331    0.1300
38     H38    -5.1959   -1.4399   -0.5768 H        1 ZINC000034884331    0.1000
39     H39    -3.6912   -1.0464   -1.4741 H        1 ZINC000034884331    0.1200
40     H40    -4.2671    0.2814    0.8323 H        1 ZINC000034884331    0.1100
41     H41    -3.5978    1.1825   -0.5672 H        1 ZINC000034884331    0.1000
42     H42    -4.8851    3.0882   -1.2654 H        1 ZINC000034884331    0.0900
43     H43    -6.4371    3.3879   -0.4471 H        1 ZINC000034884331    0.0900
44     H44    -5.3644    5.1061   -0.9554 H        1 ZINC000034884331    0.1300
45     H45    -4.7876    7.4887   -0.7366 H        1 ZINC000034884331    0.1400
46     H46    -6.0237    9.2082    0.9662 H        1 ZINC000034884331    0.1400
47     H47    -6.8850   10.7675   -0.7323 H        1 ZINC000034884331    0.1400
48     H48    -2.9211   11.3811   -2.1879 H        1 ZINC000034884331    0.1500
49     H49    -2.0526    9.8274   -0.4878 H        1 ZINC000034884331    0.1400
50     H50    -2.9330    6.6934    3.0304 H        1 ZINC000034884331    0.1500
51     H51    -3.5142    4.3117    2.8135 H        1 ZINC000034884331    0.1400
@<TRIPOS>BOND
1     1     2     ar
2     2     3     ar
3     2     4     1
4     4     5     1
5     4     30    1
6     4     31    1
7     5     6     1
8     5     32    1
9     5     33    1
10    6     7     1
11    6     34    1
12    6     35    1
13    7     8     1
14    7     12    1
15    7     9     1
16    9     10    1
17    9     36    1
18    9     37    1
19    10    11    1
20    10    38    1
21    10    39    1
22    11    12    1
23    11    40    1
24    11    41    1
25    12    13    1
26    12    14    1
27    14    15    1
28    14    42    1
29    14    43    1
30    15    16    1
31    16    29    ar
32    16    17    ar
33    17    18    ar
34    17    44    1
35    18    19    ar
36    18    45    1
37    19    20    1
38    19    28    ar
39    20    21    1
40    21    27    ar
41    21    22    ar
42    22    23    ar
43    22    46    1
44    23    24    ar
45    23    47    1
46    24    25    1
47    24    26    ar
48    26    27    ar
49    26    48    1
50    27    49    1
51    28    29    ar
52    28    50    1
53    29    51    1
@<TRIPOS>SUBSTRUCTURE
1   ZINC000034884331 1     RESIDUE    1   A     ZIN   1
