@<TRIPOS>MOLECULE
ZINC000001997139
51    54    1     0     0
SMALL
USER_CHARGES
@<TRIPOS>ATOM
1      C1      0.6874    1.4464   -0.4257 C.3      1 ZINC000001997139   -0.0900
2      C2      0.3305    0.0026   -0.1822 C.2      1 ZINC000001997139   -0.1000
3      C3      0.2322   -0.9941   -1.1126 C.2      1 ZINC000001997139    0.0400
4      C4      0.4578   -0.8666   -2.5693 C.ar     1 ZINC000001997139   -0.0100
5      C5     -0.2320    0.0991   -3.3029 C.ar     1 ZINC000001997139   -0.0900
6      C6     -0.0175    0.2132   -4.6610 C.ar     1 ZINC000001997139   -0.0800
7      C7      0.8798   -0.6280   -5.2957 C.ar     1 ZINC000001997139   -0.0900
8      I8      1.1996   -0.4470   -7.3583 I        1 ZINC000001997139   -0.0300
9      C9      1.5670   -1.5879   -4.5733 C.ar     1 ZINC000001997139   -0.0800
10     C10     1.3653   -1.7077   -3.2138 C.ar     1 ZINC000001997139   -0.0900
11     N11    -0.1139   -2.1308   -0.4381 N.pl3    1 ZINC000001997139   -0.2300
12     C12    -0.3156   -3.3853   -1.0273 C.ar     1 ZINC000001997139    0.1400
13     C13    -1.1216   -3.5042   -2.1515 C.ar     1 ZINC000001997139   -0.0800
14     C14    -1.3186   -4.7425   -2.7310 C.ar     1 ZINC000001997139   -0.0900
15     C15    -0.7141   -5.8646   -2.1922 C.ar     1 ZINC000001997139   -0.0100
16     Cl16   -0.9647   -7.4191   -2.9233 Cl       1 ZINC000001997139   -0.0400
17     C17     0.0904   -5.7499   -1.0719 C.ar     1 ZINC000001997139   -0.0900
18     C18     0.2954   -4.5129   -0.4910 C.ar     1 ZINC000001997139   -0.0100
19     Cl19    1.3044   -4.3692    0.9143 Cl       1 ZINC000001997139   -0.0200
20     N20    -0.2265   -1.8786    0.8164 N.2      1 ZINC000001997139   -0.2300
21     C21     0.0329   -0.6075    1.0559 C.2      1 ZINC000001997139    0.0000
22     C22     0.0064    0.0573    2.3745 C.2      1 ZINC000001997139    0.6200
23     O23     0.2668    1.2415    2.4637 O.2      1 ZINC000001997139   -0.5000
24     N24    -0.3064   -0.6489    3.4790 N.am     1 ZINC000001997139   -0.5700
25     N25    -0.4270   -0.0156    4.6833 N.3      1 ZINC000001997139   -0.2900
26     C26     0.6641   -0.3959    5.5895 C.3      1 ZINC000001997139    0.0400
27     C27     0.5800    0.4385    6.8696 C.3      1 ZINC000001997139   -0.1100
28     C28    -0.7744    0.1976    7.5420 C.3      1 ZINC000001997139   -0.1300
29     C29    -1.8936    0.5556    6.5603 C.3      1 ZINC000001997139   -0.1100
30     C30    -1.7378   -0.2822    5.2891 C.3      1 ZINC000001997139    0.0400
31     H31     1.7680    1.5703   -0.3554 H        1 ZINC000001997139    0.0700
32     H32     0.3518    1.7409   -1.4200 H        1 ZINC000001997139    0.0700
33     H33     0.2005    2.0721    0.3223 H        1 ZINC000001997139    0.0900
34     H34    -0.9326    0.7558   -2.8087 H        1 ZINC000001997139    0.1400
35     H35    -0.5511    0.9601   -5.2300 H        1 ZINC000001997139    0.1400
36     H36     2.2660   -2.2415   -5.0741 H        1 ZINC000001997139    0.1300
37     H37     1.9023   -2.4569   -2.6510 H        1 ZINC000001997139    0.1300
38     H38    -1.5944   -2.6292   -2.5724 H        1 ZINC000001997139    0.1500
39     H39    -1.9455   -4.8351   -3.6056 H        1 ZINC000001997139    0.1600
40     H40     0.5614   -6.6272   -0.6535 H        1 ZINC000001997139    0.1600
41     H41    -0.4459   -1.6070    3.4188 H        1 ZINC000001997139    0.3900
42     H42     0.5771   -1.4534    5.8389 H        1 ZINC000001997139    0.0400
43     H43     1.6216   -0.2157    5.1008 H        1 ZINC000001997139    0.0800
44     H44     1.3807    0.1450    7.5485 H        1 ZINC000001997139    0.0700
45     H45     0.6808    1.4953    6.6225 H        1 ZINC000001997139    0.0800
46     H46    -0.8594   -0.8517    7.8244 H        1 ZINC000001997139    0.0600
47     H47    -0.8560    0.8228    8.4312 H        1 ZINC000001997139    0.0700
48     H48    -2.8602    0.3458    7.0182 H        1 ZINC000001997139    0.0700
49     H49    -1.8318    1.6143    6.3083 H        1 ZINC000001997139    0.0800
50     H50    -2.5249   -0.0194    4.5823 H        1 ZINC000001997139    0.0800
51     H51    -1.8136   -1.3402    5.5400 H        1 ZINC000001997139    0.0400
@<TRIPOS>BOND
1     1     2     1
2     1     31    1
3     1     32    1
4     1     33    1
5     2     21    1
6     2     3     2
7     3     4     1
8     3     11    1
9     4     10    ar
10    4     5     ar
11    5     6     ar
12    5     34    1
13    6     7     ar
14    6     35    1
15    7     8     1
16    7     9     ar
17    9     10    ar
18    9     36    1
19    10    37    1
20    11    12    1
21    11    20    1
22    12    18    ar
23    12    13    ar
24    13    14    ar
25    13    38    1
26    14    15    ar
27    14    39    1
28    15    16    1
29    15    17    ar
30    17    18    ar
31    17    40    1
32    18    19    1
33    20    21    2
34    21    22    1
35    22    23    2
36    22    24    am
37    24    25    1
38    24    41    1
39    25    30    1
40    25    26    1
41    26    27    1
42    26    42    1
43    26    43    1
44    27    28    1
45    27    44    1
46    27    45    1
47    28    29    1
48    28    46    1
49    28    47    1
50    29    30    1
51    29    48    1
52    29    49    1
53    30    50    1
54    30    51    1
@<TRIPOS>SUBSTRUCTURE
1   ZINC000001997139 1     RESIDUE    1   A     ZIN   1
