@<TRIPOS>MOLECULE
ZINC000000403335
26    27    1     0     0
SMALL
USER_CHARGES
@<TRIPOS>ATOM
1      C1     -0.0184    1.5028    0.0103 C.3      1 ZINC000000403335   -0.1100
2      C2      0.0021   -0.0041    0.0020 C.ar     1 ZINC000000403335   -0.1300
3      C3      0.0060   -0.6977   -1.1992 C.ar     1 ZINC000000403335   -0.0800
4      C4      0.0254   -2.0819   -1.1629 C.ar     1 ZINC000000403335   -0.1300
5      C5      0.0403   -2.7264    0.0716 C.ar     1 ZINC000000403335    0.1600
6      C6      0.0618   -4.2089    0.1273 C.ar     1 ZINC000000403335    0.1600
7      C7      0.0709   -4.8534    1.3619 C.ar     1 ZINC000000403335   -0.1300
8      C8      0.0904   -6.2376    1.3981 C.ar     1 ZINC000000403335   -0.0800
9      C9      0.1002   -6.9312    0.1969 C.ar     1 ZINC000000403335   -0.1300
10     C10     0.1210   -8.4380    0.1886 C.3      1 ZINC000000403335   -0.1100
11     C11     0.0902   -6.2263   -0.9934 C.ar     1 ZINC000000403335    0.1000
12     N12     0.0665   -4.9096   -0.9993 N.ar     1 ZINC000000403335   -0.4700
13     N13     0.0360   -2.0257    1.1982 N.ar     1 ZINC000000403335   -0.4700
14     C14     0.0229   -0.7088    1.1923 C.ar     1 ZINC000000403335    0.1000
15     H15     1.0042    1.8801    0.0026 H        1 ZINC000000403335    0.0800
16     H16    -0.5455    1.8639   -0.8728 H        1 ZINC000000403335    0.0700
17     H17    -0.5286    1.8543    0.9071 H        1 ZINC000000403335    0.0700
18     H18    -0.0063   -0.1702   -2.1415 H        1 ZINC000000403335    0.1400
19     H19     0.0286   -2.6537   -2.0792 H        1 ZINC000000403335    0.1500
20     H20     0.0632   -4.2817    2.2781 H        1 ZINC000000403335    0.1500
21     H21     0.0983   -6.7652    2.3404 H        1 ZINC000000403335    0.1400
22     H22    -0.9016   -8.8155    0.1865 H        1 ZINC000000403335    0.0800
23     H23     0.6398   -8.7893   -0.7033 H        1 ZINC000000403335    0.0700
24     H24     0.6397   -8.7991    1.0767 H        1 ZINC000000403335    0.0700
25     H25     0.0978   -6.7631   -1.9305 H        1 ZINC000000403335    0.1600
26     H26     0.0198   -0.1719    2.1294 H        1 ZINC000000403335    0.1600
@<TRIPOS>BOND
1     1     2     1
2     1     15    1
3     1     16    1
4     1     17    1
5     2     14    ar
6     2     3     ar
7     3     4     ar
8     3     18    1
9     4     5     ar
10    4     19    1
11    5     6     1
12    5     13    ar
13    6     12    ar
14    6     7     ar
15    7     8     ar
16    7     20    1
17    8     9     ar
18    8     21    1
19    9     10    1
20    9     11    ar
21    10    22    1
22    10    23    1
23    10    24    1
24    11    12    ar
25    11    25    1
26    13    14    ar
27    14    26    1
@<TRIPOS>SUBSTRUCTURE
1   ZINC000000403335 1     RESIDUE    1   A     ZIN   1
