@<TRIPOS>MOLECULE
ZINC000000602397
45    47    1     0     0
SMALL
USER_CHARGES
@<TRIPOS>ATOM
1      C1     -0.7724   -4.3818    6.8244 C.3      1 ZINC000000602397    0.0200
2      O2     -0.5205   -4.4245    5.4184 O.3      1 ZINC000000602397   -0.2700
3      C3     -1.3724   -3.7352    4.6188 C.ar     1 ZINC000000602397    0.2100
4      C4     -2.4251   -3.0272    5.1697 C.ar     1 ZINC000000602397   -0.2700
5      C5     -3.2955   -2.3225    4.3543 C.ar     1 ZINC000000602397   -0.0300
6      C6     -3.1291   -2.3145    2.9851 C.ar     1 ZINC000000602397   -0.2200
7      C7     -2.0792   -3.0176    2.4037 C.ar     1 ZINC000000602397    0.2400
8      C8     -1.1878   -3.7309    3.2256 C.ar     1 ZINC000000602397   -0.1800
9      C9     -0.0815   -4.4724    2.6192 C.2      1 ZINC000000602397    0.3700
10     O10     0.7883   -5.1657    3.3834 O.3      1 ZINC000000602397   -0.6300
11     C11     0.0509   -4.4445    1.2270 C.2      1 ZINC000000602397   -0.5100
12     C12     1.1421   -5.1711    0.5684 C.2      1 ZINC000000602397    0.6500
13     O13     2.2353   -4.6498    0.4491 O.2      1 ZINC000000602397   -0.5300
14     N14     0.9338   -6.4158    0.0955 N.am     1 ZINC000000602397   -0.5500
15     C15    -0.4098   -6.9986    0.1337 C.3      1 ZINC000000602397    0.0800
16     C16     2.0003   -7.1512   -0.4317 C.ar     1 ZINC000000602397    0.2100
17     C17     3.2435   -6.5541   -0.5956 C.ar     1 ZINC000000602397   -0.1800
18     C18     4.2947   -7.2832   -1.1161 C.ar     1 ZINC000000602397   -0.0500
19     C19     4.1104   -8.6060   -1.4742 C.ar     1 ZINC000000602397   -0.2400
20     C20     5.2597   -9.3985   -2.0417 C.3      1 ZINC000000602397    0.5100
21     F21     5.9564  -10.0207   -1.0003 F        1 ZINC000000602397   -0.1800
22     F22     4.7676  -10.3703   -2.9196 F        1 ZINC000000602397   -0.1800
23     F23     6.1220   -8.5401   -2.7322 F        1 ZINC000000602397   -0.1800
24     C24     2.8738   -9.2035   -1.3122 C.ar     1 ZINC000000602397   -0.0500
25     C25     1.8199   -8.4816   -0.7870 C.ar     1 ZINC000000602397   -0.1800
26     C26    -0.9141   -3.6811    0.4378 C.2      1 ZINC000000602397    0.5700
27     O27    -0.8082   -3.6504   -0.7754 O.2      1 ZINC000000602397   -0.5800
28     N28    -1.9140   -3.0092    1.0332 N.am     1 ZINC000000602397   -0.5400
29     C29    -2.8597   -2.2565    0.2053 C.3      1 ZINC000000602397    0.0700
30     H30    -0.0198   -4.9727    7.3464 H        1 ZINC000000602397    0.1000
31     H31    -0.7278   -3.3491    7.1702 H        1 ZINC000000602397    0.0500
32     H32    -1.7617   -4.7910    7.0288 H        1 ZINC000000602397    0.0500
33     H33    -2.5694   -3.0241    6.2400 H        1 ZINC000000602397    0.1300
34     H34    -4.1139   -1.7733    4.7957 H        1 ZINC000000602397    0.1200
35     H35    -3.8164   -1.7609    2.3625 H        1 ZINC000000602397    0.1300
36     H36    -0.7090   -7.2881   -0.8737 H        1 ZINC000000602397    0.0600
37     H37    -0.4064   -7.8776    0.7783 H        1 ZINC000000602397    0.0600
38     H38    -1.1135   -6.2639    0.5248 H        1 ZINC000000602397    0.0900
39     H39     3.3880   -5.5208   -0.3168 H        1 ZINC000000602397    0.1900
40     H40     5.2617   -6.8195   -1.2438 H        1 ZINC000000602397    0.1300
41     H41     2.7330  -10.2367   -1.5932 H        1 ZINC000000602397    0.1300
42     H42     0.8545   -8.9489   -0.6605 H        1 ZINC000000602397    0.1300
43     H43    -2.5885   -2.3637   -0.8450 H        1 ZINC000000602397    0.1000
44     H44    -3.8669   -2.6426    0.3618 H        1 ZINC000000602397    0.0600
45     H45    -2.8272   -1.2030    0.4832 H        1 ZINC000000602397    0.0600
@<TRIPOS>BOND
1     1     2     1
2     1     30    1
3     1     31    1
4     1     32    1
5     2     3     1
6     3     8     ar
7     3     4     ar
8     4     5     ar
9     4     33    1
10    5     6     ar
11    5     34    1
12    6     7     ar
13    6     35    1
14    7     28    1
15    7     8     ar
16    8     9     1
17    9     10    1
18    9     11    2
19    11    12    1
20    11    26    1
21    12    13    2
22    12    14    am
23    14    15    1
24    14    16    1
25    15    36    1
26    15    37    1
27    15    38    1
28    16    25    ar
29    16    17    ar
30    17    18    ar
31    17    39    1
32    18    19    ar
33    18    40    1
34    19    20    1
35    19    24    ar
36    20    21    1
37    20    22    1
38    20    23    1
39    24    25    ar
40    24    41    1
41    25    42    1
42    26    27    2
43    26    28    am
44    28    29    1
45    29    43    1
46    29    44    1
47    29    45    1
@<TRIPOS>SUBSTRUCTURE
1   ZINC000000602397 1     RESIDUE    1   A     ZIN   1
