@<TRIPOS>MOLECULE
ZINC000003874204
27    28    1     0     0
SMALL
USER_CHARGES
@<TRIPOS>ATOM
1      O1      0.1492    0.2981    0.8838 O.2      1 ZINC000003874204   -0.5100
2      C2      0.0786    1.4556    0.5139 C.2      1 ZINC000003874204    0.5900
3      N3      1.1725    2.0762    0.0295 N.am     1 ZINC000003874204   -0.6600
4      C4      2.4218    1.4518    0.1049 C.ar     1 ZINC000003874204    0.1500
5      C5      2.5162    0.0697    0.0052 C.ar     1 ZINC000003874204   -0.1300
6      C6      3.7513   -0.5437    0.0796 C.ar     1 ZINC000003874204   -0.1000
7      C7      4.8932    0.2166    0.2536 C.ar     1 ZINC000003874204   -0.1400
8      C8      4.8026    1.5928    0.3537 C.ar     1 ZINC000003874204   -0.1000
9      C9      3.5711    2.2129    0.2740 C.ar     1 ZINC000003874204   -0.1500
10     C10    -1.1973    2.1723    0.5896 C.2      1 ZINC000003874204   -0.3500
11     C11    -2.2984    1.6149    1.2445 C.2      1 ZINC000003874204    0.4700
12     O12    -2.2074    0.4025    1.8218 O.3      1 ZINC000003874204   -0.4000
13     N13    -3.4667    2.3170    1.2908 N.am     1 ZINC000003874204   -0.6000
14     C14    -3.5770    3.5274    0.7211 C.2      1 ZINC000003874204    0.5300
15     S15    -5.0737    4.3528    0.8176 S.2      1 ZINC000003874204   -0.4800
16     N16    -2.5535    4.1137    0.0782 N.am     1 ZINC000003874204   -0.6000
17     C17    -1.3556    3.4999   -0.0147 C.2      1 ZINC000003874204    0.5700
18     O18    -0.4285    4.0319   -0.5974 O.2      1 ZINC000003874204   -0.4800
19     H19     1.0934    2.9559   -0.3714 H        1 ZINC000003874204    0.4200
20     H20     1.6246   -0.5247   -0.1300 H        1 ZINC000003874204    0.1400
21     H21     3.8254   -1.6184    0.0021 H        1 ZINC000003874204    0.1300
22     H22     5.8578   -0.2656    0.3119 H        1 ZINC000003874204    0.1200
23     H23     5.6963    2.1837    0.4903 H        1 ZINC000003874204    0.1300
24     H24     3.5010    3.2878    0.3522 H        1 ZINC000003874204    0.1200
25     H25    -2.9998    0.0648    2.2612 H        1 ZINC000003874204    0.4200
26     H26    -4.2337    1.9337    1.7444 H        1 ZINC000003874204    0.4500
27     H27    -2.6757    4.9898   -0.3197 H        1 ZINC000003874204    0.4500
@<TRIPOS>BOND
1     1     2     2
2     2     3     am
3     2     10    1
4     3     4     1
5     3     19    1
6     4     9     ar
7     4     5     ar
8     5     6     ar
9     5     20    1
10    6     7     ar
11    6     21    1
12    7     8     ar
13    7     22    1
14    8     9     ar
15    8     23    1
16    9     24    1
17    10    17    1
18    10    11    2
19    11    12    1
20    11    13    1
21    12    25    1
22    13    14    am
23    13    26    1
24    14    15    2
25    14    16    am
26    16    17    am
27    16    27    1
28    17    18    2
@<TRIPOS>SUBSTRUCTURE
1   ZINC000003874204 1     RESIDUE    1   A     ZIN   1
