@<TRIPOS>MOLECULE
ZINC000003823813
46    48    1     0     0
SMALL
USER_CHARGES
@<TRIPOS>ATOM
1      C1     -0.0184    1.5028    0.0103 C.3      1 ZINC000003823813   -0.2000
2      C2      0.0021   -0.0041    0.0020 C.2      1 ZINC000003823813    0.3900
3      O3      1.0606   -0.5962   -0.0113 O.2      1 ZINC000003823813   -0.4600
4      C4     -1.2596   -0.7556    0.0100 C.ar     1 ZINC000003823813   -0.2100
5      C5     -2.4840   -0.0760    0.0196 C.ar     1 ZINC000003823813   -0.0300
6      C6     -3.6584   -0.7906    0.0250 C.ar     1 ZINC000003823813   -0.1700
7      C7     -3.6343   -2.1855    0.0207 C.ar     1 ZINC000003823813    0.1900
8      O8     -4.8175   -2.8492    0.0157 O.3      1 ZINC000003823813   -0.2900
9      C9     -4.8112   -4.2295    0.3817 C.3      1 ZINC000003823813    0.1300
10     C10    -4.5287   -4.3642    1.8793 C.3      1 ZINC000003823813   -0.1800
11     C11    -6.1686   -4.8554    0.0551 C.3      1 ZINC000003823813   -0.1400
12     C12    -3.7095   -4.9371   -0.4175 C.3      1 ZINC000003823813    0.0700
13     H13    -3.7379   -6.0076   -0.2141 H        1 ZINC000003823813    0.0900
14     O14    -3.9042   -4.7069   -1.8144 O.3      1 ZINC000003823813   -0.5400
15     C15    -2.3580   -4.3651    0.0171 C.3      1 ZINC000003823813    0.1600
16     H16    -2.1210   -4.7171    1.0211 H        1 ZINC000003823813    0.1200
17     N17    -1.3180   -4.8105   -0.9137 N.am     1 ZINC000003823813   -0.7200
18     C18    -0.0351   -4.8816   -0.5070 C.2      1 ZINC000003823813    0.5700
19     O19     0.2592   -4.5761    0.6323 O.2      1 ZINC000003823813   -0.5100
20     C20     1.0136   -5.3308   -1.4455 C.ar     1 ZINC000003823813   -0.1400
21     C21     0.6791   -5.6767   -2.7562 C.ar     1 ZINC000003823813   -0.0500
22     C22     1.6613   -6.0949   -3.6287 C.ar     1 ZINC000003823813   -0.1500
23     C23     2.9793   -6.1728   -3.2071 C.ar     1 ZINC000003823813    0.1400
24     F24     3.9378   -6.5833   -4.0663 F        1 ZINC000003823813   -0.1200
25     C25     3.3180   -5.8303   -1.9056 C.ar     1 ZINC000003823813   -0.0800
26     Cl26    4.9711   -5.9301   -1.3853 Cl       1 ZINC000003823813   -0.0300
27     C27     2.3438   -5.4053   -1.0265 C.ar     1 ZINC000003823813   -0.0200
28     C28    -2.4201   -2.8582    0.0152 C.ar     1 ZINC000003823813   -0.1900
29     C29    -1.2453   -2.1543    0.0024 C.ar     1 ZINC000003823813   -0.0100
30     H30     1.0042    1.8801    0.0026 H        1 ZINC000003823813    0.0900
31     H31    -0.5455    1.8639   -0.8728 H        1 ZINC000003823813    0.0900
32     H32    -0.5286    1.8543    0.9071 H        1 ZINC000003823813    0.0900
33     H33    -2.5056    1.0038    0.0231 H        1 ZINC000003823813    0.1400
34     H34    -4.6044   -0.2696    0.0328 H        1 ZINC000003823813    0.1400
35     H35    -5.3031   -3.8442    2.4433 H        1 ZINC000003823813    0.0800
36     H36    -4.5246   -5.4188    2.1549 H        1 ZINC000003823813    0.0800
37     H37    -3.5571   -3.9255    2.1067 H        1 ZINC000003823813    0.0700
38     H38    -6.3623   -4.7657   -1.0138 H        1 ZINC000003823813    0.0800
39     H39    -6.1600   -5.9086    0.3357 H        1 ZINC000003823813    0.0800
40     H40    -6.9505   -4.3377    0.6108 H        1 ZINC000003823813    0.0700
41     H41    -3.2408   -5.1274   -2.3785 H        1 ZINC000003823813    0.3700
42     H42    -1.5528   -5.0543   -1.8227 H        1 ZINC000003823813    0.4000
43     H43    -0.3476   -5.6172   -3.0860 H        1 ZINC000003823813    0.1400
44     H44     1.4031   -6.3626   -4.6427 H        1 ZINC000003823813    0.1600
45     H45     2.6079   -5.1385   -0.0139 H        1 ZINC000003823813    0.1600
46     H46    -0.3029   -2.6818   -0.0094 H        1 ZINC000003823813    0.1400
@<TRIPOS>BOND
1     1     2     1
2     1     30    1
3     1     31    1
4     1     32    1
5     2     3     2
6     2     4     1
7     4     29    ar
8     4     5     ar
9     5     6     ar
10    5     33    1
11    6     7     ar
12    6     34    1
13    7     28    ar
14    7     8     1
15    8     9     1
16    9     10    1
17    9     11    1
18    9     12    1
19    10    35    1
20    10    36    1
21    10    37    1
22    11    38    1
23    11    39    1
24    11    40    1
25    12    13    1
26    12    14    1
27    12    15    1
28    14    41    1
29    15    16    1
30    15    17    1
31    15    28    1
32    17    18    am
33    17    42    1
34    18    19    2
35    18    20    1
36    20    27    ar
37    20    21    ar
38    21    22    ar
39    21    43    1
40    22    23    ar
41    22    44    1
42    23    24    1
43    23    25    ar
44    25    26    1
45    25    27    ar
46    27    45    1
47    28    29    ar
48    29    46    1
@<TRIPOS>SUBSTRUCTURE
1   ZINC000003823813 1     RESIDUE    1   A     ZIN   1
