@<TRIPOS>MOLECULE
ZINC000019331254
  36   35    0    0    0
SMALL
USER_CHARGES
NO_NAME
@<TRIPOS>ATOM
    1 N1       -0.0178     1.4648     0.0101 N.3    1 <0>      -0.8500
    2 C2        0.0021    -0.0041     0.0020 C.3    1 <0>       0.3700
    3 N3        0.7126    -0.4907     1.1921 N.4    1 <0>      -0.6700
    4 H4        1.6592    -0.1414     1.1850 H      1 <0>       0.4400
    5 H5        0.2403    -0.1653     2.0223 H      1 <0>       0.4400
    6 H6        0.7263    -1.4996     1.1866 H      1 <0>       0.4400
    7 N7       -1.3761    -0.5125     0.0124 N.3    1 <0>      -0.6700
    8 C8       -1.4149    -1.9356    -0.3498 C.3    1 <0>       0.0400
    9 C9       -2.8633    -2.4281    -0.3280 C.3    1 <0>      -0.1200
   10 C10      -2.9038    -3.9103    -0.7053 C.3    1 <0>      -0.1200
   11 C11      -4.3522    -4.4028    -0.6836 C.3    1 <0>      -0.1200
   12 C12      -4.3926    -5.8850    -1.0609 C.3    1 <0>      -0.1200
   13 C13      -5.8411    -6.3774    -1.0391 C.3    1 <0>      -0.1500
   14 C14      -5.8815    -7.8596    -1.4164 C.3    1 <0>      -0.0100
   15 N15      -7.2722    -8.3324    -1.3955 N.4    1 <0>      -0.6400
   16 H16      -7.6550    -8.2104    -0.4700 H      1 <0>       0.4400
   17 H17      -7.8178    -7.8018    -2.0579 H      1 <0>       0.4400
   18 H18      -7.2988    -9.3099    -1.6443 H      1 <0>       0.4400
   19 H19       0.9191     1.8392     0.0032 H      1 <0>       0.3700
   20 H20      -0.5563     1.8234    -0.7642 H      1 <0>       0.4000
   21 H21       0.5123    -0.3556    -0.8948 H      1 <0>       0.1300
   22 H22      -1.8127    -0.3554     0.9084 H      1 <0>       0.3700
   23 H23      -1.0013    -2.0675    -1.3496 H      1 <0>       0.0900
   24 H24      -0.8255    -2.5089     0.3657 H      1 <0>       0.0400
   25 H25      -3.2769    -2.2963     0.6718 H      1 <0>       0.0700
   26 H26      -3.4528    -1.8548    -1.0436 H      1 <0>       0.0800
   27 H27      -2.4902    -4.0421    -1.7052 H      1 <0>       0.0700
   28 H28      -2.3143    -4.4836     0.0102 H      1 <0>       0.0700
   29 H29      -4.7658    -4.2709     0.3162 H      1 <0>       0.0700
   30 H30      -4.9416    -3.8295    -1.3991 H      1 <0>       0.0700
   31 H31      -3.9790    -6.0168    -2.0607 H      1 <0>       0.0800
   32 H32      -3.8032    -6.4582    -0.3453 H      1 <0>       0.0700
   33 H33      -6.2547    -6.2456    -0.0393 H      1 <0>       0.0900
   34 H34      -6.4305    -5.8041    -1.7547 H      1 <0>       0.0900
   35 H35      -5.4679    -7.9915    -2.4162 H      1 <0>       0.1300
   36 H36      -5.2920    -8.4329    -0.7009 H      1 <0>       0.1300
@<TRIPOS>BOND
   1    1    2 1
   2    1   19 1
   3    1   20 1
   4    2    3 1
   5    2    7 1
   6    2   21 1
   7    3    4 1
   8    3    5 1
   9    3    6 1
  10    7    8 1
  11    7   22 1
  12    8    9 1
  13    8   23 1
  14    8   24 1
  15    9   10 1
  16    9   25 1
  17    9   26 1
  18   10   11 1
  19   10   27 1
  20   10   28 1
  21   11   12 1
  22   11   29 1
  23   11   30 1
  24   12   13 1
  25   12   31 1
  26   12   32 1
  27   13   14 1
  28   13   33 1
  29   13   34 1
  30   14   15 1
  31   14   35 1
  32   14   36 1
  33   15   16 1
  34   15   17 1
  35   15   18 1
