@<TRIPOS>MOLECULE
ZINC000049757175
87    92    1     0     0
SMALL
USER_CHARGES
@<TRIPOS>ATOM
1      C1     -9.9371   -1.1856    4.9420 C.3      1 ZINC000049757175   -0.0500
2      N2     -9.3150   -2.4906    4.6810 N.4      1 ZINC000049757175   -0.3900
3      H3     -8.4251   -2.5396    5.1540 H        1 ZINC000049757175    0.4300
4      C4    -10.1926   -3.5593    5.1767 C.3      1 ZINC000049757175   -0.0500
5      C5     -9.1110   -2.6555    3.2356 C.3      1 ZINC000049757175    0.0200
6      C6     -8.1981   -1.5410    2.7191 C.3      1 ZINC000049757175   -0.1600
7      C7     -8.0155   -1.6960    1.2060 C.3      1 ZINC000049757175    0.1200
8      N8     -7.5289   -3.0535    0.9250 N.am     1 ZINC000049757175   -0.6200
9      C9     -6.4113   -3.2453    0.1965 C.2      1 ZINC000049757175    0.5700
10     O10    -5.8384   -2.2945   -0.2997 O.2      1 ZINC000049757175   -0.5100
11     C11    -5.8828   -4.6093    0.0010 C.ar     1 ZINC000049757175   -0.1600
12     C12    -6.7459   -5.6512   -0.3495 C.ar     1 ZINC000049757175   -0.0800
13     C13    -6.2496   -6.9222   -0.5315 C.ar     1 ZINC000049757175   -0.1200
14     C14    -4.8905   -7.1703   -0.3670 C.ar     1 ZINC000049757175    0.1900
15     N15    -4.3911   -8.4587   -0.5526 N.am     1 ZINC000049757175   -0.6800
16     C16    -4.9221   -9.2573   -1.4995 C.2      1 ZINC000049757175    0.7100
17     O17    -5.8888   -8.8855   -2.1362 O.2      1 ZINC000049757175   -0.5500
18     N18    -4.3814  -10.4681   -1.7407 N.am     1 ZINC000049757175   -0.6800
19     C19    -4.8614  -11.2499   -2.7933 C.ar     1 ZINC000049757175    0.1900
20     C20    -5.3017  -10.6426   -3.9641 C.ar     1 ZINC000049757175   -0.1300
21     C21    -5.7758  -11.4118   -5.0043 C.ar     1 ZINC000049757175   -0.0400
22     C22    -5.8133  -12.8011   -4.8822 C.ar     1 ZINC000049757175   -0.0700
23     C23    -6.3221  -13.6305   -5.9991 C.ar     1 ZINC000049757175    0.4600
24     N24    -6.7387  -13.0513   -7.1221 N.ar     1 ZINC000049757175   -0.6000
25     C25    -7.1952  -13.7963   -8.1240 C.ar     1 ZINC000049757175    0.5600
26     N26    -7.6270  -13.1956   -9.2893 N.3      1 ZINC000049757175   -0.4500
27     C27    -6.8991  -13.7205  -10.4537 C.3      1 ZINC000049757175    0.0300
28     C28    -7.4492  -13.0728  -11.7271 C.3      1 ZINC000049757175    0.0600
29     O29    -7.3419  -11.6509  -11.6174 O.3      1 ZINC000049757175   -0.3800
30     C30    -8.0397  -11.1058  -10.4944 C.3      1 ZINC000049757175    0.0600
31     C31    -7.4956  -11.7336   -9.2084 C.3      1 ZINC000049757175    0.0300
32     N32    -7.2354  -15.1194   -8.0041 N.ar     1 ZINC000049757175   -0.5800
33     C33    -6.8193  -15.6987   -6.8825 C.ar     1 ZINC000049757175    0.5600
34     N34    -6.8615  -17.0728   -6.7588 N.3      1 ZINC000049757175   -0.4500
35     C35    -8.2226  -17.5805   -6.9843 C.3      1 ZINC000049757175    0.0300
36     C36    -8.2123  -19.1090   -6.8971 C.3      1 ZINC000049757175    0.0600
37     O37    -7.6902  -19.5054   -5.6261 O.3      1 ZINC000049757175   -0.3800
38     C38    -6.3657  -19.0286   -5.3736 C.3      1 ZINC000049757175    0.0600
39     C39    -6.3573  -17.4993   -5.4454 C.3      1 ZINC000049757175    0.0300
40     N40    -6.3575  -14.9554   -5.8818 N.ar     1 ZINC000049757175   -0.6000
41     C41    -5.3705  -13.4080   -3.7065 C.ar     1 ZINC000049757175   -0.0400
42     C42    -4.8928  -12.6346   -2.6712 C.ar     1 ZINC000049757175   -0.1500
43     C43    -4.0285   -6.1353   -0.0181 C.ar     1 ZINC000049757175   -0.1500
44     C44    -4.5174   -4.8609    0.1603 C.ar     1 ZINC000049757175   -0.0400
45     C45    -8.2834   -4.1981    1.4537 C.3      1 ZINC000049757175    0.1000
46     C46    -8.4629   -4.0150    2.9640 C.3      1 ZINC000049757175   -0.1600
47     H47   -10.0885   -1.0633    6.0144 H        1 ZINC000049757175    0.1300
48     H48    -9.2859   -0.3927    4.5741 H        1 ZINC000049757175    0.1300
49     H49   -10.8984   -1.1327    4.4309 H        1 ZINC000049757175    0.1200
50     H50   -11.1539   -3.5063    4.6657 H        1 ZINC000049757175    0.1200
51     H51    -9.7310   -4.5276    4.9830 H        1 ZINC000049757175    0.1300
52     H52   -10.3440   -3.4369    6.2492 H        1 ZINC000049757175    0.1300
53     H53   -10.0724   -2.6030    2.7248 H        1 ZINC000049757175    0.1400
54     H54    -8.6493   -0.5723    2.9338 H        1 ZINC000049757175    0.1000
55     H55    -7.2279   -1.6081    3.2114 H        1 ZINC000049757175    0.0900
56     H56    -8.9707   -1.5392    0.7048 H        1 ZINC000049757175    0.0800
57     H57    -7.2890   -0.9661    0.8490 H        1 ZINC000049757175    0.1100
58     H58    -7.8011   -5.4594   -0.4770 H        1 ZINC000049757175    0.1300
59     H59    -6.9161   -7.7279   -0.8020 H        1 ZINC000049757175    0.1500
60     H60    -3.6615   -8.7803   -0.0001 H        1 ZINC000049757175    0.4100
61     H61    -3.6589  -10.7964   -1.1830 H        1 ZINC000049757175    0.4100
62     H62    -5.2725   -9.5671   -4.0581 H        1 ZINC000049757175    0.1400
63     H63    -6.1184  -10.9397   -5.9132 H        1 ZINC000049757175    0.1400
64     H64    -5.8388  -13.4873  -10.3555 H        1 ZINC000049757175    0.0600
65     H65    -7.0311  -14.8011  -10.5087 H        1 ZINC000049757175    0.1100
66     H66    -6.8746  -13.4159  -12.5875 H        1 ZINC000049757175    0.1100
67     H67    -8.4957  -13.3501  -11.8536 H        1 ZINC000049757175    0.0700
68     H68    -7.8922  -10.0263  -10.4631 H        1 ZINC000049757175    0.1100
69     H69    -9.1034  -11.3259  -10.5850 H        1 ZINC000049757175    0.0600
70     H70    -8.0630  -11.3638   -8.3544 H        1 ZINC000049757175    0.1000
71     H71    -6.4449  -11.4686   -9.0904 H        1 ZINC000049757175    0.0700
72     H72    -8.8921  -17.1771   -6.2246 H        1 ZINC000049757175    0.0600
73     H73    -8.5661  -17.2747   -7.9725 H        1 ZINC000049757175    0.1100
74     H74    -9.2288  -19.4867   -7.0069 H        1 ZINC000049757175    0.1100
75     H75    -7.5849  -19.5146   -7.6908 H        1 ZINC000049757175    0.0700
76     H76    -6.0468  -19.3481   -4.3815 H        1 ZINC000049757175    0.1100
77     H77    -5.6847  -19.4319   -6.1230 H        1 ZINC000049757175    0.0600
78     H78    -5.3392  -17.1342   -5.3102 H        1 ZINC000049757175    0.1000
79     H79    -6.9970  -17.0946   -4.6611 H        1 ZINC000049757175    0.0700
80     H80    -5.3985  -14.4833   -3.6096 H        1 ZINC000049757175    0.1400
81     H81    -4.5499  -13.1039   -1.7609 H        1 ZINC000049757175    0.1400
82     H82    -2.9741   -6.3313    0.1092 H        1 ZINC000049757175    0.1400
83     H83    -3.8477   -4.0579    0.4307 H        1 ZINC000049757175    0.1400
84     H84    -9.2603   -4.2453    0.9726 H        1 ZINC000049757175    0.0800
85     H85    -7.7335   -5.1191    1.2600 H        1 ZINC000049757175    0.1200
86     H86    -7.4902   -4.0588    3.4539 H        1 ZINC000049757175    0.0900
87     H87    -9.1027   -4.8072    3.3530 H        1 ZINC000049757175    0.1000
@<TRIPOS>BOND
1     1     2     1
2     1     47    1
3     1     48    1
4     1     49    1
5     2     3     1
6     2     4     1
7     2     5     1
8     4     50    1
9     4     51    1
10    4     52    1
11    5     46    1
12    5     6     1
13    5     53    1
14    6     7     1
15    6     54    1
16    6     55    1
17    7     8     1
18    7     56    1
19    7     57    1
20    8     9     am
21    8     45    1
22    9     10    2
23    9     11    1
24    11    44    ar
25    11    12    ar
26    12    13    ar
27    12    58    1
28    13    14    ar
29    13    59    1
30    14    15    1
31    14    43    ar
32    15    16    am
33    15    60    1
34    16    17    2
35    16    18    am
36    18    19    1
37    18    61    1
38    19    42    ar
39    19    20    ar
40    20    21    ar
41    20    62    1
42    21    22    ar
43    21    63    1
44    22    23    1
45    22    41    ar
46    23    40    ar
47    23    24    ar
48    24    25    ar
49    25    26    1
50    25    32    ar
51    26    31    1
52    26    27    1
53    27    28    1
54    27    64    1
55    27    65    1
56    28    29    1
57    28    66    1
58    28    67    1
59    29    30    1
60    30    31    1
61    30    68    1
62    30    69    1
63    31    70    1
64    31    71    1
65    32    33    ar
66    33    34    1
67    33    40    ar
68    34    39    1
69    34    35    1
70    35    36    1
71    35    72    1
72    35    73    1
73    36    37    1
74    36    74    1
75    36    75    1
76    37    38    1
77    38    39    1
78    38    76    1
79    38    77    1
80    39    78    1
81    39    79    1
82    41    42    ar
83    41    80    1
84    42    81    1
85    43    44    ar
86    43    82    1
87    44    83    1
88    45    46    1
89    45    84    1
90    45    85    1
91    46    86    1
92    46    87    1
@<TRIPOS>SUBSTRUCTURE
1   ZINC000049757175 1     RESIDUE    1   A     ZIN   1
