@<TRIPOS>MOLECULE
ZINC000036410989
67    71    1     0     0
SMALL
USER_CHARGES
@<TRIPOS>ATOM
1      C1     -1.7485    1.1660   -0.8174 C.3      1 ZINC000036410989    0.0200
2      N2     -1.5235   -0.2821   -0.7165 N.3      1 ZINC000036410989   -0.5400
3      C3     -2.7963   -1.0060   -0.6052 C.3      1 ZINC000036410989    0.0600
4      C4     -2.5331   -2.5130   -0.6488 C.3      1 ZINC000036410989   -0.1200
5      C5     -1.6032   -2.8973    0.5054 C.3      1 ZINC000036410989    0.0900
6      N6     -1.3001   -4.3330    0.4344 N.3      1 ZINC000036410989   -0.5300
7      C7     -2.5183   -5.1168    0.1905 C.3      1 ZINC000036410989    0.0400
8      C8     -2.1388   -6.5807   -0.0567 C.3      1 ZINC000036410989    0.1200
9      N9     -1.3148   -7.0463    1.0691 N.am     1 ZINC000036410989   -0.6000
10     C10    -1.6173   -8.1851    1.7233 C.2      1 ZINC000036410989    0.5200
11     O11    -2.6266   -8.7960    1.4424 O.2      1 ZINC000036410989   -0.5300
12     C12    -0.7013   -8.6994    2.8039 C.3      1 ZINC000036410989    0.1700
13     H13     0.3273   -8.4261    2.5687 H        1 ZINC000036410989    0.1200
14     N14    -0.8128  -10.1578    2.8853 N.am     1 ZINC000036410989   -0.7100
15     C15     0.2099  -10.8855    3.3763 C.2      1 ZINC000036410989    0.5700
16     O16     1.2251  -10.3314    3.7517 O.2      1 ZINC000036410989   -0.5300
17     C17     0.0977  -12.3547    3.4583 C.ar     1 ZINC000036410989   -0.1200
18     C18    -1.0722  -12.9904    3.0191 C.ar     1 ZINC000036410989   -0.1100
19     C19    -1.1877  -14.3459    3.0897 C.ar     1 ZINC000036410989   -0.0800
20     C20    -0.1351  -15.1109    3.6027 C.ar     1 ZINC000036410989   -0.0800
21     C21     0.0661  -16.5440    3.8150 C.2      1 ZINC000036410989   -0.2100
22     C22     1.2915  -16.6951    4.3475 C.2      1 ZINC000036410989    0.0600
23     N23     1.8905  -15.4765    4.4932 N.pl3    1 ZINC000036410989   -0.5900
24     C24     1.0457  -14.4830    4.0472 C.ar     1 ZINC000036410989    0.0800
25     C25     1.1570  -13.1034    3.9665 C.ar     1 ZINC000036410989   -0.0500
26     C26    -1.0929   -8.0911    4.1259 C.ar     1 ZINC000036410989   -0.1000
27     C27    -2.2409   -8.5151    4.7688 C.ar     1 ZINC000036410989   -0.0900
28     C28    -2.6001   -7.9571    5.9815 C.ar     1 ZINC000036410989   -0.1200
29     C29    -1.8112   -6.9755    6.5514 C.ar     1 ZINC000036410989   -0.1100
30     C30    -0.6627   -6.5522    5.9090 C.ar     1 ZINC000036410989   -0.1200
31     C31    -0.3012   -7.1132    4.6984 C.ar     1 ZINC000036410989   -0.1000
32     C32    -0.1516   -6.2363    1.4617 C.3      1 ZINC000036410989    0.1000
33     C33    -0.6093   -4.7859    1.6491 C.3      1 ZINC000036410989    0.0400
34     C34    -0.3045   -2.0940    0.3934 C.3      1 ZINC000036410989   -0.1100
35     C35    -0.6323   -0.5992    0.4068 C.3      1 ZINC000036410989    0.0600
36     H36    -0.7957    1.6718   -0.9736 H        1 ZINC000036410989    0.0700
37     H37    -2.4118    1.3730   -1.6573 H        1 ZINC000036410989    0.0700
38     H38    -2.2051    1.5278    0.1039 H        1 ZINC000036410989    0.0200
39     H39    -3.2792   -0.7488    0.3375 H        1 ZINC000036410989    0.0300
40     H40    -3.4465   -0.7268   -1.4342 H        1 ZINC000036410989    0.0800
41     H41    -3.4764   -3.0501   -0.5505 H        1 ZINC000036410989    0.0700
42     H42    -2.0627   -2.7729   -1.5971 H        1 ZINC000036410989    0.0800
43     H43    -2.0899   -2.6744    1.4549 H        1 ZINC000036410989    0.0400
44     H44    -3.1724   -5.0524    1.0600 H        1 ZINC000036410989    0.0400
45     H45    -3.0355   -4.7225   -0.6842 H        1 ZINC000036410989    0.1000
46     H46    -3.0423   -7.1868   -0.1244 H        1 ZINC000036410989    0.1000
47     H47    -1.5709   -6.6603   -0.9837 H        1 ZINC000036410989    0.0800
48     H48    -1.6226  -10.5999    2.5858 H        1 ZINC000036410989    0.4100
49     H49    -1.8866  -12.4020    2.6229 H        1 ZINC000036410989    0.1300
50     H50    -2.0917  -14.8296    2.7500 H        1 ZINC000036410989    0.1300
51     H51    -0.6366  -17.3318    3.5871 H        1 ZINC000036410989    0.1500
52     H52     1.7362  -17.6407    4.6201 H        1 ZINC000036410989    0.1700
53     H53     2.7783  -15.3318    4.8562 H        1 ZINC000036410989    0.4200
54     H54     2.0590  -12.6113    4.2993 H        1 ZINC000036410989    0.1400
55     H55    -2.8573   -9.2820    4.3235 H        1 ZINC000036410989    0.1200
56     H56    -3.4974   -8.2879    6.4834 H        1 ZINC000036410989    0.1200
57     H57    -2.0922   -6.5391    7.4985 H        1 ZINC000036410989    0.1200
58     H58    -0.0465   -5.7850    6.3541 H        1 ZINC000036410989    0.1300
59     H59     0.5960   -6.7824    4.1964 H        1 ZINC000036410989    0.1200
60     H60     0.2588   -6.6146    2.3980 H        1 ZINC000036410989    0.0900
61     H61     0.6073   -6.2827    0.6807 H        1 ZINC000036410989    0.0800
62     H62     0.2580   -4.1516    1.8323 H        1 ZINC000036410989    0.0900
63     H63    -1.2900   -4.7261    2.4983 H        1 ZINC000036410989    0.0400
64     H64     0.3443   -2.3318    1.2364 H        1 ZINC000036410989    0.0700
65     H65     0.2009   -2.3474   -0.5384 H        1 ZINC000036410989    0.0800
66     H66     0.2891   -0.0245    0.3128 H        1 ZINC000036410989    0.0800
67     H67    -1.1254   -0.3439    1.3448 H        1 ZINC000036410989    0.0300
@<TRIPOS>BOND
1     1     2     1
2     1     36    1
3     1     37    1
4     1     38    1
5     2     35    1
6     2     3     1
7     3     4     1
8     3     39    1
9     3     40    1
10    4     5     1
11    4     41    1
12    4     42    1
13    5     6     1
14    5     34    1
15    5     43    1
16    6     33    1
17    6     7     1
18    7     8     1
19    7     44    1
20    7     45    1
21    8     9     1
22    8     46    1
23    8     47    1
24    9     10    am
25    9     32    1
26    10    11    2
27    10    12    1
28    12    13    1
29    12    14    1
30    12    26    1
31    14    15    am
32    14    48    1
33    15    16    2
34    15    17    1
35    17    25    ar
36    17    18    ar
37    18    19    ar
38    18    49    1
39    19    20    ar
40    19    50    1
41    20    24    ar
42    20    21    1
43    21    22    2
44    21    51    1
45    22    23    1
46    22    52    1
47    23    24    1
48    23    53    1
49    24    25    ar
50    25    54    1
51    26    31    ar
52    26    27    ar
53    27    28    ar
54    27    55    1
55    28    29    ar
56    28    56    1
57    29    30    ar
58    29    57    1
59    30    31    ar
60    30    58    1
61    31    59    1
62    32    33    1
63    32    60    1
64    32    61    1
65    33    62    1
66    33    63    1
67    34    35    1
68    34    64    1
69    34    65    1
70    35    66    1
71    35    67    1
@<TRIPOS>SUBSTRUCTURE
1   ZINC000036410989 1     RESIDUE    1   A     ZIN   1
