@<TRIPOS>MOLECULE
ZINC000024811973
71    76    1     0     0
SMALL
USER_CHARGES
@<TRIPOS>ATOM
1      C1     -3.0898    2.4906    1.4077 C.3      1 ZINC000024811973    0.0200
2      N2     -2.2347    1.3152    1.1952 N.3      1 ZINC000024811973   -0.5400
3      C3     -3.0248    0.1662    0.7308 C.3      1 ZINC000024811973    0.0200
4      C4     -2.0913   -1.0169    0.4649 C.3      1 ZINC000024811973    0.0000
5      N5     -1.3733   -1.3613    1.6991 N.4      1 ZINC000024811973   -0.3900
6      H6     -2.0383   -1.6003    2.4193 H        1 ZINC000024811973    0.4300
7      C7     -0.4904   -2.5082    1.4479 C.3      1 ZINC000024811973    0.0000
8      C8      0.1631   -2.9458    2.7603 C.3      1 ZINC000024811973    0.0200
9      O9     -0.8410   -3.4303    3.6541 O.3      1 ZINC000024811973   -0.3200
10     C10    -0.4255   -3.8613    4.8729 C.ar     1 ZINC000024811973    0.2100
11     C11    -1.3600   -4.3506    5.7859 C.ar     1 ZINC000024811973   -0.2700
12     C12    -0.9620   -4.7933    7.0292 C.ar     1 ZINC000024811973    0.2400
13     O13    -1.8775   -5.2678    7.9116 O.3      1 ZINC000024811973   -0.3100
14     C14    -3.2526   -5.1697    7.5354 C.3      1 ZINC000024811973    0.0800
15     C15    -3.6919   -6.4702    6.8555 C.3      1 ZINC000024811973   -0.1800
16     C16    -5.1849   -6.3862    6.5273 C.3      1 ZINC000024811973    0.0700
17     O17    -5.9223   -6.1448    7.7274 O.3      1 ZINC000024811973   -0.3700
18     C18    -5.5874   -4.9192    8.3814 C.3      1 ZINC000024811973    0.0700
19     C19    -4.1106   -4.9442    8.7842 C.3      1 ZINC000024811973   -0.1600
20     C20     0.3988   -4.7497    7.3756 C.ar     1 ZINC000024811973   -0.2400
21     C21     1.3472   -4.2528    6.4471 C.ar     1 ZINC000024811973    0.2600
22     C22     0.9168   -3.8150    5.1908 C.ar     1 ZINC000024811973   -0.2500
23     N23     2.6419   -4.2221    6.8022 N.ar     1 ZINC000024811973   -0.5600
24     C24     3.0167   -4.6447    7.9864 C.ar     1 ZINC000024811973    0.3800
25     N25     2.1668   -5.1162    8.8841 N.ar     1 ZINC000024811973   -0.5800
26     C26     0.8647   -5.1902    8.6348 C.ar     1 ZINC000024811973    0.5000
27     N27    -0.0102   -5.6835    9.5803 N.pl3    1 ZINC000024811973   -0.6300
28     C28     0.4513   -5.9982   10.8650 C.ar     1 ZINC000024811973    0.1600
29     C29     1.4595   -6.9391   11.0309 C.ar     1 ZINC000024811973   -0.0100
30     Cl30    2.1479   -7.7264    9.6452 Cl       1 ZINC000024811973   -0.0300
31     C31     1.9155   -7.2488   12.2991 C.ar     1 ZINC000024811973   -0.0900
32     C32     1.3701   -6.6248   13.4055 C.ar     1 ZINC000024811973   -0.0800
33     C33     0.3625   -5.6847   13.2496 C.ar     1 ZINC000024811973    0.0500
34     C34    -0.0955   -5.3645   11.9763 C.ar     1 ZINC000024811973    0.0400
35     O35    -1.0792   -4.4236   12.0890 O.3      1 ZINC000024811973   -0.3000
36     C36    -1.5000   -4.4711   13.4652 C.3      1 ZINC000024811973    0.2100
37     O37    -0.3291   -4.9411   14.1624 O.3      1 ZINC000024811973   -0.3000
38     C38    -0.5697   -0.2123    2.1370 C.3      1 ZINC000024811973   -0.0100
39     C39    -1.4905    0.9774    2.4168 C.3      1 ZINC000024811973    0.0300
40     H40    -2.4717    3.3437    1.6876 H        1 ZINC000024811973    0.0800
41     H41    -3.6290    2.7187    0.4883 H        1 ZINC000024811973    0.0800
42     H42    -3.8031    2.2817    2.2050 H        1 ZINC000024811973    0.0400
43     H43    -3.7513   -0.1086    1.4955 H        1 ZINC000024811973    0.0600
44     H44    -3.5467    0.4314   -0.1887 H        1 ZINC000024811973    0.1300
45     H45    -2.6769   -1.8745    0.1339 H        1 ZINC000024811973    0.1400
46     H46    -1.3735   -0.7464   -0.3096 H        1 ZINC000024811973    0.1400
47     H47    -1.0741   -3.3334    1.0398 H        1 ZINC000024811973    0.1400
48     H48     0.2826   -2.2223    0.7347 H        1 ZINC000024811973    0.1500
49     H49     0.8845   -3.7381    2.5604 H        1 ZINC000024811973    0.1200
50     H50     0.6732   -2.0957    3.2133 H        1 ZINC000024811973    0.0900
51     H51    -2.4053   -4.3826    5.5161 H        1 ZINC000024811973    0.1500
52     H52    -3.3837   -4.3346    6.8473 H        1 ZINC000024811973    0.0900
53     H53    -3.1241   -6.6102    5.9358 H        1 ZINC000024811973    0.0800
54     H54    -3.5132   -7.3104    7.5265 H        1 ZINC000024811973    0.0900
55     H55    -5.3573   -5.5709    5.8246 H        1 ZINC000024811973    0.0500
56     H56    -5.5126   -7.3255    6.0820 H        1 ZINC000024811973    0.1100
57     H57    -5.7650   -4.0848    7.7029 H        1 ZINC000024811973    0.0500
58     H58    -6.2051   -4.8017    9.2718 H        1 ZINC000024811973    0.1100
59     H59    -3.9404   -5.7536    9.4941 H        1 ZINC000024811973    0.0900
60     H60    -3.8422   -3.9930    9.2436 H        1 ZINC000024811973    0.0900
61     H61     1.6307   -3.4344    4.4753 H        1 ZINC000024811973    0.1500
62     H62     4.0659   -4.6064    8.2395 H        1 ZINC000024811973    0.2000
63     H63    -0.9449   -5.8126    9.3556 H        1 ZINC000024811973    0.4300
64     H64     2.6997   -7.9805   12.4256 H        1 ZINC000024811973    0.1600
65     H65     1.7294   -6.8702   14.3940 H        1 ZINC000024811973    0.1500
66     H66    -1.7782   -3.4770   13.8153 H        1 ZINC000024811973    0.1400
67     H67    -2.3291   -5.1678   13.5885 H        1 ZINC000024811973    0.0900
68     H68    -0.0273   -0.4735    3.0457 H        1 ZINC000024811973    0.1300
69     H69     0.1403    0.0540    1.3540 H        1 ZINC000024811973    0.1400
70     H70    -0.8931    1.8346    2.7274 H        1 ZINC000024811973    0.1200
71     H71    -2.1918    0.7161    3.2093 H        1 ZINC000024811973    0.0600
@<TRIPOS>BOND
1     1     2     1
2     1     40    1
3     1     41    1
4     1     42    1
5     2     39    1
6     2     3     1
7     3     4     1
8     3     43    1
9     3     44    1
10    4     5     1
11    4     45    1
12    4     46    1
13    5     6     1
14    5     7     1
15    5     38    1
16    7     8     1
17    7     47    1
18    7     48    1
19    8     9     1
20    8     49    1
21    8     50    1
22    9     10    1
23    10    22    ar
24    10    11    ar
25    11    12    ar
26    11    51    1
27    12    13    1
28    12    20    ar
29    13    14    1
30    14    19    1
31    14    15    1
32    14    52    1
33    15    16    1
34    15    53    1
35    15    54    1
36    16    17    1
37    16    55    1
38    16    56    1
39    17    18    1
40    18    19    1
41    18    57    1
42    18    58    1
43    19    59    1
44    19    60    1
45    20    26    ar
46    20    21    ar
47    21    22    ar
48    21    23    ar
49    22    61    1
50    23    24    ar
51    24    25    ar
52    24    62    1
53    25    26    ar
54    26    27    1
55    27    28    1
56    27    63    1
57    28    34    ar
58    28    29    ar
59    29    30    1
60    29    31    ar
61    31    32    ar
62    31    64    1
63    32    33    ar
64    32    65    1
65    33    37    1
66    33    34    ar
67    34    35    1
68    35    36    1
69    36    37    1
70    36    66    1
71    36    67    1
72    38    39    1
73    38    68    1
74    38    69    1
75    39    70    1
76    39    71    1
@<TRIPOS>SUBSTRUCTURE
1   ZINC000024811973 1     RESIDUE    1   A     ZIN   1
