@<TRIPOS>MOLECULE
ZINC000003831205
35    37    1     0     0
SMALL
USER_CHARGES
@<TRIPOS>ATOM
1      C1      0.5639    1.4222    0.1927 C.3      1 ZINC000003831205    0.0500
2      N2      0.3232   -0.0202    0.1048 N.am     1 ZINC000003831205   -0.5600
3      C3     -0.9925   -0.4531    0.1625 C.ar     1 ZINC000003831205    0.2300
4      C4     -1.9456    0.2986   -0.5272 C.ar     1 ZINC000003831205   -0.1400
5      C5     -3.2735   -0.0686   -0.5145 C.ar     1 ZINC000003831205   -0.0100
6      C6     -3.6768   -1.1925    0.1867 C.ar     1 ZINC000003831205   -0.0600
7      N7     -5.1042   -1.5842    0.1986 N.pl3    1 ZINC000003831205    0.0300
8      O8     -5.9236   -0.9180   -0.4083 O.2      1 ZINC000003831205   -0.1500
9      O9     -5.4593   -2.5727    0.8152 O.2      1 ZINC000003831205   -0.1500
10     C10    -2.7515   -1.9457    0.8719 C.ar     1 ZINC000003831205    0.0100
11     C11    -1.3955   -1.5854    0.8679 C.ar     1 ZINC000003831205   -0.1300
12     C12    -0.4608   -2.4385    1.6184 C.2      1 ZINC000003831205    0.2700
13     C13    -0.9079   -2.9533    2.9337 C.ar     1 ZINC000003831205   -0.0800
14     C14    -0.3334   -4.1073    3.4659 C.ar     1 ZINC000003831205   -0.0700
15     C15    -0.7540   -4.5819    4.6914 C.ar     1 ZINC000003831205   -0.1200
16     C16    -1.7435   -3.9154    5.3919 C.ar     1 ZINC000003831205   -0.0900
17     C17    -2.3176   -2.7704    4.8689 C.ar     1 ZINC000003831205   -0.1200
18     C18    -1.9010   -2.2826    3.6472 C.ar     1 ZINC000003831205   -0.0900
19     N19     0.7150   -2.7710    1.2179 N.2      1 ZINC000003831205   -0.4800
20     C20     1.2536   -2.3111   -0.0615 C.3      1 ZINC000003831205    0.0200
21     C21     1.3845   -0.8124   -0.0295 C.2      1 ZINC000003831205    0.5100
22     O22     2.4862   -0.3136   -0.1214 O.2      1 ZINC000003831205   -0.5000
23     H23     1.6346    1.6163    0.1296 H        1 ZINC000003831205    0.1100
24     H24     0.0543    1.9263   -0.6284 H        1 ZINC000003831205    0.0800
25     H25     0.1820    1.7971    1.1423 H        1 ZINC000003831205    0.0800
26     H26    -1.6390    1.1769   -1.0759 H        1 ZINC000003831205    0.1600
27     H27    -4.0011    0.5214   -1.0520 H        1 ZINC000003831205    0.1700
28     H28    -3.0715   -2.8212    1.4174 H        1 ZINC000003831205    0.1700
29     H29     0.4390   -4.6286    2.9199 H        1 ZINC000003831205    0.1400
30     H30    -0.3101   -5.4756    5.1044 H        1 ZINC000003831205    0.1300
31     H31    -2.0695   -4.2907    6.3507 H        1 ZINC000003831205    0.1300
32     H32    -3.0901   -2.2549    5.4200 H        1 ZINC000003831205    0.1300
33     H33    -2.3498   -1.3887    3.2400 H        1 ZINC000003831205    0.1200
34     H34     2.2331   -2.7594   -0.2275 H        1 ZINC000003831205    0.1400
35     H35     0.5774   -2.5985   -0.8667 H        1 ZINC000003831205    0.1000
@<TRIPOS>BOND
1     1     2     1
2     1     23    1
3     1     24    1
4     1     25    1
5     2     21    am
6     2     3     1
7     3     11    ar
8     3     4     ar
9     4     5     ar
10    4     26    1
11    5     6     ar
12    5     27    1
13    6     7     1
14    6     10    ar
15    7     8     2
16    7     9     2
17    10    11    ar
18    10    28    1
19    11    12    1
20    12    13    1
21    12    19    2
22    13    18    ar
23    13    14    ar
24    14    15    ar
25    14    29    1
26    15    16    ar
27    15    30    1
28    16    17    ar
29    16    31    1
30    17    18    ar
31    17    32    1
32    18    33    1
33    19    20    1
34    20    21    1
35    20    34    1
36    20    35    1
37    21    22    2
@<TRIPOS>SUBSTRUCTURE
1   ZINC000003831205 1     RESIDUE    1   A     ZIN   1
