@<TRIPOS>MOLECULE
ZINC000002006632
20    22    1     0     0
SMALL
USER_CHARGES
@<TRIPOS>ATOM
1      C1     -0.0184    1.5028    0.0103 C.3      1 ZINC000002006632   -0.1300
2      C2      0.0021   -0.0041    0.0020 C.ar     1 ZINC000002006632   -0.0500
3      C3      0.0056   -0.6916   -1.2209 C.ar     1 ZINC000002006632    0.0900
4      C4      0.0247   -2.0835   -1.1803 C.ar     1 ZINC000002006632   -0.1300
5      C5      0.0398   -2.7724    0.0215 C.ar     1 ZINC000002006632   -0.0600
6      C6      0.0360   -2.0753    1.2137 C.ar     1 ZINC000002006632   -0.0900
7      C7      0.0227   -0.6911    1.1934 C.ar     1 ZINC000002006632   -0.0900
8      S8      0.0236   -2.6298   -2.8622 S.3      1 ZINC000002006632    0.2000
9      C9     -0.0020   -1.0008   -3.5463 C.2      1 ZINC000002006632    0.1300
10     N10    -0.0172   -0.3050   -4.6568 N.2      1 ZINC000002006632   -0.2400
11     N11    -0.0327    0.9494   -4.3749 N.2      1 ZINC000002006632   -0.2600
12     C12    -0.0284    1.1176   -3.0840 C.2      1 ZINC000002006632    0.1700
13     N13    -0.0085   -0.1352   -2.5006 N.pl3    1 ZINC000002006632   -0.4400
14     H14     1.0042    1.8801    0.0026 H        1 ZINC000002006632    0.0800
15     H15    -0.5455    1.8639   -0.8728 H        1 ZINC000002006632    0.0700
16     H16    -0.5286    1.8543    0.9071 H        1 ZINC000002006632    0.0800
17     H17     0.0541   -3.8523    0.0261 H        1 ZINC000002006632    0.1500
18     H18     0.0473   -2.6058    2.1544 H        1 ZINC000002006632    0.1500
19     H19     0.0197   -0.1441    2.1247 H        1 ZINC000002006632    0.1400
20     H20    -0.0381    2.0639   -2.5636 H        1 ZINC000002006632    0.2300
@<TRIPOS>BOND
1     1     2     1
2     1     14    1
3     1     15    1
4     1     16    1
5     2     7     ar
6     2     3     ar
7     3     13    1
8     3     4     ar
9     4     5     ar
10    4     8     1
11    5     6     ar
12    5     17    1
13    6     7     ar
14    6     18    1
15    7     19    1
16    8     9     1
17    9     13    1
18    9     10    2
19    10    11    1
20    11    12    2
21    12    13    1
22    12    20    1
@<TRIPOS>SUBSTRUCTURE
1   ZINC000002006632 1     RESIDUE    1   A     ZIN   1
