@<TRIPOS>MOLECULE
ZINC000003976764
92    95    1     0     0
SMALL
USER_CHARGES
@<TRIPOS>ATOM
1      C1     -1.4129    0.7295   -0.2205 C.3      1 ZINC000003976764   -0.1600
2      C2     -0.8315   -0.6854   -0.2520 C.3      1 ZINC000003976764   -0.1200
3      C3      0.0036   -0.8655   -1.5213 C.3      1 ZINC000003976764   -0.1400
4      C4      0.5850   -2.2804   -1.5528 C.3      1 ZINC000003976764   -0.1000
5      C5      1.3443   -2.4907   -2.8642 C.3      1 ZINC000003976764   -0.0600
6      C6      2.7871   -2.0231   -2.6621 C.3      1 ZINC000003976764   -0.1800
7      C7      2.8116   -0.5026   -2.4942 C.3      1 ZINC000003976764   -0.1200
8      C8      4.2620   -0.0176   -2.4503 C.3      1 ZINC000003976764   -0.1200
9      C9      4.2866    1.5029   -2.2824 C.3      1 ZINC000003976764   -0.1600
10     C10     1.3666   -3.9664   -3.1672 C.3      1 ZINC000003976764    0.1300
11     N11     2.2641   -4.2721   -4.2908 N.pl3    1 ZINC000003976764   -0.6000
12     C12     3.6158   -4.5479   -4.0710 C.ar     1 ZINC000003976764    0.2200
13     C13     4.1266   -4.5413   -2.7790 C.ar     1 ZINC000003976764   -0.1800
14     C14     5.4632   -4.8148   -2.5653 C.ar     1 ZINC000003976764   -0.0800
15     C15     6.2931   -5.0946   -3.6355 C.ar     1 ZINC000003976764   -0.1700
16     C16     5.7880   -5.1020   -4.9229 C.ar     1 ZINC000003976764   -0.0800
17     C17     4.4511   -4.8350   -5.1433 C.ar     1 ZINC000003976764   -0.1700
18     C18     1.7326   -4.2810   -5.5865 C.ar     1 ZINC000003976764    0.2300
19     C19     1.5456   -5.4938   -6.2433 C.ar     1 ZINC000003976764   -0.1200
20     C20     0.9771   -5.5092   -7.5085 C.ar     1 ZINC000003976764   -0.0600
21     S21     0.7429   -7.0421   -8.3453 S.3      1 ZINC000003976764   -0.0500
22     C22     1.3888   -8.2558   -7.1619 C.3      1 ZINC000003976764   -0.1700
23     C23     0.5899   -4.3189   -8.1213 C.ar     1 ZINC000003976764    0.1300
24     O24     0.0133   -4.3412   -9.3539 O.3      1 ZINC000003976764   -0.2700
25     C25    -0.3575   -3.0824   -9.9195 C.3      1 ZINC000003976764    0.0400
26     C26    -0.9756   -3.3037  -11.2759 C.2      1 ZINC000003976764    0.5200
27     O27    -1.0875   -4.4287  -11.7151 O.2      1 ZINC000003976764   -0.5100
28     N28    -1.4040   -2.2515  -12.0011 N.am     1 ZINC000003976764   -0.7000
29     C29    -2.0048   -2.4667  -13.3198 C.3      1 ZINC000003976764    0.1700
30     H30    -2.5763   -3.3948  -13.3116 H        1 ZINC000003976764    0.1200
31     C31    -2.9206   -1.3158  -13.6483 C.2      1 ZINC000003976764    0.5100
32     O32    -3.0579   -0.4055  -12.8588 O.2      1 ZINC000003976764   -0.5500
33     N33    -3.5871   -1.2982  -14.8197 N.am     1 ZINC000003976764   -0.6800
34     C34    -4.4773   -0.1794  -15.1391 C.3      1 ZINC000003976764    0.0500
35     C35    -5.0954   -0.4007  -16.4956 C.2      1 ZINC000003976764    0.4900
36     O36    -4.8180   -1.4003  -17.1361 O.co2    1 ZINC000003976764   -0.6900
37     O37    -5.8729    0.4198  -16.9525 O.co2    1 ZINC000003976764   -0.6900
38     C38    -0.9171   -2.5556  -14.3590 C.ar     1 ZINC000003976764   -0.1000
39     C39     0.1782   -1.7154  -14.2867 C.ar     1 ZINC000003976764   -0.1000
40     C40     1.1760   -1.7969  -15.2399 C.ar     1 ZINC000003976764   -0.1200
41     C41     1.0787   -2.7190  -16.2652 C.ar     1 ZINC000003976764   -0.1200
42     C42    -0.0161   -3.5599  -16.3369 C.ar     1 ZINC000003976764   -0.1100
43     C43    -1.0118   -3.4812  -15.3813 C.ar     1 ZINC000003976764   -0.0900
44     C44     0.7941   -3.1108   -7.4695 C.ar     1 ZINC000003976764   -0.0900
45     C45     1.3805   -3.1067   -6.2238 C.ar     1 ZINC000003976764   -0.6200
46     S46     1.7582   -1.5713   -5.4123 S.o2     1 ZINC000003976764    2.4700
47     O47     3.1294   -1.6843   -5.0570 O.2      1 ZINC000003976764   -0.9000
48     O48     1.3120   -0.5710   -6.3176 O.2      1 ZINC000003976764   -0.9400
49     C49     0.7041   -1.6178   -3.9327 C.3      1 ZINC000003976764   -0.6000
50     H50    -0.6006    1.4563   -0.2272 H        1 ZINC000003976764    0.0500
51     H51    -2.0444    0.8824   -1.0957 H        1 ZINC000003976764    0.0500
52     H52    -2.0078    0.8578    0.6838 H        1 ZINC000003976764    0.0500
53     H53    -0.1999   -0.8382    0.6232 H        1 ZINC000003976764    0.0600
54     H54    -1.6438   -1.4122   -0.2453 H        1 ZINC000003976764    0.0600
55     H55    -0.6280   -0.7127   -2.3964 H        1 ZINC000003976764    0.0700
56     H56     0.8159   -0.1387   -1.5280 H        1 ZINC000003976764    0.0800
57     H57     1.2672   -2.4117   -0.7128 H        1 ZINC000003976764    0.0700
58     H58    -0.2240   -3.0073   -1.4808 H        1 ZINC000003976764    0.0700
59     H59     3.2000   -2.4939   -1.7700 H        1 ZINC000003976764    0.0700
60     H60     3.3845   -2.3025   -3.5300 H        1 ZINC000003976764    0.1500
61     H61     2.2977   -0.0358   -3.3345 H        1 ZINC000003976764    0.0300
62     H62     2.3096   -0.2315   -1.5654 H        1 ZINC000003976764    0.0700
63     H63     4.7759   -0.4843   -1.6100 H        1 ZINC000003976764    0.0600
64     H64     4.7640   -0.2887   -3.3791 H        1 ZINC000003976764    0.0700
65     H65     5.3199    1.8484   -2.2511 H        1 ZINC000003976764    0.0500
66     H66     3.7727    1.9696   -3.1227 H        1 ZINC000003976764    0.0500
67     H67     3.7846    1.7740   -1.3536 H        1 ZINC000003976764    0.0500
68     H68     1.7057   -4.5065   -2.2833 H        1 ZINC000003976764    0.1000
69     H69     0.3576   -4.2939   -3.4180 H        1 ZINC000003976764    0.0900
70     H70     3.4792   -4.3222   -1.9427 H        1 ZINC000003976764    0.1300
71     H71     5.8610   -4.8098   -1.5612 H        1 ZINC000003976764    0.1200
72     H72     7.3382   -5.3074   -3.4656 H        1 ZINC000003976764    0.1200
73     H73     6.4389   -5.3208   -5.7565 H        1 ZINC000003976764    0.1200
74     H74     4.0573   -4.8409   -6.1490 H        1 ZINC000003976764    0.1200
75     H75     1.8420   -6.4184   -5.7702 H        1 ZINC000003976764    0.1400
76     H76     0.8219   -8.1947   -6.2329 H        1 ZINC000003976764    0.0800
77     H77     1.2934   -9.2577   -7.5805 H        1 ZINC000003976764    0.1100
78     H78     2.4391   -8.0443   -6.9613 H        1 ZINC000003976764    0.0900
79     H79    -1.0788   -2.5895   -9.2676 H        1 ZINC000003976764    0.1000
80     H80     0.5279   -2.4550  -10.0216 H        1 ZINC000003976764    0.1000
81     H81    -1.3145   -1.3518  -11.6498 H        1 ZINC000003976764    0.4100
82     H82    -3.4773   -2.0262  -15.4512 H        1 ZINC000003976764    0.4100
83     H83    -5.2641   -0.1151  -14.3874 H        1 ZINC000003976764    0.0700
84     H84    -3.9059    0.7488  -15.1473 H        1 ZINC000003976764    0.0700
85     H85     0.2542   -0.9949  -13.4857 H        1 ZINC000003976764    0.1200
86     H86     2.0314   -1.1400  -15.1838 H        1 ZINC000003976764    0.1200
87     H87     1.8579   -2.7823  -17.0103 H        1 ZINC000003976764    0.1200
88     H88    -0.0923   -4.2801  -17.1381 H        1 ZINC000003976764    0.1300
89     H89    -1.8672   -4.1382  -15.4373 H        1 ZINC000003976764    0.1300
90     H90     0.4963   -2.1829   -7.9351 H        1 ZINC000003976764    0.1600
91     H91    -0.2716   -2.0260   -4.1964 H        1 ZINC000003976764    0.1400
92     H92     0.5787   -0.6064   -3.5461 H        1 ZINC000003976764    0.1500
@<TRIPOS>BOND
1     1     2     1
2     1     50    1
3     1     51    1
4     1     52    1
5     2     3     1
6     2     53    1
7     2     54    1
8     3     4     1
9     3     55    1
10    3     56    1
11    4     5     1
12    4     57    1
13    4     58    1
14    5     49    1
15    5     6     1
16    5     10    1
17    6     7     1
18    6     59    1
19    6     60    1
20    7     8     1
21    7     61    1
22    7     62    1
23    8     9     1
24    8     63    1
25    8     64    1
26    9     65    1
27    9     66    1
28    9     67    1
29    10    11    1
30    10    68    1
31    10    69    1
32    11    12    1
33    11    18    1
34    12    17    ar
35    12    13    ar
36    13    14    ar
37    13    70    1
38    14    15    ar
39    14    71    1
40    15    16    ar
41    15    72    1
42    16    17    ar
43    16    73    1
44    17    74    1
45    18    45    ar
46    18    19    ar
47    19    20    ar
48    19    75    1
49    20    21    1
50    20    23    ar
51    21    22    1
52    22    76    1
53    22    77    1
54    22    78    1
55    23    24    1
56    23    44    ar
57    24    25    1
58    25    26    1
59    25    79    1
60    25    80    1
61    26    27    2
62    26    28    am
63    28    29    1
64    28    81    1
65    29    30    1
66    29    31    1
67    29    38    1
68    31    32    2
69    31    33    am
70    33    34    1
71    33    82    1
72    34    35    1
73    34    83    1
74    34    84    1
75    35    36    ar
76    35    37    ar
77    38    43    ar
78    38    39    ar
79    39    40    ar
80    39    85    1
81    40    41    ar
82    40    86    1
83    41    42    ar
84    41    87    1
85    42    43    ar
86    42    88    1
87    43    89    1
88    44    45    ar
89    44    90    1
90    45    46    1
91    46    47    2
92    46    48    2
93    46    49    1
94    49    91    1
95    49    92    1
@<TRIPOS>SUBSTRUCTURE
1   ZINC000003976764 1     RESIDUE    1   A     ZIN   1
