@<TRIPOS>MOLECULE
ZINC000027637704
44    45    1     0     0
SMALL
USER_CHARGES
@<TRIPOS>ATOM
1      C1     -0.0187    1.5258    0.0104 C.3      1 ZINC000027637704   -0.1800
2      C2      0.0021   -0.0041    0.0020 C.3      1 ZINC000027637704   -0.1500
3      C3     -1.4333   -0.5336    0.0129 C.3      1 ZINC000027637704    0.0200
4      H4     -1.9862   -0.1019   -0.8214 H        1 ZINC000027637704    0.1400
5      C5     -1.4157   -2.0577   -0.1212 C.3      1 ZINC000027637704   -0.1800
6      N6     -2.0833   -0.1607    1.2764 N.4      1 ZINC000027637704   -0.5000
7      H7     -1.6210   -0.6267    2.0427 H        1 ZINC000027637704    0.4300
8      H8     -2.0220    0.8383    1.4041 H        1 ZINC000027637704    0.4300
9      C9     -3.4954   -0.5639    1.2383 C.3      1 ZINC000027637704   -0.0500
10     C10    -4.1723   -0.1755    2.5543 C.3      1 ZINC000027637704    0.1400
11     H11    -4.1062    0.9037    2.6922 H        1 ZINC000027637704    0.1300
12     O12    -3.5177   -0.8354    3.6396 O.3      1 ZINC000027637704   -0.5500
13     C13    -5.6209   -0.5891    2.5152 C.ar     1 ZINC000027637704   -0.1500
14     C14    -5.9848   -1.8749    2.8682 C.ar     1 ZINC000027637704   -0.1100
15     C15    -7.3128   -2.2470    2.8269 C.ar     1 ZINC000027637704   -0.1100
16     C16    -8.2878   -1.3400    2.4330 C.ar     1 ZINC000027637704   -0.0500
17     C17    -9.7161   -1.8173    2.3964 C.3      1 ZINC000027637704   -0.0900
18     C18   -10.6781   -0.6313    2.3711 C.3      1 ZINC000027637704   -0.1200
19     C19   -10.2446    0.3197    1.2494 C.3      1 ZINC000027637704   -0.1200
20     C20    -8.9301    0.9808    1.6591 C.3      1 ZINC000027637704   -0.0900
21     C21    -7.9259   -0.0573    2.0866 C.ar     1 ZINC000027637704   -0.0700
22     C22    -6.5892    0.3162    2.1322 C.ar     1 ZINC000027637704   -0.1000
23     H23     1.0039    1.9031    0.0027 H        1 ZINC000027637704    0.0800
24     H24    -0.5459    1.8868   -0.8726 H        1 ZINC000027637704    0.0700
25     H25    -0.5289    1.8773    0.9072 H        1 ZINC000027637704    0.0500
26     H26     0.5123   -0.3556   -0.8948 H        1 ZINC000027637704    0.1100
27     H27     0.5293   -0.3651    0.8851 H        1 ZINC000027637704    0.0900
28     H28    -2.4383   -2.4349   -0.1135 H        1 ZINC000027637704    0.0800
29     H29    -0.9334   -2.3344   -1.0587 H        1 ZINC000027637704    0.1100
30     H30    -0.8628   -2.4894    0.7131 H        1 ZINC000027637704    0.0800
31     H31    -3.9947   -0.0605    0.4104 H        1 ZINC000027637704    0.1400
32     H32    -3.5615   -1.6431    1.1003 H        1 ZINC000027637704    0.1400
33     H33    -3.5374   -1.8006    3.5825 H        1 ZINC000027637704    0.3900
34     H34    -5.2321   -2.5861    3.1751 H        1 ZINC000027637704    0.1200
35     H35    -7.5963   -3.2519    3.1029 H        1 ZINC000027637704    0.1300
36     H36    -9.8696   -2.4237    1.5038 H        1 ZINC000027637704    0.0800
37     H37    -9.9154   -2.4230    3.2804 H        1 ZINC000027637704    0.0800
38     H38   -11.6916   -0.9848    2.1814 H        1 ZINC000027637704    0.0700
39     H39   -10.6436   -0.1102    3.3279 H        1 ZINC000027637704    0.0700
40     H40   -10.1007   -0.2424    0.3267 H        1 ZINC000027637704    0.0700
41     H41   -11.0083    1.0829    1.0995 H        1 ZINC000027637704    0.0700
42     H42    -8.5305    1.5408    0.8136 H        1 ZINC000027637704    0.0800
43     H43    -9.1148    1.6649    2.4875 H        1 ZINC000027637704    0.0800
44     H44    -6.3047    1.3223    1.8615 H        1 ZINC000027637704    0.1300
@<TRIPOS>BOND
1     1     2     1
2     1     23    1
3     1     24    1
4     1     25    1
5     2     3     1
6     2     26    1
7     2     27    1
8     3     4     1
9     3     5     1
10    3     6     1
11    5     28    1
12    5     29    1
13    5     30    1
14    6     7     1
15    6     8     1
16    6     9     1
17    9     10    1
18    9     31    1
19    9     32    1
20    10    11    1
21    10    12    1
22    10    13    1
23    12    33    1
24    13    22    ar
25    13    14    ar
26    14    15    ar
27    14    34    1
28    15    16    ar
29    15    35    1
30    16    21    ar
31    16    17    1
32    17    18    1
33    17    36    1
34    17    37    1
35    18    19    1
36    18    38    1
37    18    39    1
38    19    20    1
39    19    40    1
40    19    41    1
41    20    21    1
42    20    42    1
43    20    43    1
44    21    22    ar
45    22    44    1
@<TRIPOS>SUBSTRUCTURE
1   ZINC000027637704 1     RESIDUE    1   A     ZIN   1
