@<TRIPOS>MOLECULE
ZINC000034604616
63    65    1     0     0
SMALL
USER_CHARGES
@<TRIPOS>ATOM
1      C1      0.0428    0.8152   -0.1404 C.3      1 ZINC000034604616   -0.1800
2      C2      0.1301   -0.7028   -0.3108 C.3      1 ZINC000034604616    0.1400
3      C3      0.8943   -1.3054    0.8698 C.3      1 ZINC000034604616   -0.1800
4      C4     -1.2808   -1.2925   -0.3596 C.3      1 ZINC000034604616   -0.1400
5      O5      0.8268   -1.0118   -1.5467 O.3      1 ZINC000034604616   -0.3600
6      C6      2.0900   -0.5611   -1.6654 C.2      1 ZINC000034604616    0.6500
7      O7      2.5963    0.0730   -0.7610 O.2      1 ZINC000034604616   -0.5700
8      N8      2.7928   -0.8134   -2.7874 N.am     1 ZINC000034604616   -0.7200
9      C9      4.1672   -0.3231   -2.9166 C.3      1 ZINC000034604616    0.1400
10     C10     4.7330   -0.7429   -4.2748 C.3      1 ZINC000034604616    0.0400
11     N11     6.1124   -0.2508   -4.4044 N.3      1 ZINC000034604616   -0.5500
12     C12     6.9928   -0.8886   -3.4204 C.3      1 ZINC000034604616    0.0000
13     C13     8.4280   -0.3934   -3.5911 C.3      1 ZINC000034604616    0.0800
14     H14     9.0770   -0.9668   -2.9112 H        1 ZINC000034604616    0.1500
15     C15     8.5431    1.0830   -3.2566 C.3      1 ZINC000034604616   -0.0400
16     N16     8.1139    2.0025   -4.2900 N.4      1 ZINC000034604616   -0.3600
17     H17     8.7737    2.8096   -4.2401 H        1 ZINC000034604616    0.4400
18     C18     6.8011    2.5841   -3.9587 C.3      1 ZINC000034604616   -0.0100
19     C19     6.9348    3.4730   -2.7206 C.3      1 ZINC000034604616    0.0200
20     O20     7.7709    4.5911   -3.0250 O.3      1 ZINC000034604616   -0.3200
21     C21     7.9935    5.4844   -2.0265 C.ar     1 ZINC000034604616    0.1100
22     C22     7.4218    5.2833   -0.7773 C.ar     1 ZINC000034604616   -0.1800
23     C23     7.6448    6.1870    0.2389 C.ar     1 ZINC000034604616   -0.0400
24     C24     8.4476    7.3076    0.0119 C.ar     1 ZINC000034604616   -0.0100
25     C25     8.6817    8.2483    1.0659 C.1      1 ZINC000034604616    0.2400
26     N26     8.8675    8.9946    1.9020 N.1      1 ZINC000034604616   -0.3800
27     C27     9.0221    7.5078   -1.2467 C.ar     1 ZINC000034604616   -0.0700
28     C28     8.7988    6.5960   -2.2566 C.ar     1 ZINC000034604616    0.0800
29     F29     9.3535    6.7874   -3.4735 F        1 ZINC000034604616   -0.1200
30     C30     8.1452    1.5582   -5.6684 C.3      1 ZINC000034604616   -0.0400
31     C31     8.0517    0.0578   -5.8837 C.3      1 ZINC000034604616    0.0800
32     H32     8.4232   -0.1831   -6.8918 H        1 ZINC000034604616    0.1500
33     C33     6.6060   -0.4250   -5.7742 C.3      1 ZINC000034604616    0.0100
34     O34     8.8633   -0.6309   -4.9311 O.3      1 ZINC000034604616   -0.3400
35     H35     1.0480    1.2353   -0.1056 H        1 ZINC000034604616    0.0800
36     H36    -0.5016    1.2445   -0.9815 H        1 ZINC000034604616    0.0600
37     H37    -0.4802    1.0472    0.7874 H        1 ZINC000034604616    0.0800
38     H38     0.3712   -1.0734    1.7976 H        1 ZINC000034604616    0.0800
39     H39     0.9565   -2.3868    0.7484 H        1 ZINC000034604616    0.0600
40     H40     1.8994   -0.8853    0.9045 H        1 ZINC000034604616    0.0800
41     H41    -1.8252   -0.8632   -1.2006 H        1 ZINC000034604616    0.0700
42     H42    -1.2186   -2.3739   -0.4810 H        1 ZINC000034604616    0.0700
43     H43    -1.8038   -1.0605    0.5682 H        1 ZINC000034604616    0.0900
44     H44     2.3886   -1.3196   -3.5094 H        1 ZINC000034604616    0.4100
45     H45     4.1737    0.7643   -2.8407 H        1 ZINC000034604616    0.0800
46     H46     4.7803   -0.7465   -2.1210 H        1 ZINC000034604616    0.0700
47     H47     4.7265   -1.8302   -4.3507 H        1 ZINC000034604616    0.0600
48     H48     4.1199   -0.3195   -5.0703 H        1 ZINC000034604616    0.1000
49     H49     6.6431   -0.6544   -2.4126 H        1 ZINC000034604616    0.1100
50     H50     6.9641   -1.9725   -3.5586 H        1 ZINC000034604616    0.0700
51     H51     7.9617    1.2802   -2.3393 H        1 ZINC000034604616    0.1400
52     H52     9.5933    1.3019   -2.9969 H        1 ZINC000034604616    0.1400
53     H53     6.4461    3.1817   -4.7984 H        1 ZINC000034604616    0.1400
54     H54     6.0896    1.7835   -3.7561 H        1 ZINC000034604616    0.1700
55     H55     5.9490    3.8277   -2.4198 H        1 ZINC000034604616    0.1200
56     H56     7.3780    2.8986   -1.9071 H        1 ZINC000034604616    0.0900
57     H57     6.8008    4.4172   -0.6018 H        1 ZINC000034604616    0.1500
58     H58     7.1990    6.0292    1.2099 H        1 ZINC000034604616    0.1500
59     H59     9.6434    8.3728   -1.4263 H        1 ZINC000034604616    0.1600
60     H60     7.3205    2.0428   -6.2189 H        1 ZINC000034604616    0.1400
61     H61     9.0741    1.9221   -6.1403 H        1 ZINC000034604616    0.1400
62     H62     6.5556   -1.4826   -6.0450 H        1 ZINC000034604616    0.0700
63     H63     5.9783    0.1444   -6.4629 H        1 ZINC000034604616    0.1100
@<TRIPOS>BOND
1     1     2     1
2     1     35    1
3     1     36    1
4     1     37    1
5     2     3     1
6     2     4     1
7     2     5     1
8     3     38    1
9     3     39    1
10    3     40    1
11    4     41    1
12    4     42    1
13    4     43    1
14    5     6     1
15    6     7     2
16    6     8     am
17    8     9     1
18    8     44    1
19    9     10    1
20    9     45    1
21    9     46    1
22    10    11    1
23    10    47    1
24    10    48    1
25    11    33    1
26    11    12    1
27    12    13    1
28    12    49    1
29    12    50    1
30    13    14    1
31    13    34    1
32    13    15    1
33    15    16    1
34    15    51    1
35    15    52    1
36    16    17    1
37    16    18    1
38    16    30    1
39    18    19    1
40    18    53    1
41    18    54    1
42    19    20    1
43    19    55    1
44    19    56    1
45    20    21    1
46    21    28    ar
47    21    22    ar
48    22    23    ar
49    22    57    1
50    23    24    ar
51    23    58    1
52    24    25    1
53    24    27    ar
54    25    26    3
55    27    28    ar
56    27    59    1
57    28    29    1
58    30    31    1
59    30    60    1
60    30    61    1
61    31    32    1
62    31    33    1
63    31    34    1
64    33    62    1
65    33    63    1
@<TRIPOS>SUBSTRUCTURE
1   ZINC000034604616 1     RESIDUE    1   A     ZIN   1
