@<TRIPOS>MOLECULE
ZINC000001494443
46    49    1     0     0
SMALL
USER_CHARGES
@<TRIPOS>ATOM
1      C1     -1.8198    1.3107    0.0952 C.3      1 ZINC000001494443    0.0200
2      N2     -1.5593   -0.1349    0.0750 N.3      1 ZINC000001494443   -0.5500
3      C3     -2.8150   -0.8955    0.0421 C.3      1 ZINC000001494443    0.0600
4      C4     -2.5063   -2.3851   -0.1249 C.3      1 ZINC000001494443   -0.1300
5      C5     -1.6339   -2.8546    1.0426 C.3      1 ZINC000001494443    0.1600
6      N6     -1.2869   -4.2659    0.8579 N.pl3    1 ZINC000001494443   -0.6900
7      C7     -0.9729   -5.0508    1.9543 C.ar     1 ZINC000001494443    0.5600
8      N8     -0.9996   -4.4989    3.1648 N.ar     1 ZINC000001494443   -0.5300
9      C9     -0.7117   -5.1922    4.2470 C.ar     1 ZINC000001494443    0.2500
10     C10    -0.3697   -6.5485    4.1001 C.ar     1 ZINC000001494443    0.0200
11     N11    -0.0608   -7.3376    5.1347 N.ar     1 ZINC000001494443   -0.5100
12     C12     0.2526   -8.5969    4.9511 C.ar     1 ZINC000001494443    0.3200
13     N13     0.2898   -9.1783    3.7630 N.ar     1 ZINC000001494443   -0.5600
14     C14     0.0045   -8.5066    2.6545 C.ar     1 ZINC000001494443    0.4700
15     N15     0.0439   -9.1165    1.4169 N.pl3    1 ZINC000001494443   -0.6200
16     C16     0.2713  -10.4934    1.3226 C.ar     1 ZINC000001494443    0.1600
17     C17    -0.2007  -11.3454    2.3124 C.ar     1 ZINC000001494443   -0.0800
18     C18     0.0243  -12.7051    2.2176 C.ar     1 ZINC000001494443   -0.1200
19     C19     0.7198  -13.2191    1.1368 C.ar     1 ZINC000001494443    0.1000
20     F20     0.9386  -14.5492    1.0462 F        1 ZINC000001494443   -0.1200
21     C21     1.1916  -12.3711    0.1471 C.ar     1 ZINC000001494443   -0.0500
22     Cl22    2.0626  -13.0187   -1.2078 Cl       1 ZINC000001494443   -0.0400
23     C23     0.9645  -11.0109    0.2359 C.ar     1 ZINC000001494443   -0.1100
24     C24    -0.3533   -7.0965    2.7945 C.ar     1 ZINC000001494443    0.0900
25     N25    -0.6637   -6.3201    1.7589 N.ar     1 ZINC000001494443   -0.5500
26     C26    -0.3547   -2.0142    1.0838 C.3      1 ZINC000001494443   -0.1300
27     C27    -0.7257   -0.5354    1.2157 C.3      1 ZINC000001494443    0.0600
28     H28    -0.8746    1.8510    0.0440 H        1 ZINC000001494443    0.0700
29     H29    -2.4392    1.5802   -0.7603 H        1 ZINC000001494443    0.0700
30     H30    -2.3391    1.5734    1.0169 H        1 ZINC000001494443    0.0300
31     H31    -3.3587   -0.7395    0.9738 H        1 ZINC000001494443    0.0400
32     H32    -3.4241   -0.5548   -0.7952 H        1 ZINC000001494443    0.0800
33     H33    -3.4379   -2.9510   -0.1336 H        1 ZINC000001494443    0.0800
34     H34    -1.9747   -2.5437   -1.0632 H        1 ZINC000001494443    0.0800
35     H35    -2.1808   -2.7334    1.9777 H        1 ZINC000001494443    0.0900
36     H36    -1.2770   -4.6503   -0.0326 H        1 ZINC000001494443    0.4200
37     H37    -0.7372   -4.7306    5.2231 H        1 ZINC000001494443    0.1900
38     H38     0.4945   -9.1935    5.8182 H        1 ZINC000001494443    0.2000
39     H39    -0.0862   -8.5902    0.6125 H        1 ZINC000001494443    0.4300
40     H40    -0.7432  -10.9451    3.1562 H        1 ZINC000001494443    0.1500
41     H41    -0.3425  -13.3676    2.9876 H        1 ZINC000001494443    0.1500
42     H42     1.3321  -10.3501   -0.5352 H        1 ZINC000001494443    0.1500
43     H43     0.2511   -2.3151    1.9386 H        1 ZINC000001494443    0.0700
44     H44     0.2108   -2.1669    0.1645 H        1 ZINC000001494443    0.0700
45     H45     0.1827    0.0670    1.2309 H        1 ZINC000001494443    0.0800
46     H46    -1.2792   -0.3810    2.1419 H        1 ZINC000001494443    0.0400
@<TRIPOS>BOND
1     1     2     1
2     1     28    1
3     1     29    1
4     1     30    1
5     2     27    1
6     2     3     1
7     3     4     1
8     3     31    1
9     3     32    1
10    4     5     1
11    4     33    1
12    4     34    1
13    5     6     1
14    5     26    1
15    5     35    1
16    6     7     1
17    6     36    1
18    7     25    ar
19    7     8     ar
20    8     9     ar
21    9     10    ar
22    9     37    1
23    10    24    ar
24    10    11    ar
25    11    12    ar
26    12    13    ar
27    12    38    1
28    13    14    ar
29    14    15    1
30    14    24    ar
31    15    16    1
32    15    39    1
33    16    23    ar
34    16    17    ar
35    17    18    ar
36    17    40    1
37    18    19    ar
38    18    41    1
39    19    20    1
40    19    21    ar
41    21    22    1
42    21    23    ar
43    23    42    1
44    24    25    ar
45    26    27    1
46    26    43    1
47    26    44    1
48    27    45    1
49    27    46    1
@<TRIPOS>SUBSTRUCTURE
1   ZINC000001494443 1     RESIDUE    1   A     ZIN   1
