@<TRIPOS>MOLECULE
ZINC000004217444
26    26    1     0     0
SMALL
USER_CHARGES
@<TRIPOS>ATOM
1      O1      0.0021   -0.0041    0.0020 O.co2    1 ZINC000004217444   -0.6900
2      C2     -0.0145    1.2150    0.0087 C.2      1 ZINC000004217444    0.5000
3      O3      1.0330    1.8389    0.0021 O.co2    1 ZINC000004217444   -0.6500
4      C4     -1.3296    1.9507    0.0190 C.3      1 ZINC000004217444   -0.0500
5      H5     -1.3997    2.5812   -0.8674 H        1 ZINC000004217444    0.1300
6      C6     -1.4155    2.8234    1.2730 C.3      1 ZINC000004217444   -0.1100
7      C7     -2.7531    3.5690    1.2788 C.3      1 ZINC000004217444   -0.0700
8      H8     -2.8017    4.2371    0.4190 H        1 ZINC000004217444    0.0900
9      C9     -2.8790    4.3838    2.5676 C.3      1 ZINC000004217444   -0.7200
10     P10    -4.2266    5.5985    2.3894 P.3      1 ZINC000004217444    2.2100
11     O11    -3.9729    6.4770    1.1172 O.co2    1 ZINC000004217444   -1.1800
12     O12    -5.5922    4.8454    2.2401 O.co2    1 ZINC000004217444   -1.1700
13     O13    -4.2728    6.5171    3.6576 O.co2    1 ZINC000004217444   -1.1900
14     C14    -3.8942    2.5507    1.2012 C.3      1 ZINC000004217444   -0.1600
15     C15    -3.7166    1.6881   -0.0501 C.3      1 ZINC000004217444    0.0000
16     N16    -2.4318    0.9813    0.0174 N.4      1 ZINC000004217444   -0.4800
17     H17    -2.3414    0.3729   -0.7824 H        1 ZINC000004217444    0.4100
18     H18    -2.3956    0.4316    0.8628 H        1 ZINC000004217444    0.4200
19     H19    -1.3458    2.1938    2.1600 H        1 ZINC000004217444    0.0600
20     H20    -0.5973    3.5436    1.2719 H        1 ZINC000004217444    0.1000
21     H21    -3.1000    3.7155    3.3999 H        1 ZINC000004217444    0.0500
22     H22    -1.9420    4.9063    2.7602 H        1 ZINC000004217444    0.0500
23     H23    -3.8760    1.9154    2.0868 H        1 ZINC000004217444    0.0700
24     H24    -4.8479    3.0760    1.1488 H        1 ZINC000004217444    0.1500
25     H25    -4.5275    0.9621   -0.1086 H        1 ZINC000004217444    0.1200
26     H26    -3.7352    2.3242   -0.9351 H        1 ZINC000004217444    0.1200
@<TRIPOS>BOND
1     1     2     ar
2     2     3     ar
3     2     4     1
4     4     5     1
5     4     16    1
6     4     6     1
7     6     7     1
8     6     19    1
9     6     20    1
10    7     8     1
11    7     9     1
12    7     14    1
13    9     10    1
14    9     21    1
15    9     22    1
16    10    11    ar
17    10    12    ar
18    10    13    ar
19    14    15    1
20    14    23    1
21    14    24    1
22    15    16    1
23    15    25    1
24    15    26    1
25    16    17    1
26    16    18    1
@<TRIPOS>SUBSTRUCTURE
1   ZINC000004217444 1     RESIDUE    1   A     ZIN   1
