@<TRIPOS>MOLECULE
ZINC000003966030
81    84    1     0     0
SMALL
USER_CHARGES
@<TRIPOS>ATOM
1      C1      0.8597    1.1922   -2.9530 C.3      1 ZINC000003966030    0.0300
2      O2      0.9346   -0.1896   -2.5964 O.3      1 ZINC000003966030   -0.3800
3      C3      0.4539   -0.4775   -1.2819 C.3      1 ZINC000003966030    0.0900
4      C4      0.5793   -1.9552   -1.0137 C.2      1 ZINC000003966030    0.2300
5      C5      1.4207   -2.3861   -0.0493 C.2      1 ZINC000003966030   -0.2500
6      C6      2.1869   -1.4742    0.7139 C.2      1 ZINC000003966030    0.5400
7      O7      1.9054   -1.2698    1.8799 O.2      1 ZINC000003966030   -0.4800
8      O8      3.2299   -0.8310    0.1488 O.3      1 ZINC000003966030   -0.3400
9      C9      3.9594    0.0757    0.9782 C.3      1 ZINC000003966030    0.0300
10     C10     1.5158   -3.8797    0.1878 C.3      1 ZINC000003966030    0.2300
11     H11     1.2538   -4.0721    1.2282 H        1 ZINC000003966030    0.1100
12     C12     2.9523   -4.2907   -0.0089 C.ar     1 ZINC000003966030   -0.1100
13     C13     3.4499   -4.4715   -1.2856 C.ar     1 ZINC000003966030   -0.0600
14     C14     4.7674   -4.8485   -1.4687 C.ar     1 ZINC000003966030   -0.1200
15     C15     5.5894   -5.0450   -0.3731 C.ar     1 ZINC000003966030    0.0800
16     F16     6.8771   -5.4130   -0.5511 F        1 ZINC000003966030   -0.1200
17     C17     5.0901   -4.8632    0.9080 C.ar     1 ZINC000003966030    0.0800
18     F18     5.8908   -5.0544    1.9793 F        1 ZINC000003966030   -0.1200
19     C19     3.7724   -4.4811    1.0877 C.ar     1 ZINC000003966030   -0.1200
20     N20     0.6769   -4.7445   -0.6590 N.am     1 ZINC000003966030   -0.5700
21     C21     0.7003   -6.0842   -0.5138 C.2      1 ZINC000003966030    0.7200
22     O22     0.0785   -6.7898   -1.2837 O.2      1 ZINC000003966030   -0.5100
23     N23     1.4132   -6.6414    0.4850 N.am     1 ZINC000003966030   -0.7300
24     C24     1.3559   -8.0883    0.7071 C.3      1 ZINC000003966030    0.1300
25     C25     2.2496   -8.4582    1.8926 C.3      1 ZINC000003966030   -0.1400
26     C26     2.1898   -9.9693    2.1245 C.3      1 ZINC000003966030    0.0600
27     N27     3.0479  -10.3244    3.2628 N.3      1 ZINC000003966030   -0.5400
28     C28     4.3518   -9.6557    3.1675 C.3      1 ZINC000003966030    0.0500
29     C29     5.1616   -9.9311    4.4365 C.3      1 ZINC000003966030   -0.1100
30     C30     5.3523  -11.4419    4.5967 C.3      1 ZINC000003966030   -0.0500
31     C31     6.0976  -11.7226    5.8761 C.ar     1 ZINC000003966030   -0.0600
32     C32     5.5618  -11.3282    7.0881 C.ar     1 ZINC000003966030   -0.1300
33     C33     6.2428  -11.5836    8.2645 C.ar     1 ZINC000003966030   -0.1000
34     C34     7.4605  -12.2340    8.2318 C.ar     1 ZINC000003966030   -0.1200
35     C35     8.0012  -12.6319    7.0159 C.ar     1 ZINC000003966030    0.1500
36     N36     9.2347  -13.2915    6.9794 N.am     1 ZINC000003966030   -0.6800
37     C37     9.5815  -14.1277    7.9780 C.2      1 ZINC000003966030    0.5100
38     C38    10.9532  -14.7514    7.9963 C.3      1 ZINC000003966030   -0.1700
39     O39     8.7896  -14.3782    8.8618 O.2      1 ZINC000003966030   -0.5200
40     C40     7.3125  -12.3786    5.8371 C.ar     1 ZINC000003966030   -0.1400
41     C41     3.9800  -12.1193    4.6447 C.3      1 ZINC000003966030   -0.1100
42     C42     3.2044  -11.7806    3.3697 C.3      1 ZINC000003966030    0.0600
43     C43    -0.1152   -4.1643   -1.5822 C.2      1 ZINC000003966030    0.7100
44     O44    -0.8116   -4.8692   -2.2857 O.2      1 ZINC000003966030   -0.4900
45     N45    -0.1640   -2.8363   -1.7459 N.am     1 ZINC000003966030   -0.6400
46     H46    -0.1782    1.5226   -2.9106 H        1 ZINC000003966030    0.0500
47     H47     1.4569    1.7802   -2.2561 H        1 ZINC000003966030    0.0500
48     H48     1.2431    1.3278   -3.9643 H        1 ZINC000003966030    0.1000
49     H49     1.0427    0.0758   -0.5503 H        1 ZINC000003966030    0.0800
50     H50    -0.5924   -0.1818   -1.2048 H        1 ZINC000003966030    0.0900
51     H51     3.2911    0.8590    1.3357 H        1 ZINC000003966030    0.0600
52     H52     4.3745   -0.4642    1.8293 H        1 ZINC000003966030    0.0600
53     H53     4.7691    0.5237    0.4022 H        1 ZINC000003966030    0.1100
54     H54     2.8088   -4.3183   -2.1412 H        1 ZINC000003966030    0.1400
55     H55     5.1549   -4.9901   -2.4668 H        1 ZINC000003966030    0.1500
56     H56     3.3825   -4.3389    2.0848 H        1 ZINC000003966030    0.1500
57     H57     1.9643   -6.0844    1.0569 H        1 ZINC000003966030    0.4000
58     H58     0.3284   -8.3827    0.9210 H        1 ZINC000003966030    0.0800
59     H59     1.7040   -8.6071   -0.1861 H        1 ZINC000003966030    0.0700
60     H60     3.2771   -8.1638    1.6787 H        1 ZINC000003966030    0.0700
61     H61     1.9015   -7.9394    2.7858 H        1 ZINC000003966030    0.0800
62     H62     1.1623  -10.2636    2.3384 H        1 ZINC000003966030    0.0800
63     H63     2.5379  -10.4880    1.2313 H        1 ZINC000003966030    0.0400
64     H64     4.8930  -10.0368    2.3015 H        1 ZINC000003966030    0.0300
65     H65     4.2020   -8.5816    3.0582 H        1 ZINC000003966030    0.0800
66     H66     6.1355   -9.4476    4.3588 H        1 ZINC000003966030    0.0700
67     H67     4.6275   -9.5379    5.3015 H        1 ZINC000003966030    0.0800
68     H68     5.9212  -11.8289    3.7513 H        1 ZINC000003966030    0.0700
69     H69     4.6096  -10.8194    7.1163 H        1 ZINC000003966030    0.1200
70     H70     5.8220  -11.2736    9.2096 H        1 ZINC000003966030    0.1300
71     H71     7.9920  -12.4328    9.1507 H        1 ZINC000003966030    0.1300
72     H72     9.8401  -13.1470    6.2355 H        1 ZINC000003966030    0.4100
73     H73    11.6389  -14.1052    8.5445 H        1 ZINC000003966030    0.1000
74     H74    10.9032  -15.7249    8.4839 H        1 ZINC000003966030    0.1000
75     H75    11.3098  -14.8751    6.9737 H        1 ZINC000003966030    0.0800
76     H76     7.7304  -12.6868    4.8901 H        1 ZINC000003966030    0.1200
77     H77     4.1095  -13.1993    4.7158 H        1 ZINC000003966030    0.0700
78     H78     3.4273  -11.7606    5.5130 H        1 ZINC000003966030    0.0800
79     H79     2.2212  -12.2497    3.4071 H        1 ZINC000003966030    0.0800
80     H80     3.7509  -12.1517    2.5027 H        1 ZINC000003966030    0.0300
81     H81    -0.7547   -2.4805   -2.4281 H        1 ZINC000003966030    0.4400
@<TRIPOS>BOND
1     1     2     1
2     1     46    1
3     1     47    1
4     1     48    1
5     2     3     1
6     3     4     1
7     3     49    1
8     3     50    1
9     4     45    1
10    4     5     2
11    5     6     1
12    5     10    1
13    6     7     2
14    6     8     1
15    8     9     1
16    9     51    1
17    9     52    1
18    9     53    1
19    10    11    1
20    10    12    1
21    10    20    1
22    12    19    ar
23    12    13    ar
24    13    14    ar
25    13    54    1
26    14    15    ar
27    14    55    1
28    15    16    1
29    15    17    ar
30    17    18    1
31    17    19    ar
32    19    56    1
33    20    21    am
34    20    43    am
35    21    22    2
36    21    23    am
37    23    24    1
38    23    57    1
39    24    25    1
40    24    58    1
41    24    59    1
42    25    26    1
43    25    60    1
44    25    61    1
45    26    27    1
46    26    62    1
47    26    63    1
48    27    42    1
49    27    28    1
50    28    29    1
51    28    64    1
52    28    65    1
53    29    30    1
54    29    66    1
55    29    67    1
56    30    31    1
57    30    41    1
58    30    68    1
59    31    40    ar
60    31    32    ar
61    32    33    ar
62    32    69    1
63    33    34    ar
64    33    70    1
65    34    35    ar
66    34    71    1
67    35    36    1
68    35    40    ar
69    36    37    am
70    36    72    1
71    37    38    1
72    37    39    2
73    38    73    1
74    38    74    1
75    38    75    1
76    40    76    1
77    41    42    1
78    41    77    1
79    41    78    1
80    42    79    1
81    42    80    1
82    43    44    2
83    43    45    am
84    45    81    1
@<TRIPOS>SUBSTRUCTURE
1   ZINC000003966030 1     RESIDUE    1   A     ZIN   1
