@<TRIPOS>MOLECULE
ZINC000000003803
35    36    1     0     0
SMALL
USER_CHARGES
@<TRIPOS>ATOM
1      C1     -0.1725    1.5020   -0.6212 C.3      1 ZINC000000003803   -0.1700
2      C2     -0.1580   -0.0049   -0.6290 C.2      1 ZINC000000003803    0.5100
3      O3      0.7483   -0.5997   -1.1727 O.2      1 ZINC000000003803   -0.5200
4      N4     -1.1522   -0.6915   -0.0318 N.am     1 ZINC000000003803   -0.6800
5      C5     -1.1896   -2.0827   -0.1201 C.ar     1 ZINC000000003803    0.1700
6      C6     -0.0037   -2.8103   -0.1200 C.ar     1 ZINC000000003803   -0.1300
7      C7     -0.0370   -4.1838   -0.2070 C.ar     1 ZINC000000003803   -0.0300
8      C8     -1.2639   -4.8473   -0.2950 C.ar     1 ZINC000000003803   -0.1500
9      C9     -1.3035   -6.3195   -0.3879 C.2      1 ZINC000000003803    0.5600
10     O10    -0.2679   -6.9568   -0.3880 O.2      1 ZINC000000003803   -0.5200
11     N11    -2.4876   -6.9578   -0.4727 N.am     1 ZINC000000003803   -0.6700
12     C12    -2.5307   -8.3579   -0.4642 C.ar     1 ZINC000000003803    0.0600
13     C13    -1.5178   -9.0884   -1.0665 C.ar     1 ZINC000000003803   -0.0700
14     C14    -1.5626  -10.4704   -1.0573 C.ar     1 ZINC000000003803   -0.1600
15     C15    -2.6152  -11.1280   -0.4485 C.ar     1 ZINC000000003803   -0.0800
16     C16    -3.6298  -10.4077    0.1546 C.ar     1 ZINC000000003803   -0.1800
17     C17    -3.5901   -9.0216    0.1553 C.ar     1 ZINC000000003803    0.2000
18     N18    -4.6154   -8.2906    0.7649 N.pl3    1 ZINC000000003803   -0.8800
19     C19    -2.4533   -4.1133   -0.2943 C.ar     1 ZINC000000003803   -0.0700
20     C20    -2.4129   -2.7403   -0.2022 C.ar     1 ZINC000000003803   -0.1500
21     H21     0.7050    1.8766   -1.1482 H        1 ZINC000000003803    0.1000
22     H22    -1.0746    1.8593   -1.1179 H        1 ZINC000000003803    0.0900
23     H23    -0.1585    1.8601    0.4082 H        1 ZINC000000003803    0.0900
24     H24    -1.8416   -0.2180    0.4594 H        1 ZINC000000003803    0.4200
25     H25     0.9441   -2.2970   -0.0520 H        1 ZINC000000003803    0.1500
26     H26     0.8839   -4.7480   -0.2076 H        1 ZINC000000003803    0.1400
27     H27    -3.3098   -6.4476   -0.5396 H        1 ZINC000000003803    0.4000
28     H28    -0.6939   -8.5780   -1.5430 H        1 ZINC000000003803    0.1400
29     H29    -0.7731  -11.0378   -1.5276 H        1 ZINC000000003803    0.1200
30     H30    -2.6454  -12.2075   -0.4442 H        1 ZINC000000003803    0.1200
31     H31    -4.4510  -10.9247    0.6287 H        1 ZINC000000003803    0.1200
32     H32    -5.3556   -8.7534    1.1879 H        1 ZINC000000003803    0.4000
33     H33    -4.5862   -7.3211    0.7645 H        1 ZINC000000003803    0.3900
34     H34    -3.4031   -4.6229   -0.3622 H        1 ZINC000000003803    0.1300
35     H35    -3.3316   -2.1725   -0.2016 H        1 ZINC000000003803    0.1300
@<TRIPOS>BOND
1     1     2     1
2     1     21    1
3     1     22    1
4     1     23    1
5     2     3     2
6     2     4     am
7     4     5     1
8     4     24    1
9     5     20    ar
10    5     6     ar
11    6     7     ar
12    6     25    1
13    7     8     ar
14    7     26    1
15    8     9     1
16    8     19    ar
17    9     10    2
18    9     11    am
19    11    12    1
20    11    27    1
21    12    17    ar
22    12    13    ar
23    13    14    ar
24    13    28    1
25    14    15    ar
26    14    29    1
27    15    16    ar
28    15    30    1
29    16    17    ar
30    16    31    1
31    17    18    1
32    18    32    1
33    18    33    1
34    19    20    ar
35    19    34    1
36    20    35    1
@<TRIPOS>SUBSTRUCTURE
1   ZINC000000003803 1     RESIDUE    1   A     ZIN   1
