@<TRIPOS>MOLECULE
ZINC000014210874
54    53    1     0     0
SMALL
USER_CHARGES
@<TRIPOS>ATOM
1      C1     -1.1397    1.2836   -0.4782 C.3      1 ZINC000014210874   -0.1500
2      C2     -0.8688   -0.2185   -0.3713 C.3      1 ZINC000014210874   -0.1300
3      C3     -0.1322   -0.6943   -1.6251 C.3      1 ZINC000014210874   -0.1200
4      C4      0.1388   -2.1963   -1.5181 C.3      1 ZINC000014210874   -0.1200
5      C5      0.8754   -2.6722   -2.7719 C.3      1 ZINC000014210874   -0.1200
6      C6      1.1463   -4.1742   -2.6650 C.3      1 ZINC000014210874   -0.1200
7      C7      1.8829   -4.6501   -3.9187 C.3      1 ZINC000014210874   -0.1100
8      C8      2.1539   -6.1521   -3.8118 C.3      1 ZINC000014210874   -0.1000
9      C9      2.8794   -6.6208   -5.0467 C.2      1 ZINC000014210874   -0.1700
10     C10     3.9944   -7.2990   -4.9336 C.2      1 ZINC000014210874   -0.1500
11     C11     4.4631   -7.7574   -3.5766 C.3      1 ZINC000014210874   -0.1000
12     C12     4.7180   -9.2657   -3.6078 C.3      1 ZINC000014210874   -0.1100
13     C13     5.1939   -9.7310   -2.2301 C.3      1 ZINC000014210874   -0.1200
14     C14     5.4488  -11.2393   -2.2612 C.3      1 ZINC000014210874   -0.1200
15     C15     5.9247  -11.7047   -0.8836 C.3      1 ZINC000014210874   -0.1100
16     C16     6.1795  -13.2130   -0.9147 C.3      1 ZINC000014210874   -0.1300
17     C17     6.6554  -13.6783    0.4629 C.3      1 ZINC000014210874    0.0400
18     H18     5.9310  -13.3755    1.2190 H        1 ZINC000014210874    0.0900
19     O19     7.9232  -13.0866    0.7539 O.3      1 ZINC000014210874   -0.5600
20     C20     6.7887  -15.1794    0.4677 C.2      1 ZINC000014210874    0.4700
21     O21     7.8852  -15.6936    0.6082 O.co2    1 ZINC000014210874   -0.6900
22     O22     5.8000  -15.8797    0.3311 O.co2    1 ZINC000014210874   -0.7000
23     H23    -0.1940    1.8178   -0.5688 H        1 ZINC000014210874    0.0500
24     H24    -1.7538    1.4803   -1.3570 H        1 ZINC000014210874    0.0500
25     H25    -1.6645    1.6226    0.4150 H        1 ZINC000014210874    0.0500
26     H26    -0.2547   -0.4152    0.5075 H        1 ZINC000014210874    0.0600
27     H27    -1.8145   -0.7527   -0.2808 H        1 ZINC000014210874    0.0600
28     H28    -0.7462   -0.4976   -2.5039 H        1 ZINC000014210874    0.0600
29     H29     0.8136   -0.1601   -1.7156 H        1 ZINC000014210874    0.0600
30     H30     0.7528   -2.3931   -0.6393 H        1 ZINC000014210874    0.0600
31     H31    -0.8070   -2.7306   -1.4276 H        1 ZINC000014210874    0.0600
32     H32     0.2613   -2.4754   -3.6507 H        1 ZINC000014210874    0.0600
33     H33     1.8211   -2.1379   -2.8625 H        1 ZINC000014210874    0.0600
34     H34     1.7604   -4.3710   -1.7862 H        1 ZINC000014210874    0.0600
35     H35     0.2006   -4.7085   -2.5744 H        1 ZINC000014210874    0.0600
36     H36     1.2689   -4.4533   -4.7976 H        1 ZINC000014210874    0.0600
37     H37     2.8287   -4.1158   -4.0093 H        1 ZINC000014210874    0.0600
38     H38     2.7679   -6.3489   -2.9330 H        1 ZINC000014210874    0.0800
39     H39     1.2081   -6.6864   -3.7213 H        1 ZINC000014210874    0.0700
40     H40     2.4800   -6.3976   -6.0250 H        1 ZINC000014210874    0.1100
41     H41     4.5778   -7.5297   -5.8127 H        1 ZINC000014210874    0.1100
42     H42     5.3856   -7.2383   -3.3164 H        1 ZINC000014210874    0.0700
43     H43     3.6981   -7.5335   -2.8332 H        1 ZINC000014210874    0.0800
44     H44     3.7956   -9.7848   -3.8680 H        1 ZINC000014210874    0.0600
45     H45     5.4831   -9.4896   -4.3512 H        1 ZINC000014210874    0.0600
46     H46     6.1164   -9.2120   -1.9699 H        1 ZINC000014210874    0.0600
47     H47     4.4289   -9.5071   -1.4867 H        1 ZINC000014210874    0.0600
48     H48     4.5263  -11.7584   -2.5214 H        1 ZINC000014210874    0.0600
49     H49     6.2138  -11.4633   -3.0047 H        1 ZINC000014210874    0.0600
50     H50     6.8471  -11.1856   -0.6234 H        1 ZINC000014210874    0.0600
51     H51     5.1596  -11.4808   -0.1402 H        1 ZINC000014210874    0.0600
52     H52     5.2571  -13.7321   -1.1749 H        1 ZINC000014210874    0.0700
53     H53     6.9446  -13.4369   -1.6582 H        1 ZINC000014210874    0.0500
54     H54     8.6178  -13.3134    0.1204 H        1 ZINC000014210874    0.3700
@<TRIPOS>BOND
1     1     2     1
2     1     23    1
3     1     24    1
4     1     25    1
5     2     3     1
6     2     26    1
7     2     27    1
8     3     4     1
9     3     28    1
10    3     29    1
11    4     5     1
12    4     30    1
13    4     31    1
14    5     6     1
15    5     32    1
16    5     33    1
17    6     7     1
18    6     34    1
19    6     35    1
20    7     8     1
21    7     36    1
22    7     37    1
23    8     9     1
24    8     38    1
25    8     39    1
26    9     10    2
27    9     40    1
28    10    11    1
29    10    41    1
30    11    12    1
31    11    42    1
32    11    43    1
33    12    13    1
34    12    44    1
35    12    45    1
36    13    14    1
37    13    46    1
38    13    47    1
39    14    15    1
40    14    48    1
41    14    49    1
42    15    16    1
43    15    50    1
44    15    51    1
45    16    17    1
46    16    52    1
47    16    53    1
48    17    18    1
49    17    19    1
50    17    20    1
51    19    54    1
52    20    21    ar
53    20    22    ar
@<TRIPOS>SUBSTRUCTURE
1   ZINC000014210874 1     RESIDUE    1   A     ZIN   1
