@<TRIPOS>MOLECULE
ZINC000073196066
  42   44    0    0    0
SMALL
USER_CHARGES
NO_NAME
@<TRIPOS>ATOM
    1 C1       -0.1710     1.5033    -0.5575 C.3    1 <0>      -0.1700
    2 C2       -0.1567    -0.0035    -0.5753 C.2    1 <0>       0.5100
    3 O3        0.7538    -0.5950    -1.1157 O.2    1 <0>      -0.5300
    4 N4       -1.1558    -0.6938     0.0094 N.am   1 <0>      -0.6600
    5 C5       -1.1925    -2.0877    -0.0880 C.ar   1 <0>       0.1700
    6 C6       -2.4202    -2.7561    -0.1823 C.ar   1 <0>      -0.0900
    7 C7       -2.4493    -4.1579    -0.2799 C.ar   1 <0>       0.1300
    8 C8       -1.2525    -4.8692    -0.2816 C.ar   1 <0>      -0.1300
    9 C9       -0.0518    -4.2001    -0.1883 C.ar   1 <0>      -0.0900
   10 C10      -0.0166    -2.8165    -0.0976 C.ar   1 <0>      -0.1500
   11 N11      -3.7711    -4.5355    -0.3574 N.pl3  1 <0>      -0.4300
   12 C12      -4.2468    -5.9165    -0.4706 C.3    1 <0>       0.0300
   13 C13      -4.4654    -6.4869     0.9071 C.2    1 <0>       0.4800
   14 O14      -4.2443    -5.8033     1.8921 O.co2  1 <0>      -0.6700
   15 O15      -4.8633    -7.6321     1.0366 O.co2  1 <0>      -0.6900
   16 C16      -4.5786    -3.4221    -0.3124 C.2    1 <0>       0.1900
   17 C17      -6.0843    -3.4393    -0.3728 C.3    1 <0>      -0.1000
   18 C18      -3.8193    -2.3145    -0.2066 C.2    1 <0>      -0.2600
   19 S19      -4.3962    -0.6522    -0.1142 S.3    1 <0>       0.0400
   20 C20      -4.5929    -0.3965     1.6180 C.ar   1 <0>      -0.1100
   21 C21      -4.2921    -1.4180     2.5113 C.ar   1 <0>      -0.1000
   22 C22      -4.4474    -1.2146     3.8681 C.ar   1 <0>      -0.0900
   23 C23      -4.9021     0.0049     4.3389 C.ar   1 <0>      -0.0400
   24 Cl24     -5.0955     0.2570     6.0456 Cl     1 <0>      -0.0800
   25 C25      -5.2025     1.0241     3.4519 C.ar   1 <0>      -0.1000
   26 C26      -5.0439     0.8288     2.0943 C.ar   1 <0>      -0.1000
   27 H27       0.7108     1.8812    -1.0750 H      1 <0>       0.0900
   28 H28      -1.0690     1.8641    -1.0591 H      1 <0>       0.0900
   29 H29      -0.1651     1.8546     0.4743 H      1 <0>       0.0900
   30 H30      -1.8494    -0.2233     0.4977 H      1 <0>       0.4100
   31 H31      -1.2654    -5.9465    -0.3559 H      1 <0>       0.1200
   32 H32       0.8725    -4.7588    -0.1900 H      1 <0>       0.1300
   33 H33       0.9326    -2.3064    -0.0251 H      1 <0>       0.1400
   34 H34      -5.1858    -5.9331    -1.0239 H      1 <0>       0.0900
   35 H35      -3.5037    -6.5147    -0.9978 H      1 <0>       0.0900
   36 H36      -6.4876    -3.5141     0.6371 H      1 <0>       0.0900
   37 H37      -6.4397    -2.5202    -0.8388 H      1 <0>       0.0900
   38 H38      -6.4146    -4.2959    -0.9604 H      1 <0>       0.0700
   39 H39      -3.9376    -2.3699     2.1444 H      1 <0>       0.1400
   40 H40      -4.2142    -2.0080     4.5627 H      1 <0>       0.1300
   41 H41      -5.5575     1.9745     3.8224 H      1 <0>       0.1300
   42 H42      -5.2781     1.6246     1.4027 H      1 <0>       0.1300
@<TRIPOS>BOND
   1    1    2 1
   2    1   27 1
   3    1   28 1
   4    1   29 1
   5    2    3 2
   6    2    4 am
   7    4    5 1
   8    4   30 1
   9    5   10 ar
  10    5    6 ar
  11    6   18 1
  12    6    7 ar
  13    7    8 ar
  14    7   11 1
  15    8    9 ar
  16    8   31 1
  17    9   10 ar
  18    9   32 1
  19   10   33 1
  20   11   12 1
  21   11   16 1
  22   12   13 1
  23   12   34 1
  24   12   35 1
  25   13   14 ar
  26   13   15 ar
  27   16   17 1
  28   16   18 2
  29   17   36 1
  30   17   37 1
  31   17   38 1
  32   18   19 1
  33   19   20 1
  34   20   26 ar
  35   20   21 ar
  36   21   22 ar
  37   21   39 1
  38   22   23 ar
  39   22   40 1
  40   23   24 1
  41   23   25 ar
  42   25   26 ar
  43   25   41 1
  44   26   42 1
