@<TRIPOS>MOLECULE
ZINC000001642845
26    27    1     0     0
SMALL
USER_CHARGES
@<TRIPOS>ATOM
1      N1     -0.0166    1.3714    0.0096 N.pl3    1 ZINC000001642845   -0.8100
2      C2      0.0021   -0.0041    0.0020 C.2      1 ZINC000001642845    0.5100
3      N3     -1.1354   -0.6867    0.0037 N.2      1 ZINC000001642845   -0.6100
4      C4     -1.1293   -2.0185   -0.0041 C.2      1 ZINC000001642845    0.6600
5      O5     -2.1886   -2.6233   -0.0028 O.2      1 ZINC000001642845   -0.5400
6      N6      0.0264   -2.7078   -0.0137 N.am     1 ZINC000001642845   -0.5300
7      C7      0.0011   -4.1726   -0.0226 C.3      1 ZINC000001642845    0.2700
8      H8     -0.5082   -4.5467   -0.9107 H        1 ZINC000001642845    0.1200
9      C9     -0.6565   -4.7237    1.2673 C.3      1 ZINC000001642845    0.0300
10     O10    -0.0565   -6.0273    1.4080 O.3      1 ZINC000001642845   -0.3700
11     C11     1.1680   -6.0155    0.6624 C.3      1 ZINC000001642845    0.2400
12     H12     1.1255   -6.7694   -0.1236 H        1 ZINC000001642845    0.1100
13     C13     2.3420   -6.3133    1.5973 C.3      1 ZINC000001642845    0.0600
14     O14     2.3798   -5.3373    2.6404 O.3      1 ZINC000001642845   -0.5600
15     O15     1.3401   -4.7147    0.0742 O.3      1 ZINC000001642845   -0.3800
16     C16     1.2200   -2.0505   -0.0158 C.2      1 ZINC000001642845    0.2100
17     C17     1.2303   -0.6965   -0.0134 C.2      1 ZINC000001642845   -0.3100
18     H18     0.8168    1.8678    0.0043 H        1 ZINC000001642845    0.4200
19     H19    -0.8631    1.8449    0.0162 H        1 ZINC000001642845    0.4100
20     H20    -0.4138   -4.0936    2.1229 H        1 ZINC000001642845    0.0800
21     H21    -1.7362   -4.8079    1.1435 H        1 ZINC000001642845    0.1200
22     H22     2.2176   -7.3051    2.0320 H        1 ZINC000001642845    0.0700
23     H23     3.2738   -6.2782    1.0329 H        1 ZINC000001642845    0.0700
24     H24     3.1009   -5.4645    3.2720 H        1 ZINC000001642845    0.3800
25     H25     2.1477   -2.6035   -0.0235 H        1 ZINC000001642845    0.1800
26     H26     2.1649   -0.1552   -0.0154 H        1 ZINC000001642845    0.1600
@<TRIPOS>BOND
1     1     2     1
2     1     18    1
3     1     19    1
4     2     17    1
5     2     3     2
6     3     4     1
7     4     5     2
8     4     6     am
9     6     7     1
10    6     16    1
11    7     8     1
12    7     15    1
13    7     9     1
14    9     10    1
15    9     20    1
16    9     21    1
17    10    11    1
18    11    12    1
19    11    13    1
20    11    15    1
21    13    14    1
22    13    22    1
23    13    23    1
24    14    24    1
25    16    17    2
26    16    25    1
27    17    26    1
@<TRIPOS>SUBSTRUCTURE
1   ZINC000001642845 1     RESIDUE    1   A     ZIN   1
