@<TRIPOS>MOLECULE
ZINC000000004265
45    48    1     0     0
SMALL
USER_CHARGES
@<TRIPOS>ATOM
1      C1      1.2544   -7.3154    3.5400 C.3      1 ZINC000000004265    0.0200
2      N2      0.6812   -5.9738    3.7117 N.3      1 ZINC000000004265   -0.5400
3      C3     -0.7638   -5.9815    3.4503 C.3      1 ZINC000000004265    0.0500
4      C4     -1.3502   -4.6065    3.7785 C.3      1 ZINC000000004265   -0.1200
5      C5     -0.6623   -3.5446    2.9162 C.3      1 ZINC000000004265   -0.1100
6      C6      0.8468   -3.5903    3.1715 C.3      1 ZINC000000004265   -0.1100
7      H7      1.0466   -3.3503    4.2158 H        1 ZINC000000004265    0.1100
8      C8      1.5378   -2.5876    2.2838 C.2      1 ZINC000000004265    0.5400
9      O9      1.0053   -2.2160    1.2594 O.2      1 ZINC000000004265   -0.4900
10     N10     2.7477   -2.1037    2.6281 N.am     1 ZINC000000004265   -0.5200
11     C11     3.4160   -2.6013    3.7564 C.ar     1 ZINC000000004265    0.1100
12     C12     2.8281   -2.4618    5.0060 C.ar     1 ZINC000000004265   -0.0900
13     C13     3.4834   -2.9135    6.1361 C.ar     1 ZINC000000004265   -0.1100
14     C14     4.7283   -3.5034    6.0234 C.ar     1 ZINC000000004265   -0.0800
15     C15     5.3136   -3.6579    4.7818 C.ar     1 ZINC000000004265   -0.1300
16     C16     4.6545   -3.2223    3.6370 C.ar     1 ZINC000000004265    0.1400
17     N17     5.2321   -3.4649    2.3933 N.am     1 ZINC000000004265   -0.6500
18     C18     5.2346   -2.6564    1.3454 C.2      1 ZINC000000004265    0.5700
19     O19     5.8168   -3.0418    0.3502 O.2      1 ZINC000000004265   -0.5200
20     C20     4.5982   -1.3376    1.2780 C.ar     1 ZINC000000004265   -0.1800
21     C21     5.2337   -0.2849    0.6095 C.ar     1 ZINC000000004265   -0.0100
22     C22     4.5822    0.9340    0.5318 C.ar     1 ZINC000000004265   -0.1800
23     C23     3.3318    1.0743    1.1058 C.ar     1 ZINC000000004265    0.1500
24     N24     2.7574    0.0730    1.7438 N.ar     1 ZINC000000004265   -0.4800
25     C25     3.3506   -1.1094    1.8658 C.ar     1 ZINC000000004265    0.3900
26     C26     1.3695   -4.9947    2.8609 C.3      1 ZINC000000004265    0.0700
27     H27     2.3098   -7.2971    3.8118 H        1 ZINC000000004265    0.0700
28     H28     0.7262   -8.0210    4.1815 H        1 ZINC000000004265    0.0700
29     H29     1.1524   -7.6237    2.4995 H        1 ZINC000000004265    0.0300
30     H30    -0.9416   -6.2107    2.3996 H        1 ZINC000000004265    0.0400
31     H31    -1.2415   -6.7380    4.0728 H        1 ZINC000000004265    0.0800
32     H32    -2.4200   -4.6079    3.5695 H        1 ZINC000000004265    0.0800
33     H33    -1.1850   -4.3826    4.8324 H        1 ZINC000000004265    0.0700
34     H34    -0.8598   -3.7463    1.8634 H        1 ZINC000000004265    0.0700
35     H35    -1.0462   -2.5585    3.1775 H        1 ZINC000000004265    0.0700
36     H36     1.8565   -1.9988    5.0956 H        1 ZINC000000004265    0.1400
37     H37     3.0229   -2.8053    7.1070 H        1 ZINC000000004265    0.1400
38     H38     5.2449   -3.8441    6.9086 H        1 ZINC000000004265    0.1400
39     H39     6.2869   -4.1186    4.6996 H        1 ZINC000000004265    0.1400
40     H40     5.6811   -4.3177    2.2833 H        1 ZINC000000004265    0.4200
41     H41     6.2089   -0.4201    0.1654 H        1 ZINC000000004265    0.1500
42     H42     5.0463    1.7683    0.0268 H        1 ZINC000000004265    0.1500
43     H43     2.8164    2.0203    1.0300 H        1 ZINC000000004265    0.1700
44     H44     2.4413   -5.0345    3.0554 H        1 ZINC000000004265    0.0800
45     H45     1.1818   -5.2285    1.8130 H        1 ZINC000000004265    0.0400
@<TRIPOS>BOND
1     1     2     1
2     1     27    1
3     1     28    1
4     1     29    1
5     2     26    1
6     2     3     1
7     3     4     1
8     3     30    1
9     3     31    1
10    4     5     1
11    4     32    1
12    4     33    1
13    5     6     1
14    5     34    1
15    5     35    1
16    6     7     1
17    6     8     1
18    6     26    1
19    8     9     2
20    8     10    am
21    10    25    1
22    10    11    1
23    11    16    ar
24    11    12    ar
25    12    13    ar
26    12    36    1
27    13    14    ar
28    13    37    1
29    14    15    ar
30    14    38    1
31    15    16    ar
32    15    39    1
33    16    17    1
34    17    18    am
35    17    40    1
36    18    19    2
37    18    20    1
38    20    25    ar
39    20    21    ar
40    21    22    ar
41    21    41    1
42    22    23    ar
43    22    42    1
44    23    24    ar
45    23    43    1
46    24    25    ar
47    26    44    1
48    26    45    1
@<TRIPOS>SUBSTRUCTURE
1   ZINC000000004265 1     RESIDUE    1   A     ZIN   1
