@<TRIPOS>MOLECULE
ZINC000043197674
45    47    1     0     0
SMALL
USER_CHARGES
@<TRIPOS>ATOM
1      C1     -0.0178    1.4608    0.0101 C.3      1 ZINC000043197674    0.1000
2      N2      0.0021   -0.0041    0.0020 N.pl3    1 ZINC000043197674   -0.3500
3      N3      0.0086   -0.8237   -1.1338 N.2      1 ZINC000043197674   -0.2600
4      C4      0.0280   -2.0733   -0.7449 C.2      1 ZINC000043197674    0.0700
5      C5      0.0346   -2.1050    0.6507 C.2      1 ZINC000043197674   -0.1500
6      Cl6     0.0599   -3.5306    1.6411 Cl       1 ZINC000043197674   -0.0300
7      C7      0.0235   -0.8137    1.0987 C.2      1 ZINC000043197674    0.1300
8      C8      0.0254   -0.3757    2.5125 C.2      1 ZINC000043197674   -0.0600
9      C9      1.1718   -0.1402    3.2120 C.2      1 ZINC000043197674   -0.1300
10     Cl10    2.7741   -0.3132    2.5667 Cl       1 ZINC000043197674    0.0400
11     S11     0.8171    0.3482    4.8073 S.3      1 ZINC000043197674    0.3000
12     C12    -0.9123    0.2307    4.5197 C.2      1 ZINC000043197674   -0.3100
13     C13    -1.9540    0.5200    5.5088 C.2      1 ZINC000043197674    0.6000
14     O14    -3.1278    0.4078    5.2070 O.2      1 ZINC000043197674   -0.5300
15     N15    -1.6124    0.9105    6.7527 N.am     1 ZINC000043197674   -0.7300
16     C16    -2.6539    1.1998    7.7415 C.3      1 ZINC000043197674    0.1200
17     H17    -3.4950    0.5228    7.5920 H        1 ZINC000043197674    0.1300
18     C18    -3.1269    2.6454    7.5760 C.3      1 ZINC000043197674   -0.0200
19     N19    -3.5593    2.8633    6.1891 N.4      1 ZINC000043197674   -0.6300
20     H20    -2.7864    2.6888    5.5645 H        1 ZINC000043197674    0.4300
21     H21    -4.3173    2.2343    5.9703 H        1 ZINC000043197674    0.4400
22     H22    -3.8713    3.8166    6.0799 H        1 ZINC000043197674    0.4400
23     C23    -2.0879    1.0065    9.1498 C.3      1 ZINC000043197674   -0.0800
24     C24    -1.7354   -0.4443    9.3548 C.ar     1 ZINC000043197674   -0.0700
25     C25    -2.6790   -1.3201    9.8581 C.ar     1 ZINC000043197674   -0.1200
26     C26    -2.3571   -2.6514   10.0467 C.ar     1 ZINC000043197674   -0.0800
27     C27    -1.0914   -3.1080    9.7321 C.ar     1 ZINC000043197674   -0.1400
28     C28    -0.1454   -2.2317    9.2273 C.ar     1 ZINC000043197674    0.1100
29     F29     1.0924   -2.6770    8.9194 F        1 ZINC000043197674   -0.1300
30     C30    -0.4705   -0.9000    9.0340 C.ar     1 ZINC000043197674   -0.1500
31     C31    -1.1376   -0.1647    3.2353 C.2      1 ZINC000043197674    0.0100
32     H32     1.0048    1.8381    0.0023 H        1 ZINC000043197674    0.0800
33     H33    -0.5450    1.8219   -0.8730 H        1 ZINC000043197674    0.1000
34     H34    -0.5280    1.8123    0.9069 H        1 ZINC000043197674    0.0800
35     H35     0.0367   -2.9357   -1.3950 H        1 ZINC000043197674    0.2000
36     H36    -0.6770    1.0000    6.9932 H        1 ZINC000043197674    0.4100
37     H37    -3.9619    2.8339    8.2508 H        1 ZINC000043197674    0.1500
38     H38    -2.3081    3.3249    7.8124 H        1 ZINC000043197674    0.1400
39     H39    -1.1935    1.6180    9.2690 H        1 ZINC000043197674    0.1000
40     H40    -2.8339    1.3066    9.8856 H        1 ZINC000043197674    0.1100
41     H41    -3.6684   -0.9640   10.1046 H        1 ZINC000043197674    0.1300
42     H42    -3.0950   -3.3347   10.4403 H        1 ZINC000043197674    0.1400
43     H43    -0.8400   -4.1478    9.8801 H        1 ZINC000043197674    0.1400
44     H44     0.2664   -0.2157    8.6401 H        1 ZINC000043197674    0.1300
45     H45    -2.1257   -0.3073    2.8234 H        1 ZINC000043197674    0.1700
@<TRIPOS>BOND
1     1     2     1
2     1     32    1
3     1     33    1
4     1     34    1
5     2     7     1
6     2     3     1
7     3     4     2
8     4     5     1
9     4     35    1
10    5     6     1
11    5     7     2
12    7     8     1
13    8     31    1
14    8     9     2
15    9     10    1
16    9     11    1
17    11    12    1
18    12    13    1
19    12    31    2
20    13    14    2
21    13    15    am
22    15    16    1
23    15    36    1
24    16    17    1
25    16    18    1
26    16    23    1
27    18    19    1
28    18    37    1
29    18    38    1
30    19    20    1
31    19    21    1
32    19    22    1
33    23    24    1
34    23    39    1
35    23    40    1
36    24    30    ar
37    24    25    ar
38    25    26    ar
39    25    41    1
40    26    27    ar
41    26    42    1
42    27    28    ar
43    27    43    1
44    28    29    1
45    28    30    ar
46    30    44    1
47    31    45    1
@<TRIPOS>SUBSTRUCTURE
1   ZINC000043197674 1     RESIDUE    1   A     ZIN   1
