@<TRIPOS>MOLECULE
ZINC000002006286
  24   23    0    0    0
SMALL
USER_CHARGES
NO_NAME
@<TRIPOS>ATOM
    1 C1       -0.0184     1.5028     0.0103 C.3    1 <0>      -0.1700
    2 C2        0.0021    -0.0041     0.0020 C.2    1 <0>       0.5100
    3 O3        1.0605    -0.5961    -0.0113 O.2    1 <0>      -0.5400
    4 N4       -1.1558    -0.6938     0.0094 N.am   1 <0>      -0.7300
    5 C5       -1.1360    -2.1586     0.0013 C.3    1 <0>       0.1200
    6 C6       -2.5713    -2.6882     0.0122 C.3    1 <0>       0.0600
    7 N7       -2.5514    -4.1570     0.0041 N.3    1 <0>      -0.6600
    8 C8       -3.9155    -4.7021     0.0142 C.3    1 <0>       0.3800
    9 N9       -4.5160    -4.5437    -1.3171 N.3    1 <0>      -0.8400
   10 N10      -3.8706    -6.1241     0.3636 N.2    1 <0>      -0.2300
   11 N11      -4.4670    -6.5343     1.3705 N.2    1 <0>      -0.3500
   12 H12       1.0042     1.8801     0.0026 H      1 <0>       0.0900
   13 H13      -0.5455     1.8639    -0.8728 H      1 <0>       0.0900
   14 H14      -0.5286     1.8543     0.9071 H      1 <0>       0.0900
   15 H15      -2.0023    -0.2203     0.0200 H      1 <0>       0.4000
   16 H16      -0.6258    -2.5101    -0.8955 H      1 <0>       0.0700
   17 H17      -0.6088    -2.5197     0.8844 H      1 <0>       0.0800
   18 H18      -3.0815    -2.3367     0.9090 H      1 <0>       0.0800
   19 H19      -3.0985    -2.3271    -0.8709 H      1 <0>       0.0600
   20 H20      -2.0279    -4.5072    -0.7842 H      1 <0>       0.3500
   21 H21      -4.5155    -4.1660     0.7495 H      1 <0>       0.0900
   22 H22      -3.9776    -5.0320    -2.0170 H      1 <0>       0.3500
   23 H23      -5.4767    -4.8522    -1.3195 H      1 <0>       0.3500
   24 H24      -4.4373    -7.4758     1.6018 H      1 <0>       0.3600
@<TRIPOS>BOND
   1    1    2 1
   2    1   12 1
   3    1   13 1
   4    1   14 1
   5    2    3 2
   6    2    4 am
   7    4    5 1
   8    4   15 1
   9    5    6 1
  10    5   16 1
  11    5   17 1
  12    6    7 1
  13    6   18 1
  14    6   19 1
  15    7    8 1
  16    7   20 1
  17    8    9 1
  18    8   10 1
  19    8   21 1
  20    9   22 1
  21    9   23 1
  22   10   11 2
  23   11   24 1
