@<TRIPOS>MOLECULE
ZINC000002000919
41    43    1     0     0
SMALL
USER_CHARGES
@<TRIPOS>ATOM
1      C1      0.0446    1.4275   -0.0335 C.3      1 ZINC000002000919    0.0300
2      O2      0.0345   -0.0014   -0.0319 O.3      1 ZINC000002000919   -0.3100
3      C3      0.8210   -0.6254   -0.9493 C.ar     1 ZINC000002000919    0.1000
4      C4      1.5896    0.1212   -1.8272 C.ar     1 ZINC000002000919   -0.1700
5      C5      2.3892   -0.5149   -2.7590 C.ar     1 ZINC000002000919   -0.1100
6      C6      2.4234   -1.8953   -2.8174 C.ar     1 ZINC000002000919   -0.0800
7      C7      3.2962   -2.5833   -3.8353 C.3      1 ZINC000002000919   -0.0600
8      H8      3.2011   -3.6665   -3.7592 H        1 ZINC000002000919    0.1000
9      C9      2.9664   -2.0984   -5.2644 C.3      1 ZINC000002000919    0.1100
10     N10     4.2525   -2.0563   -5.9702 N.am     1 ZINC000002000919   -0.7300
11     C11     5.2835   -2.0755   -5.1080 C.2      1 ZINC000002000919    0.5200
12     O12     6.4539   -2.0418   -5.4239 O.2      1 ZINC000002000919   -0.5300
13     C13     4.7716   -2.1455   -3.6855 C.3      1 ZINC000002000919   -0.1500
14     C14     1.6589   -2.6465   -1.9437 C.ar     1 ZINC000002000919   -0.1600
15     C15     0.8599   -2.0157   -1.0043 C.ar     1 ZINC000002000919    0.1100
16     O16     0.1074   -2.7530   -0.1443 O.3      1 ZINC000002000919   -0.2900
17     C17     0.0948   -4.1682   -0.3426 C.3      1 ZINC000002000919    0.0800
18     C18     1.2464   -4.8367    0.4486 C.3      1 ZINC000002000919   -0.1500
19     C19     0.7402   -6.2897    0.6266 C.3      1 ZINC000002000919   -0.1200
20     C20    -0.7747   -6.1350    0.8735 C.3      1 ZINC000002000919   -0.1200
21     C21    -1.1850   -4.7861    0.2573 C.3      1 ZINC000002000919   -0.1200
22     H22     1.0568    1.7839    0.1578 H        1 ZINC000002000919    0.0600
23     H23    -0.2917    1.7922   -1.0040 H        1 ZINC000002000919    0.0600
24     H24    -0.6236    1.7965    0.7447 H        1 ZINC000002000919    0.1000
25     H25     1.5641    1.2000   -1.7841 H        1 ZINC000002000919    0.1400
26     H26     2.9880    0.0684   -3.4429 H        1 ZINC000002000919    0.1300
27     H27     2.2902   -2.7993   -5.7539 H        1 ZINC000002000919    0.0800
28     H28     2.5212   -1.1040   -5.2320 H        1 ZINC000002000919    0.0800
29     H29     4.3464   -2.0197   -6.9349 H        1 ZINC000002000919    0.4100
30     H30     4.8321   -1.1667   -3.2097 H        1 ZINC000002000919    0.1100
31     H31     5.3335   -2.8840   -3.1137 H        1 ZINC000002000919    0.1100
32     H32     1.6875   -3.7251   -1.9914 H        1 ZINC000002000919    0.1400
33     H33     0.1712   -4.4043   -1.4040 H        1 ZINC000002000919    0.0800
34     H34     2.1721   -4.8179   -0.1265 H        1 ZINC000002000919    0.0700
35     H35     1.3816   -4.3535    1.4163 H        1 ZINC000002000919    0.0800
36     H36     0.9219   -6.8705   -0.2777 H        1 ZINC000002000919    0.0700
37     H37     1.2207   -6.7586    1.4853 H        1 ZINC000002000919    0.0700
38     H38    -1.3169   -6.9471    0.3891 H        1 ZINC000002000919    0.0700
39     H39    -0.9804   -6.1344    1.9440 H        1 ZINC000002000919    0.0700
40     H40    -1.5899   -4.1309    1.0286 H        1 ZINC000002000919    0.0800
41     H41    -1.9263   -4.9436   -0.5262 H        1 ZINC000002000919    0.0700
@<TRIPOS>BOND
1     1     2     1
2     1     22    1
3     1     23    1
4     1     24    1
5     2     3     1
6     3     15    ar
7     3     4     ar
8     4     5     ar
9     4     25    1
10    5     6     ar
11    5     26    1
12    6     7     1
13    6     14    ar
14    7     8     1
15    7     13    1
16    7     9     1
17    9     10    1
18    9     27    1
19    9     28    1
20    10    11    am
21    10    29    1
22    11    12    2
23    11    13    1
24    13    30    1
25    13    31    1
26    14    15    ar
27    14    32    1
28    15    16    1
29    16    17    1
30    17    21    1
31    17    18    1
32    17    33    1
33    18    19    1
34    18    34    1
35    18    35    1
36    19    20    1
37    19    36    1
38    19    37    1
39    20    21    1
40    20    38    1
41    20    39    1
42    21    40    1
43    21    41    1
@<TRIPOS>SUBSTRUCTURE
1   ZINC000002000919 1     RESIDUE    1   A     ZIN   1
