@<TRIPOS>MOLECULE
ZINC000068249167
  33   35    0    0    0
SMALL
USER_CHARGES
NO_NAME
@<TRIPOS>ATOM
    1 N1       -0.0168     1.3876     0.0097 N.pl3  1 <0>      -0.8400
    2 C2        0.0021    -0.0041     0.0020 C.ar   1 <0>       0.4500
    3 N3       -1.1375    -0.6795     0.0038 N.ar   1 <0>      -0.5000
    4 C4       -1.1688    -2.0012    -0.0032 C.ar   1 <0>       0.0900
    5 C5       -2.4985    -2.7103    -0.0007 C.3    1 <0>       0.5300
    6 F6       -3.5288    -1.7696    -0.1056 F      1 <0>      -0.1600
    7 F7       -2.5593    -3.5914    -1.0857 F      1 <0>      -0.1700
    8 F8       -2.6420    -3.4281     1.1915 F      1 <0>      -0.1700
    9 C9       -0.0065    -2.7420    -0.0133 C.ar   1 <0>      -0.1600
   10 C10       1.2169    -2.0770    -0.0155 C.ar   1 <0>       0.1800
   11 C11       1.2185    -0.6812    -0.0132 C.ar   1 <0>      -0.0100
   12 N12       2.5533    -0.2816    -0.0158 N.am   1 <0>      -0.6300
   13 C13       3.3242    -1.3866    -0.0195 C.2    1 <0>       0.6800
   14 O14       4.5411    -1.3929    -0.0218 O.2    1 <0>      -0.5400
   15 N15       2.5421    -2.4835    -0.0240 N.am   1 <0>      -0.5200
   16 C16       3.0124    -3.8709    -0.0289 C.3    1 <0>       0.1700
   17 C17       3.1734    -4.3517     1.3902 C.ar   1 <0>      -0.1300
   18 C18       4.3793    -4.1828     2.0446 C.ar   1 <0>      -0.0900
   19 C19       4.5270    -4.6238     3.3464 C.ar   1 <0>      -0.1200
   20 C20       3.4687    -5.2334     3.9939 C.ar   1 <0>      -0.1100
   21 C21       2.2625    -5.4015     3.3398 C.ar   1 <0>      -0.1200
   22 C22       2.1135    -4.9566     2.0395 C.ar   1 <0>      -0.1000
   23 H23       0.8166     1.8839     0.0044 H      1 <0>       0.4100
   24 H24      -0.8633     1.8611     0.0163 H      1 <0>       0.4200
   25 H25      -0.0441    -3.8213    -0.0190 H      1 <0>       0.1500
   26 H26       2.8726     0.6344    -0.0150 H      1 <0>       0.4400
   27 H27       2.2864    -4.4989    -0.5451 H      1 <0>       0.1100
   28 H28       3.9721    -3.9274    -0.5427 H      1 <0>       0.1100
   29 H29       5.2062    -3.7065     1.5388 H      1 <0>       0.1300
   30 H30       5.4693    -4.4925     3.8574 H      1 <0>       0.1300
   31 H31       3.5843    -5.5787     5.0107 H      1 <0>       0.1200
   32 H32       1.4358    -5.8781     3.8455 H      1 <0>       0.1300
   33 H33       1.1712    -5.0880     1.5284 H      1 <0>       0.1200
@<TRIPOS>BOND
   1    1    2 1
   2    1   23 1
   3    1   24 1
   4    2   11 ar
   5    2    3 ar
   6    3    4 ar
   7    4    5 1
   8    4    9 ar
   9    5    6 1
  10    5    7 1
  11    5    8 1
  12    9   10 ar
  13    9   25 1
  14   10   15 1
  15   10   11 ar
  16   11   12 1
  17   12   13 am
  18   12   26 1
  19   13   14 2
  20   13   15 am
  21   15   16 1
  22   16   17 1
  23   16   27 1
  24   16   28 1
  25   17   22 ar
  26   17   18 ar
  27   18   19 ar
  28   18   29 1
  29   19   20 ar
  30   19   30 1
  31   20   21 ar
  32   20   31 1
  33   21   22 ar
  34   21   32 1
  35   22   33 1
