@<TRIPOS>MOLECULE
ZINC000009574816
114   118   1     0     0
SMALL
USER_CHARGES
@<TRIPOS>ATOM
1      C1      1.1685   -1.4905    0.3533 C.3      1 ZINC000009574816   -0.1500
2      C2      0.9840   -2.9257    0.8504 C.3      1 ZINC000009574816   -0.1400
3      C3      1.2391   -2.9801    2.3633 C.3      1 ZINC000009574816    0.1100
4      H4      2.2282   -2.5657    2.5733 H        1 ZINC000009574816    0.0900
5      O5      0.2255   -2.2158    3.0543 O.3      1 ZINC000009574816   -0.3100
6      C6      0.4580   -0.9257    3.3333 C.2      1 ZINC000009574816    0.4900
7      O7      1.4227   -0.3605    2.8742 O.2      1 ZINC000009574816   -0.5000
8      C8     -0.4971   -0.1876    4.2344 C.3      1 ZINC000009574816   -0.1200
9      H9     -1.1041   -0.9148    4.7777 H        1 ZINC000009574816    0.1400
10     C10    -1.4293    0.6705    3.3651 C.3      1 ZINC000009574816   -0.1500
11     C11     0.2354    0.7002    5.1969 C.2      1 ZINC000009574816    0.4000
12     O12     0.2873    1.8935    4.9758 O.2      1 ZINC000009574816   -0.4400
13     C13     0.9044    0.1739    6.4451 C.3      1 ZINC000009574816   -0.1300
14     H14     1.5014    1.0226    6.8472 H        1 ZINC000009574816    0.0900
15     C15     1.8959   -0.9160    6.0751 C.3      1 ZINC000009574816   -0.1900
16     C16    -0.1098   -0.1925    7.5011 C.3      1 ZINC000009574816    0.0900
17     H17    -0.1113    0.6371    8.2466 H        1 ZINC000009574816    0.0700
18     O18    -1.4317   -0.2013    6.9414 O.3      1 ZINC000009574816   -0.3500
19     C19    -2.2639    0.8663    7.3993 C.3      1 ZINC000009574816    0.2300
20     H20    -1.8089    1.8209    7.1349 H        1 ZINC000009574816    0.0600
21     O21    -2.4073    0.7837    8.8187 O.3      1 ZINC000009574816   -0.3900
22     C22    -3.2042    1.8252    9.3863 C.3      1 ZINC000009574816    0.1000
23     H23    -2.7618    2.7924    9.1479 H        1 ZINC000009574816    0.0600
24     C24    -3.2639    1.6519   10.9053 C.3      1 ZINC000009574816   -0.1400
25     C25    -4.6201    1.7551    8.8082 C.3      1 ZINC000009574816   -0.1900
26     C26    -4.5465    1.8692    7.2825 C.3      1 ZINC000009574816    0.0900
27     H27    -4.1342    2.8404    7.0089 H        1 ZINC000009574816    0.0900
28     N28    -5.8937    1.7294    6.7137 N.3      1 ZINC000009574816   -0.5200
29     C29    -6.5046    0.4549    7.1143 C.3      1 ZINC000009574816    0.0100
30     C30    -6.7459    2.8640    7.0935 C.3      1 ZINC000009574816    0.0200
31     C31    -3.6419    0.7578    6.7412 C.3      1 ZINC000009574816    0.1000
32     H32    -4.0800   -0.2132    6.9719 H        1 ZINC000009574816    0.0700
33     O33    -3.5089    0.8975    5.3253 O.3      1 ZINC000009574816   -0.5400
34     C34     0.1173   -1.4739    8.2848 C.3      1 ZINC000009574816    0.1300
35     C35    -0.6407   -1.3104    9.6325 C.3      1 ZINC000009574816   -0.1800
36     O36     1.4824   -1.6814    8.6198 O.3      1 ZINC000009574816   -0.3500
37     C37     2.0577   -0.6268    9.3937 C.3      1 ZINC000009574816    0.0800
38     C38     3.5160   -0.9195    9.6360 C.2      1 ZINC000009574816   -0.1400
39     C39     4.4194    0.0387    9.4805 C.2      1 ZINC000009574816   -0.1000
40     C40     5.8493   -0.2484    9.7181 C.ar     1 ZINC000009574816   -0.1100
41     C41     6.2587   -1.5366   10.1036 C.ar     1 ZINC000009574816    0.1400
42     N42     7.5180   -1.8183   10.3205 N.ar     1 ZINC000009574816   -0.4700
43     C43     8.4777   -0.8964   10.1867 C.ar     1 ZINC000009574816    0.1300
44     C44     9.8251   -1.2194   10.4239 C.ar     1 ZINC000009574816   -0.0900
45     C45    10.7849   -0.2651   10.2811 C.ar     1 ZINC000009574816   -0.1000
46     C46    10.4563    1.0350    9.9017 C.ar     1 ZINC000009574816   -0.1100
47     C47     9.1630    1.3865    9.6631 C.ar     1 ZINC000009574816   -0.1000
48     C48     8.1456    0.4269    9.8007 C.ar     1 ZINC000009574816   -0.1000
49     C49     6.8004    0.7514    9.5568 C.ar     1 ZINC000009574816   -0.0500
50     C50    -0.5031   -2.6704    7.5753 C.3      1 ZINC000009574816   -0.1000
51     C51     0.4668   -3.8273    7.3647 C.3      1 ZINC000009574816   -0.1300
52     H52     1.3861   -3.6810    7.9172 H        1 ZINC000009574816    0.1300
53     C53    -0.2140   -5.1151    7.8420 C.3      1 ZINC000009574816   -0.1500
54     C54     0.7530   -3.9426    5.8847 C.2      1 ZINC000009574816    0.3600
55     O55     0.3180   -3.0758    5.1591 O.2      1 ZINC000009574816   -0.4200
56     C56     1.5443   -5.0811    5.3066 C.3      1 ZINC000009574816   -0.1400
57     H57     0.9093   -5.9583    5.1851 H        1 ZINC000009574816    0.1200
58     C58     2.6795   -5.4462    6.2791 C.3      1 ZINC000009574816   -0.1500
59     C59     2.1756   -4.6808    3.9711 C.3      1 ZINC000009574816    0.1200
60     H60     2.7873   -3.7734    4.1318 H        1 ZINC000009574816    0.0900
61     N61     3.0697   -5.7499    3.4788 N.am     1 ZINC000009574816   -0.7300
62     C62     2.7750   -5.9918    2.1941 C.2      1 ZINC000009574816    0.6400
63     O63     3.3882   -6.7911    1.5125 O.2      1 ZINC000009574816   -0.5200
64     O64     1.7450   -5.2792    1.7287 O.3      1 ZINC000009574816   -0.3100
65     C65     1.2069   -4.4469    2.8130 C.3      1 ZINC000009574816    0.1200
66     C66    -0.2251   -4.8943    3.1005 C.3      1 ZINC000009574816   -0.1600
67     H67     2.1865   -1.1617    0.5622 H        1 ZINC000009574816    0.0600
68     H68     0.9874   -1.4519   -0.7208 H        1 ZINC000009574816    0.0600
69     H69     0.4630   -0.8355    0.8645 H        1 ZINC000009574816    0.0500
70     H70    -0.0339   -3.2546    0.6415 H        1 ZINC000009574816    0.0800
71     H71     1.6896   -3.5808    0.3392 H        1 ZINC000009574816    0.0900
72     H72    -2.1795    0.0327    2.8977 H        1 ZINC000009574816    0.0700
73     H73    -1.9234    1.4158    3.9884 H        1 ZINC000009574816    0.1000
74     H74    -0.8463    1.1718    2.5925 H        1 ZINC000009574816    0.0700
75     H75     2.7256   -0.4790    5.5194 H        1 ZINC000009574816    0.0500
76     H76     2.2742   -1.3865    6.9826 H        1 ZINC000009574816    0.1100
77     H77     1.3994   -1.6645    5.4576 H        1 ZINC000009574816    0.0900
78     H78    -2.2556    1.7010   11.3164 H        1 ZINC000009574816    0.0700
79     H79    -3.8718    2.4465   11.3380 H        1 ZINC000009574816    0.0700
80     H80    -3.7067    0.6849   11.1435 H        1 ZINC000009574816    0.0700
81     H81    -5.0781    0.8043    9.0807 H        1 ZINC000009574816    0.0800
82     H82    -5.2172    2.5755    9.2065 H        1 ZINC000009574816    0.0900
83     H83    -6.5779    0.4128    8.2010 H        1 ZINC000009574816    0.0300
84     H84    -7.5011    0.3772    6.6796 H        1 ZINC000009574816    0.0700
85     H85    -5.8880   -0.3710    6.7595 H        1 ZINC000009574816    0.0700
86     H86    -6.3220    3.7860    6.6955 H        1 ZINC000009574816    0.0700
87     H87    -7.7466    2.7190    6.6868 H        1 ZINC000009574816    0.0700
88     H88    -6.8012    2.9290    8.1802 H        1 ZINC000009574816    0.0300
89     H89    -3.0383    0.1673    4.9005 H        1 ZINC000009574816    0.3800
90     H90    -1.7020   -1.1577    9.4363 H        1 ZINC000009574816    0.0900
91     H91    -0.5083   -2.2090   10.2352 H        1 ZINC000009574816    0.0600
92     H92    -0.2433   -0.4500   10.1709 H        1 ZINC000009574816    0.0600
93     H93     1.9611    0.3149    8.8532 H        1 ZINC000009574816    0.0600
94     H94     1.5384   -0.5522   10.3491 H        1 ZINC000009574816    0.0700
95     H95     3.8253   -1.9097    9.9364 H        1 ZINC000009574816    0.1300
96     H96     4.1100    1.0289    9.1801 H        1 ZINC000009574816    0.1200
97     H97     5.5165   -2.3119   10.2240 H        1 ZINC000009574816    0.1600
98     H98    10.0978   -2.2219   10.7190 H        1 ZINC000009574816    0.1400
99     H99    11.8182   -0.5194   10.4652 H        1 ZINC000009574816    0.1300
100    H100   11.2376    1.7731    9.7961 H        1 ZINC000009574816    0.1300
101    H101    8.9202    2.3972    9.3699 H        1 ZINC000009574816    0.1300
102    H102    6.5141    1.7486    9.2567 H        1 ZINC000009574816    0.1400
103    H103   -1.3436   -3.0376    8.1847 H        1 ZINC000009574816    0.0800
104    H104   -0.9138   -2.3628    6.6131 H        1 ZINC000009574816    0.1100
105    H105   -1.1245   -5.2798    7.2659 H        1 ZINC000009574816    0.0600
106    H106    0.4628   -5.9577    7.7006 H        1 ZINC000009574816    0.0600
107    H107   -0.4643   -5.0235    8.8989 H        1 ZINC000009574816    0.0700
108    H108    2.2549   -5.7431    7.2382 H        1 ZINC000009574816    0.0800
109    H109    3.2592   -6.2722    5.8672 H        1 ZINC000009574816    0.0700
110    H110    3.3284   -4.5820    6.4210 H        1 ZINC000009574816    0.0700
111    H111    3.7669   -6.2004    3.9818 H        1 ZINC000009574816    0.4400
112    H112   -0.2279   -5.9491    3.3753 H        1 ZINC000009574816    0.0600
113    H113   -0.6324   -4.3040    3.9213 H        1 ZINC000009574816    0.1100
114    H114   -0.8368   -4.7492    2.2101 H        1 ZINC000009574816    0.0800
@<TRIPOS>BOND
1     1     2     1
2     1     67    1
3     1     68    1
4     1     69    1
5     2     3     1
6     2     70    1
7     2     71    1
8     3     4     1
9     3     65    1
10    3     5     1
11    5     6     1
12    6     7     2
13    6     8     1
14    8     9     1
15    8     10    1
16    8     11    1
17    10    72    1
18    10    73    1
19    10    74    1
20    11    12    2
21    11    13    1
22    13    14    1
23    13    15    1
24    13    16    1
25    15    75    1
26    15    76    1
27    15    77    1
28    16    17    1
29    16    18    1
30    16    34    1
31    18    19    1
32    19    20    1
33    19    31    1
34    19    21    1
35    21    22    1
36    22    23    1
37    22    24    1
38    22    25    1
39    24    78    1
40    24    79    1
41    24    80    1
42    25    26    1
43    25    81    1
44    25    82    1
45    26    27    1
46    26    28    1
47    26    31    1
48    28    29    1
49    28    30    1
50    29    83    1
51    29    84    1
52    29    85    1
53    30    86    1
54    30    87    1
55    30    88    1
56    31    32    1
57    31    33    1
58    33    89    1
59    34    35    1
60    34    36    1
61    34    50    1
62    35    90    1
63    35    91    1
64    35    92    1
65    36    37    1
66    37    38    1
67    37    93    1
68    37    94    1
69    38    39    2
70    38    95    1
71    39    40    1
72    39    96    1
73    40    49    ar
74    40    41    ar
75    41    42    ar
76    41    97    1
77    42    43    ar
78    43    48    ar
79    43    44    ar
80    44    45    ar
81    44    98    1
82    45    46    ar
83    45    99    1
84    46    47    ar
85    46    100   1
86    47    48    ar
87    47    101   1
88    48    49    ar
89    49    102   1
90    50    51    1
91    50    103   1
92    50    104   1
93    51    52    1
94    51    53    1
95    51    54    1
96    53    105   1
97    53    106   1
98    53    107   1
99    54    55    2
100   54    56    1
101   56    57    1
102   56    58    1
103   56    59    1
104   58    108   1
105   58    109   1
106   58    110   1
107   59    60    1
108   59    65    1
109   59    61    1
110   61    62    am
111   61    111   1
112   62    63    2
113   62    64    1
114   64    65    1
115   65    66    1
116   66    112   1
117   66    113   1
118   66    114   1
@<TRIPOS>SUBSTRUCTURE
1   ZINC000009574816 1     RESIDUE    1   A     ZIN   1
