@<TRIPOS>MOLECULE
ZINC000085537084
116   120   1     0     0
SMALL
USER_CHARGES
@<TRIPOS>ATOM
1      C1     -1.8999    0.4773   -1.4545 C.3      1 ZINC000085537084   -0.1600
2      C2     -1.3767   -0.9295   -1.1573 C.3      1 ZINC000085537084   -0.1000
3      C3     -0.2812   -0.8517   -0.0922 C.3      1 ZINC000085537084   -0.1500
4      C4     -2.5242   -1.8028   -0.6459 C.3      1 ZINC000085537084    0.1200
5      H5     -2.9352   -1.3691    0.2656 H        1 ZINC000085537084    0.1200
6      N6     -2.0231   -3.1640   -0.3645 N.am     1 ZINC000085537084   -0.7100
7      C7     -2.6506   -3.8431    0.6361 C.2      1 ZINC000085537084    0.5000
8      O8     -3.5662   -3.3328    1.2463 O.2      1 ZINC000085537084   -0.5100
9      C9     -2.1905   -5.2381    0.9729 C.3      1 ZINC000085537084    0.1300
10     H10    -1.3435   -5.1891    1.6572 H        1 ZINC000085537084    0.1100
11     C11    -1.7754   -5.9656   -0.3075 C.3      1 ZINC000085537084   -0.1500
12     C12    -1.4819   -7.4328    0.0120 C.3      1 ZINC000085537084   -0.1000
13     C13    -1.0667   -8.1604   -1.2684 C.3      1 ZINC000085537084   -0.1500
14     C14    -0.7732   -9.6276   -0.9490 C.3      1 ZINC000085537084   -0.0100
15     N15    -0.3747  -10.3261   -2.1783 N.4      1 ZINC000085537084   -0.6400
16     H16    -1.1225  -10.2720   -2.8534 H        1 ZINC000085537084    0.4400
17     H17     0.4534   -9.8924   -2.5581 H        1 ZINC000085537084    0.4400
18     H18    -0.1811  -11.2937   -1.9676 H        1 ZINC000085537084    0.4400
19     N19    -3.3124   -5.9605    1.6197 N.am     1 ZINC000085537084   -0.7100
20     C20    -4.1434   -6.6212    0.7560 C.2      1 ZINC000085537084    0.5100
21     O21    -3.9415   -6.5949   -0.4395 O.2      1 ZINC000085537084   -0.5100
22     C22    -5.3144   -7.3825    1.3220 C.3      1 ZINC000085537084    0.1400
23     H23    -4.9819   -8.3623    1.6648 H        1 ZINC000085537084    0.1100
24     C24    -5.9131   -6.6045    2.4955 C.3      1 ZINC000085537084   -0.0800
25     C25    -7.1327   -7.3269    3.0072 C.2      1 ZINC000085537084   -0.1600
26     C26    -8.4066   -7.0906    2.6561 C.2      1 ZINC000085537084    0.0500
27     N27    -9.2411   -7.9430    3.3263 N.pl3    1 ZINC000085537084   -0.6000
28     C28    -8.5058   -8.7698    4.1460 C.ar     1 ZINC000085537084    0.0900
29     C29    -8.8433   -9.7938    5.0246 C.ar     1 ZINC000085537084   -0.1300
30     C30    -7.8533  -10.4515    5.7216 C.ar     1 ZINC000085537084   -0.1000
31     C31    -6.5201  -10.1027    5.5564 C.ar     1 ZINC000085537084   -0.1400
32     C32    -6.1661   -9.0997    4.6984 C.ar     1 ZINC000085537084   -0.0800
33     C33    -7.1523   -8.4244    3.9773 C.ar     1 ZINC000085537084   -0.1000
34     N34    -6.3315   -7.5472    0.2629 N.am     1 ZINC000085537084   -0.7100
35     C35    -7.2735   -6.5670    0.1733 C.2      1 ZINC000085537084    0.5200
36     O36    -7.2546   -5.6237    0.9354 O.2      1 ZINC000085537084   -0.5000
37     C37    -8.3390   -6.6723   -0.8872 C.3      1 ZINC000085537084    0.1300
38     H38    -9.1489   -7.3087   -0.5306 H        1 ZINC000085537084    0.1100
39     C39    -7.7388   -7.2698   -2.1614 C.3      1 ZINC000085537084   -0.1300
40     C40    -8.8015   -7.3518   -3.2267 C.ar     1 ZINC000085537084   -0.0800
41     C41    -9.5852   -8.4859   -3.3338 C.ar     1 ZINC000085537084   -0.1100
42     C42   -10.5601   -8.5636   -4.3095 C.ar     1 ZINC000085537084   -0.1500
43     C43   -10.7528   -7.5023   -5.1820 C.ar     1 ZINC000085537084    0.1000
44     O44   -11.7115   -7.5762   -6.1424 O.3      1 ZINC000085537084   -0.5000
45     C45    -9.9654   -6.3654   -5.0721 C.ar     1 ZINC000085537084   -0.1500
46     C46    -8.9951   -6.2907   -4.0917 C.ar     1 ZINC000085537084   -0.1200
47     N47    -8.8602   -5.3125   -1.1673 N.am     1 ZINC000085537084   -0.7100
48     C48    -8.1740   -4.6218   -2.1290 C.2      1 ZINC000085537084    0.5200
49     O49    -7.2196   -5.1203   -2.6872 O.2      1 ZINC000085537084   -0.5000
50     C50    -8.6296   -3.2289   -2.4803 C.3      1 ZINC000085537084    0.1200
51     H51    -8.9378   -2.7061   -1.5749 H        1 ZINC000085537084    0.1200
52     C52    -9.8068   -3.3048   -3.4546 C.3      1 ZINC000085537084   -0.1600
53     N53    -7.5063   -2.5059   -3.1117 N.am     1 ZINC000085537084   -0.6000
54     C54    -7.2773   -2.5446   -4.5582 C.3      1 ZINC000085537084    0.0700
55     C55    -6.6956   -1.8009   -2.2740 C.2      1 ZINC000085537084    0.5100
56     O56    -6.9091   -1.7843   -1.0802 O.2      1 ZINC000085537084   -0.5100
57     C57    -5.5292   -1.0422   -2.8529 C.3      1 ZINC000085537084    0.1400
58     H58    -5.8644   -0.0653   -3.2014 H        1 ZINC000085537084    0.1100
59     C59    -4.9340   -1.8287   -4.0225 C.3      1 ZINC000085537084   -0.1700
60     C60    -3.7272   -1.1001   -4.5554 C.ar     1 ZINC000085537084   -0.0700
61     C61    -3.8745   -0.1593   -5.5574 C.ar     1 ZINC000085537084   -0.1200
62     C62    -2.7676    0.5090   -6.0462 C.ar     1 ZINC000085537084   -0.1200
63     C63    -1.5134    0.2367   -5.5327 C.ar     1 ZINC000085537084   -0.1300
64     C64    -1.3661   -0.7035   -4.5301 C.ar     1 ZINC000085537084   -0.1200
65     C65    -2.4736   -1.3687   -4.0383 C.ar     1 ZINC000085537084   -0.1400
66     N66    -4.5073   -0.8691   -1.7923 N.am     1 ZINC000085537084   -0.7100
67     C67    -3.6018   -1.8868   -1.6960 C.2      1 ZINC000085537084    0.5300
68     O68    -3.6616   -2.8414   -2.4416 O.2      1 ZINC000085537084   -0.5000
69     H69    -1.0824    1.0994   -1.8188 H        1 ZINC000085537084    0.0700
70     H70    -2.6804    0.4219   -2.2133 H        1 ZINC000085537084    0.0700
71     H71    -2.3095    0.9126   -0.5431 H        1 ZINC000085537084    0.0600
72     H72    -0.9671   -1.3649   -2.0688 H        1 ZINC000085537084    0.0900
73     H73    -0.6908   -0.4164    0.8193 H        1 ZINC000085537084    0.0600
74     H74     0.0915   -1.8539    0.1195 H        1 ZINC000085537084    0.0600
75     H75     0.5363   -0.2295   -0.4565 H        1 ZINC000085537084    0.0600
76     H76    -1.2883   -3.5527   -0.8645 H        1 ZINC000085537084    0.4100
77     H77    -2.5833   -5.9071   -1.0368 H        1 ZINC000085537084    0.1500
78     H78    -0.8808   -5.4971   -0.7178 H        1 ZINC000085537084    0.0600
79     H79    -0.6739   -7.4913    0.7413 H        1 ZINC000085537084    0.0700
80     H80    -2.3764   -7.9013    0.4223 H        1 ZINC000085537084    0.0700
81     H81    -1.8746   -8.1019   -1.9977 H        1 ZINC000085537084    0.0900
82     H82    -0.1722   -7.6919   -1.6787 H        1 ZINC000085537084    0.0900
83     H83     0.0347   -9.6861   -0.2196 H        1 ZINC000085537084    0.1300
84     H84    -1.6678  -10.0961   -0.5386 H        1 ZINC000085537084    0.1300
85     H85    -3.4467   -5.9646    2.5803 H        1 ZINC000085537084    0.4200
86     H86    -5.1752   -6.5266    3.2940 H        1 ZINC000085537084    0.0600
87     H87    -6.1953   -5.6055    2.1630 H        1 ZINC000085537084    0.1500
88     H88    -8.7256   -6.3387    1.9495 H        1 ZINC000085537084    0.1800
89     H89   -10.2068   -7.9621    3.2373 H        1 ZINC000085537084    0.4100
90     H90    -9.8780  -10.0723    5.1603 H        1 ZINC000085537084    0.1200
91     H91    -8.1174  -11.2461    6.4037 H        1 ZINC000085537084    0.1300
92     H92    -5.7564  -10.6280    6.1107 H        1 ZINC000085537084    0.1200
93     H93    -5.1267   -8.8338    4.5749 H        1 ZINC000085537084    0.1200
94     H94    -6.3285   -8.3106   -0.3355 H        1 ZINC000085537084    0.4100
95     H95    -6.9229   -6.6367   -2.5102 H        1 ZINC000085537084    0.1700
96     H96    -7.3584   -8.2691   -1.9499 H        1 ZINC000085537084    0.0600
97     H97    -9.4349   -9.3118   -2.6543 H        1 ZINC000085537084    0.1200
98     H98   -11.1716   -9.4499   -4.3932 H        1 ZINC000085537084    0.1300
99     H99   -12.5755   -7.2449   -5.8618 H        1 ZINC000085537084    0.3900
100    H100  -10.1132   -5.5380   -5.7504 H        1 ZINC000085537084    0.1200
101    H101   -8.3821   -5.4057   -4.0055 H        1 ZINC000085537084    0.1500
102    H102   -9.6280   -4.9416   -0.7050 H        1 ZINC000085537084    0.4200
103    H103  -10.6290   -3.8484   -2.9893 H        1 ZINC000085537084    0.0800
104    H104  -10.1348   -2.2965   -3.7074 H        1 ZINC000085537084    0.0800
105    H105   -9.4952   -3.8235   -4.3612 H        1 ZINC000085537084    0.0700
106    H106   -8.1696   -2.9226   -5.0572 H        1 ZINC000085537084    0.0800
107    H107   -7.0578   -1.5396   -4.9183 H        1 ZINC000085537084    0.0800
108    H108   -6.4343   -3.2006   -4.7751 H        1 ZINC000085537084    0.0800
109    H109   -4.6379   -2.8203   -3.6803 H        1 ZINC000085537084    0.1600
110    H110   -5.6788   -1.9243   -4.8126 H        1 ZINC000085537084    0.1100
111    H111   -4.8545    0.0534   -5.9586 H        1 ZINC000085537084    0.1200
112    H112   -2.8826    1.2436   -6.8295 H        1 ZINC000085537084    0.1200
113    H113   -0.6484    0.7584   -5.9151 H        1 ZINC000085537084    0.1200
114    H114   -0.3862   -0.9164   -4.1292 H        1 ZINC000085537084    0.1100
115    H115   -2.3586   -2.1032   -3.2550 H        1 ZINC000085537084    0.1500
116    H116   -4.4835   -0.0929   -1.2111 H        1 ZINC000085537084    0.4200
@<TRIPOS>BOND
1     1     2     1
2     1     69    1
3     1     70    1
4     1     71    1
5     2     3     1
6     2     4     1
7     2     72    1
8     3     73    1
9     3     74    1
10    3     75    1
11    4     5     1
12    4     67    1
13    4     6     1
14    6     7     am
15    6     76    1
16    7     8     2
17    7     9     1
18    9     10    1
19    9     11    1
20    9     19    1
21    11    12    1
22    11    77    1
23    11    78    1
24    12    13    1
25    12    79    1
26    12    80    1
27    13    14    1
28    13    81    1
29    13    82    1
30    14    15    1
31    14    83    1
32    14    84    1
33    15    16    1
34    15    17    1
35    15    18    1
36    19    20    am
37    19    85    1
38    20    21    2
39    20    22    1
40    22    23    1
41    22    24    1
42    22    34    1
43    24    25    1
44    24    86    1
45    24    87    1
46    25    33    1
47    25    26    2
48    26    27    1
49    26    88    1
50    27    28    1
51    27    89    1
52    28    33    ar
53    28    29    ar
54    29    30    ar
55    29    90    1
56    30    31    ar
57    30    91    1
58    31    32    ar
59    31    92    1
60    32    33    ar
61    32    93    1
62    34    35    am
63    34    94    1
64    35    36    2
65    35    37    1
66    37    38    1
67    37    39    1
68    37    47    1
69    39    40    1
70    39    95    1
71    39    96    1
72    40    46    ar
73    40    41    ar
74    41    42    ar
75    41    97    1
76    42    43    ar
77    42    98    1
78    43    44    1
79    43    45    ar
80    44    99    1
81    45    46    ar
82    45    100   1
83    46    101   1
84    47    48    am
85    47    102   1
86    48    49    2
87    48    50    1
88    50    51    1
89    50    52    1
90    50    53    1
91    52    103   1
92    52    104   1
93    52    105   1
94    53    54    1
95    53    55    am
96    54    106   1
97    54    107   1
98    54    108   1
99    55    56    2
100   55    57    1
101   57    58    1
102   57    59    1
103   57    66    1
104   59    60    1
105   59    109   1
106   59    110   1
107   60    65    ar
108   60    61    ar
109   61    62    ar
110   61    111   1
111   62    63    ar
112   62    112   1
113   63    64    ar
114   63    113   1
115   64    65    ar
116   64    114   1
117   65    115   1
118   66    67    am
119   66    116   1
120   67    68    2
@<TRIPOS>SUBSTRUCTURE
1   ZINC000085537084 1     RESIDUE    1   A     ZIN   1
