@<TRIPOS>MOLECULE
ZINC000034278843
33    35    1     0     0
SMALL
USER_CHARGES
@<TRIPOS>ATOM
1      C1      2.2392    1.4901    0.2835 C.ar     1 ZINC000034278843   -0.1700
2      C2      1.0184    2.0645   -0.0150 C.ar     1 ZINC000034278843    0.0900
3      N3     -0.0296    1.3144   -0.2954 N.ar     1 ZINC000034278843   -0.4800
4      C4      0.0422   -0.0022   -0.3028 C.ar     1 ZINC000034278843    0.1100
5      C5      1.2300   -0.6472   -0.0136 C.ar     1 ZINC000034278843   -0.1200
6      C6      1.3030   -2.1524   -0.0234 C.3      1 ZINC000034278843    0.1400
7      H7      0.3250   -2.5576   -0.2828 H        1 ZINC000034278843    0.0900
8      C8      1.6982   -2.6441    1.3610 C.3      1 ZINC000034278843   -0.1500
9      C9      1.7309   -4.1702    1.4447 C.3      1 ZINC000034278843   -0.1200
10     C10     2.8204   -4.7000    0.5093 C.3      1 ZINC000034278843   -0.0800
11     C11     3.9447   -3.6826    0.4302 C.3      1 ZINC000034278843   -0.1500
12     C12     3.6707   -2.6111   -0.6121 C.3      1 ZINC000034278843    0.0700
13     N13     2.2882   -2.5835   -1.0273 N.3      1 ZINC000034278843   -0.5500
14     C14     1.8436   -3.8309   -1.6639 C.3      1 ZINC000034278843    0.0700
15     C15     2.2275   -5.0479   -0.8488 C.3      1 ZINC000034278843   -0.1400
16     C16     2.3533    0.1081    0.2855 C.ar     1 ZINC000034278843   -0.0700
17     H17     3.0948    2.1098    0.5079 H        1 ZINC000034278843    0.1300
18     H18     0.9211    3.1401   -0.0183 H        1 ZINC000034278843    0.1500
19     H19    -0.8374   -0.5833   -0.5372 H        1 ZINC000034278843    0.1500
20     H20     2.6867   -2.2552    1.6056 H        1 ZINC000034278843    0.0700
21     H21     0.9809   -2.2653    2.0890 H        1 ZINC000034278843    0.0700
22     H22     1.9498   -4.4744    2.4683 H        1 ZINC000034278843    0.0700
23     H23     0.7640   -4.5726    1.1427 H        1 ZINC000034278843    0.0700
24     H24     3.2292   -5.6111    0.9461 H        1 ZINC000034278843    0.0700
25     H25     4.0622   -3.2077    1.4042 H        1 ZINC000034278843    0.0700
26     H26     4.8709   -4.1971    0.1744 H        1 ZINC000034278843    0.0600
27     H27     3.9328   -1.6387   -0.1952 H        1 ZINC000034278843    0.0700
28     H28     4.2972   -2.7991   -1.4839 H        1 ZINC000034278843    0.0700
29     H29     0.7595   -3.8060   -1.7750 H        1 ZINC000034278843    0.0700
30     H30     2.2985   -3.9073   -2.6515 H        1 ZINC000034278843    0.0700
31     H31     2.9581   -5.6293   -1.4113 H        1 ZINC000034278843    0.0600
32     H32     1.3393   -5.6610   -0.6961 H        1 ZINC000034278843    0.0700
33     H33     3.2949   -0.3685    0.5151 H        1 ZINC000034278843    0.1300
@<TRIPOS>BOND
1     1     16    ar
2     1     2     ar
3     1     17    1
4     2     3     ar
5     2     18    1
6     3     4     ar
7     4     5     ar
8     4     19    1
9     5     6     1
10    5     16    ar
11    6     7     1
12    6     13    1
13    6     8     1
14    8     9     1
15    8     20    1
16    8     21    1
17    9     10    1
18    9     22    1
19    9     23    1
20    10    15    1
21    10    11    1
22    10    24    1
23    11    12    1
24    11    25    1
25    11    26    1
26    12    13    1
27    12    27    1
28    12    28    1
29    13    14    1
30    14    15    1
31    14    29    1
32    14    30    1
33    15    31    1
34    15    32    1
35    16    33    1
@<TRIPOS>SUBSTRUCTURE
1   ZINC000034278843 1     RESIDUE    1   A     ZIN   1
