@<TRIPOS>MOLECULE
ZINC000019537374
41    44    1     0     0
SMALL
USER_CHARGES
@<TRIPOS>ATOM
1      C1     -0.0167    1.3818    0.0096 C.ar     1 ZINC000019537374   -0.2400
2      C2      1.1915    2.0609    0.0017 C.ar     1 ZINC000019537374    0.1800
3      N3      2.3197    1.3705   -0.0127 N.ar     1 ZINC000019537374   -0.5200
4      C4      2.3029    0.0457   -0.0197 C.ar     1 ZINC000019537374    0.4700
5      N5      3.5022   -0.6451   -0.0348 N.3      1 ZINC000019537374   -0.4600
6      C6      4.3276   -0.2421   -1.1822 C.3      1 ZINC000019537374    0.0400
7      C7      5.6656   -0.9829   -1.1293 C.3      1 ZINC000019537374    0.0000
8      N8      5.4251   -2.4315   -1.1619 N.4      1 ZINC000019537374   -0.3900
9      H9      4.9302   -2.6711   -2.0080 H        1 ZINC000019537374    0.4200
10     C10     6.7105   -3.1419   -1.1290 C.3      1 ZINC000019537374    0.0500
11     C11     6.4709   -4.6214   -1.2861 C.ar     1 ZINC000019537374   -0.1600
12     C12     6.2638   -5.4088   -0.1693 C.ar     1 ZINC000019537374   -0.0800
13     C13     6.0435   -6.7669   -0.3082 C.ar     1 ZINC000019537374   -0.1000
14     C14     6.0306   -7.3416   -1.5683 C.ar     1 ZINC000019537374    0.0700
15     O15     5.8406   -8.6313   -1.9732 O.3      1 ZINC000019537374   -0.3000
16     C16     5.5289   -8.5517   -3.3766 C.3      1 ZINC000019537374    0.2100
17     O17     6.1802   -7.3406   -3.8037 O.3      1 ZINC000019537374   -0.3000
18     C18     6.2395   -6.5479   -2.6940 C.ar     1 ZINC000019537374    0.0400
19     C19     6.4533   -5.1874   -2.5477 C.ar     1 ZINC000019537374   -0.0800
20     C20     4.6204   -2.8224    0.0030 C.3      1 ZINC000019537374   -0.0100
21     C21     3.2737   -2.0969   -0.0405 C.3      1 ZINC000019537374    0.0400
22     N22     1.1654   -0.6335   -0.0120 N.ar     1 ZINC000019537374   -0.5500
23     C23     0.0021   -0.0041    0.0020 C.ar     1 ZINC000019537374    0.1800
24     H24    -0.9525    1.9208    0.0259 H        1 ZINC000019537374    0.1600
25     H25     1.2116    3.1407    0.0070 H        1 ZINC000019537374    0.1800
26     H26     3.8099   -0.4920   -2.1083 H        1 ZINC000019537374    0.0700
27     H27     4.5051    0.8326   -1.1429 H        1 ZINC000019537374    0.1400
28     H28     6.2738   -0.6961   -1.9872 H        1 ZINC000019537374    0.1400
29     H29     6.1891   -0.7222   -0.2095 H        1 ZINC000019537374    0.1400
30     H30     7.3423   -2.7876   -1.9435 H        1 ZINC000019537374    0.1400
31     H31     7.2057   -2.9531   -0.1765 H        1 ZINC000019537374    0.1400
32     H32     6.2743   -4.9625    0.8141 H        1 ZINC000019537374    0.1500
33     H33     5.8818   -7.3797    0.5662 H        1 ZINC000019537374    0.1500
34     H34     5.9343   -9.4125   -3.9084 H        1 ZINC000019537374    0.1400
35     H35     4.4516   -8.4804   -3.5263 H        1 ZINC000019537374    0.1000
36     H36     6.6096   -4.5687   -3.4190 H        1 ZINC000019537374    0.1400
37     H37     4.4536   -3.8994   -0.0154 H        1 ZINC000019537374    0.1400
38     H38     5.1492   -2.5522    0.9170 H        1 ZINC000019537374    0.1400
39     H39     2.6823   -2.3754    0.8318 H        1 ZINC000019537374    0.1300
40     H40     2.7386   -2.3774   -0.9477 H        1 ZINC000019537374    0.0800
41     H41    -0.9219   -0.5632    0.0086 H        1 ZINC000019537374    0.1800
@<TRIPOS>BOND
1     1     23    ar
2     1     2     ar
3     1     24    1
4     2     3     ar
5     2     25    1
6     3     4     ar
7     4     5     1
8     4     22    ar
9     5     21    1
10    5     6     1
11    6     7     1
12    6     26    1
13    6     27    1
14    7     8     1
15    7     28    1
16    7     29    1
17    8     9     1
18    8     10    1
19    8     20    1
20    10    11    1
21    10    30    1
22    10    31    1
23    11    19    ar
24    11    12    ar
25    12    13    ar
26    12    32    1
27    13    14    ar
28    13    33    1
29    14    18    ar
30    14    15    1
31    15    16    1
32    16    17    1
33    16    34    1
34    16    35    1
35    17    18    1
36    18    19    ar
37    19    36    1
38    20    21    1
39    20    37    1
40    20    38    1
41    21    39    1
42    21    40    1
43    22    23    ar
44    23    41    1
@<TRIPOS>SUBSTRUCTURE
1   ZINC000019537374 1     RESIDUE    1   A     ZIN   1
