@<TRIPOS>MOLECULE
ZINC000255992360
43    45    1     0     0
SMALL
USER_CHARGES
@<TRIPOS>ATOM
1      C1      0.7495    0.0094    1.9393 C.2      1 ZINC000255992360   -0.2400
2      C2      0.9214   -1.2960    1.7166 C.2      1 ZINC000255992360   -0.0600
3      C3      2.2243   -1.7983    1.2858 C.2      1 ZINC000255992360   -0.2000
4      C4      2.3443   -3.1392    1.1897 C.2      1 ZINC000255992360    0.1600
5      C5      1.2325   -4.0048    1.5865 C.2      1 ZINC000255992360    0.5300
6      O6      0.4421   -4.4115    0.7439 O.co2    1 ZINC000255992360   -0.6600
7      O7      1.0926   -4.3223    2.7611 O.co2    1 ZINC000255992360   -0.6700
8      N8      3.5326   -3.7008    0.7100 N.am     1 ZINC000255992360   -0.5500
9      C9      4.0236   -4.7786    0.1105 C.2      1 ZINC000255992360    0.5200
10     O10     3.6008   -5.9097   -0.0039 O.2      1 ZINC000255992360   -0.4600
11     C11     5.2888   -4.1150   -0.3806 C.3      1 ZINC000255992360    0.1400
12     H12     6.2060   -4.6388   -0.1116 H        1 ZINC000255992360    0.1600
13     N13     5.2475   -3.6958   -1.7837 N.am     1 ZINC000255992360   -0.6900
14     C14     5.9077   -4.4067   -2.7192 C.2      1 ZINC000255992360    0.5900
15     O15     6.5373   -5.3954   -2.3988 O.2      1 ZINC000255992360   -0.4800
16     C16     5.8659   -3.9827   -4.1385 C.2      1 ZINC000255992360    0.1600
17     N17     5.1908   -2.9226   -4.4820 N.2      1 ZINC000255992360   -0.2900
18     O18     5.0472   -2.5873   -5.8502 O.3      1 ZINC000255992360   -0.1700
19     C19     4.2837   -1.4016   -6.0811 C.3      1 ZINC000255992360   -0.0100
20     C20     4.1956   -1.1414   -7.5628 C.2      1 ZINC000255992360    0.5100
21     O21     4.7365   -1.9009   -8.3484 O.co2    1 ZINC000255992360   -0.6800
22     O22     3.5834   -0.1714   -7.9761 O.co2    1 ZINC000255992360   -0.6800
23     C23     6.5902   -4.7627   -5.1648 C.2      1 ZINC000255992360    0.0900
24     C24     6.6818   -4.3594   -6.4473 C.2      1 ZINC000255992360   -0.2000
25     S25     7.6185   -5.5568   -7.3377 S.3      1 ZINC000255992360    0.0500
26     C26     7.8039   -6.5099   -5.8690 C.2      1 ZINC000255992360    0.3300
27     N27     8.4891   -7.7097   -5.7763 N.pl3    1 ZINC000255992360   -0.8200
28     N28     7.2047   -5.9130   -4.8866 N.2      1 ZINC000255992360   -0.4900
29     C29     4.8647   -3.0435    0.6084 C.3      1 ZINC000255992360    0.1100
30     H30     5.4392   -3.0308    1.5346 H        1 ZINC000255992360    0.1400
31     S31     4.5881   -1.3872   -0.1035 S.3      1 ZINC000255992360   -0.2300
32     C32     3.2665   -0.7677    0.9973 C.3      1 ZINC000255992360   -0.0100
33     H33     1.5733    0.6939    1.8010 H        1 ZINC000255992360    0.0900
34     H34    -0.2146    0.3812    2.2534 H        1 ZINC000255992360    0.1000
35     H35     0.0975   -1.9805    1.8549 H        1 ZINC000255992360    0.1200
36     H36     4.7449   -2.9065   -2.0395 H        1 ZINC000255992360    0.4200
37     H37     3.2806   -1.5306   -5.6745 H        1 ZINC000255992360    0.0600
38     H38     4.7682   -0.5566   -5.5919 H        1 ZINC000255992360    0.0600
39     H39     6.2538   -3.4572   -6.8589 H        1 ZINC000255992360    0.2200
40     H40     8.9140   -8.0875   -6.5621 H        1 ZINC000255992360    0.4100
41     H41     8.5441   -8.1723   -4.9255 H        1 ZINC000255992360    0.4100
42     H42     2.8015    0.1036    0.5361 H        1 ZINC000255992360    0.1200
43     H43     3.7088   -0.4691    1.9477 H        1 ZINC000255992360    0.0900
@<TRIPOS>BOND
1     1     2     2
2     1     33    1
3     1     34    1
4     2     3     1
5     2     35    1
6     3     32    1
7     3     4     2
8     4     5     1
9     4     8     1
10    5     6     ar
11    5     7     ar
12    8     29    1
13    8     9     am
14    9     10    2
15    9     11    1
16    11    12    1
17    11    13    1
18    11    29    1
19    13    14    am
20    13    36    1
21    14    15    2
22    14    16    1
23    16    17    2
24    16    23    1
25    17    18    1
26    18    19    1
27    19    20    1
28    19    37    1
29    19    38    1
30    20    21    ar
31    20    22    ar
32    23    28    1
33    23    24    2
34    24    25    1
35    24    39    1
36    25    26    1
37    26    27    1
38    26    28    2
39    27    40    1
40    27    41    1
41    29    30    1
42    29    31    1
43    31    32    1
44    32    42    1
45    32    43    1
@<TRIPOS>SUBSTRUCTURE
1   ZINC000255992360 1     RESIDUE    1   A     ZIN   1
