@<TRIPOS>MOLECULE
ZINC000000007525
45    48    1     0     0
SMALL
USER_CHARGES
@<TRIPOS>ATOM
1      F1      0.0021   -0.0041    0.0020 F        1 ZINC000000007525   -0.1300
2      C2     -0.0162    1.3468    0.0094 C.ar     1 ZINC000000007525    0.1200
3      C3     -1.2242    2.0232    0.0304 C.ar     1 ZINC000000007525   -0.1500
4      C4     -1.2417    3.4050    0.0379 C.ar     1 ZINC000000007525   -0.0800
5      C5     -0.0538    4.1120    0.0246 C.ar     1 ZINC000000007525   -0.1200
6      C6     -0.0742    5.6188    0.0333 C.3      1 ZINC000000007525   -0.0500
7      H7     -1.1062    5.9693    0.0503 H        1 ZINC000000007525    0.1000
8      C8      0.6620    6.1338    1.2735 C.3      1 ZINC000000007525   -0.1400
9      C9      0.7066    7.6628    1.2352 C.3      1 ZINC000000007525   -0.0100
10     N10     1.4123    8.1053    0.0266 N.4      1 ZINC000000007525   -0.5100
11     H11     1.4868    9.1115    0.0312 H        1 ZINC000000007525    0.4400
12     H12     2.3365    7.7006    0.0109 H        1 ZINC000000007525    0.4300
13     C13     0.6733    7.6763   -1.1668 C.3      1 ZINC000000007525   -0.0100
14     C14     0.6256    6.1477   -1.2220 C.3      1 ZINC000000007525   -0.1000
15     H15     1.6408    5.7532   -1.2642 H        1 ZINC000000007525    0.1100
16     C16    -0.1467    5.7052   -2.4664 C.3      1 ZINC000000007525    0.0600
17     O17     0.5689    6.1033   -3.6376 O.3      1 ZINC000000007525   -0.3100
18     C18     0.0148    5.7842   -4.8377 C.ar     1 ZINC000000007525    0.1300
19     C19    -1.1945    5.1076   -4.8848 C.ar     1 ZINC000000007525   -0.2000
20     C20    -1.7595    4.7818   -6.1039 C.ar     1 ZINC000000007525   -0.0600
21     C21    -1.1194    5.1307   -7.2814 C.ar     1 ZINC000000007525    0.0100
22     O22    -1.4588    4.9303   -8.5893 O.3      1 ZINC000000007525   -0.3000
23     C23    -0.6472    5.8510   -9.3422 C.3      1 ZINC000000007525    0.2100
24     O24     0.5168    6.0362   -8.5153 O.3      1 ZINC000000007525   -0.3000
25     C25     0.0955    5.8108   -7.2366 C.ar     1 ZINC000000007525    0.0800
26     C26     0.6569    6.1407   -6.0143 C.ar     1 ZINC000000007525   -0.1300
27     C27     1.1529    3.4377    0.0037 C.ar     1 ZINC000000007525   -0.0800
28     C28     1.1730    2.0559    0.0019 C.ar     1 ZINC000000007525   -0.1500
29     H29    -2.1524    1.4711    0.0405 H        1 ZINC000000007525    0.1400
30     H30    -2.1838    3.9329    0.0539 H        1 ZINC000000007525    0.1400
31     H31     0.1360    5.8073    2.1707 H        1 ZINC000000007525    0.1200
32     H32     1.6783    5.7401    1.2831 H        1 ZINC000000007525    0.0900
33     H33    -0.3102    8.0554    1.2259 H        1 ZINC000000007525    0.1300
34     H34     1.2299    8.0328    2.1169 H        1 ZINC000000007525    0.1400
35     H35    -0.3428    8.0686   -1.1249 H        1 ZINC000000007525    0.1300
36     H36     1.1720    8.0562   -2.0585 H        1 ZINC000000007525    0.1400
37     H37    -0.2570    4.6209   -2.4591 H        1 ZINC000000007525    0.0900
38     H38    -1.1323    6.1708   -2.4670 H        1 ZINC000000007525    0.0800
39     H39    -1.6957    4.8344   -3.9679 H        1 ZINC000000007525    0.1400
40     H40    -2.7013    4.2543   -6.1380 H        1 ZINC000000007525    0.1400
41     H41    -0.3693    5.4188  -10.3035 H        1 ZINC000000007525    0.1400
42     H42    -1.1712    6.7964   -9.4833 H        1 ZINC000000007525    0.0900
43     H43     1.5957    6.6732   -5.9773 H        1 ZINC000000007525    0.1400
44     H44     2.0803    3.9910   -0.0071 H        1 ZINC000000007525    0.1300
45     H45     2.1158    1.5293   -0.0145 H        1 ZINC000000007525    0.1400
@<TRIPOS>BOND
1     1     2     1
2     2     28    ar
3     2     3     ar
4     3     4     ar
5     3     29    1
6     4     5     ar
7     4     30    1
8     5     6     1
9     5     27    ar
10    6     7     1
11    6     14    1
12    6     8     1
13    8     9     1
14    8     31    1
15    8     32    1
16    9     10    1
17    9     33    1
18    9     34    1
19    10    11    1
20    10    12    1
21    10    13    1
22    13    14    1
23    13    35    1
24    13    36    1
25    14    15    1
26    14    16    1
27    16    17    1
28    16    37    1
29    16    38    1
30    17    18    1
31    18    26    ar
32    18    19    ar
33    19    20    ar
34    19    39    1
35    20    21    ar
36    20    40    1
37    21    25    ar
38    21    22    1
39    22    23    1
40    23    24    1
41    23    41    1
42    23    42    1
43    24    25    1
44    25    26    ar
45    26    43    1
46    27    28    ar
47    27    44    1
48    28    45    1
@<TRIPOS>SUBSTRUCTURE
1   ZINC000000007525 1     RESIDUE    1   A     ZIN   1
