@<TRIPOS>MOLECULE
ZINC000001622055
15    14    1     0     0
SMALL
USER_CHARGES
@<TRIPOS>ATOM
1      C1     -0.0187    1.5258    0.0104 C.3      1 ZINC000001622055   -0.1500
2      C2      0.0021   -0.0041    0.0020 C.3      1 ZINC000001622055   -0.1200
3      C3      0.7182   -0.4975   -1.2568 C.3      1 ZINC000001622055    0.1000
4      H4      1.7103   -0.0491   -1.3098 H        1 ZINC000001622055    0.0500
5      C5      0.8493   -2.0210   -1.2049 C.3      1 ZINC000001622055   -0.1900
6      O6     -0.0359   -0.1233   -2.4115 O.3      1 ZINC000001622055   -0.5700
7      H7      1.0039    1.9031    0.0027 H        1 ZINC000001622055    0.0500
8      H8     -0.5459    1.8868   -0.8726 H        1 ZINC000001622055    0.0600
9      H9     -0.5289    1.8773    0.9072 H        1 ZINC000001622055    0.0500
10     H10     0.5293   -0.3651    0.8851 H        1 ZINC000001622055    0.0700
11     H11    -1.0205   -0.3814    0.0098 H        1 ZINC000001622055    0.0700
12     H12    -0.1428   -2.4694   -1.1520 H        1 ZINC000001622055    0.0600
13     H13     1.3594   -2.3725   -2.1017 H        1 ZINC000001622055    0.0600
14     H14     1.4245   -2.3064   -0.3242 H        1 ZINC000001622055    0.0700
15     H15     0.3599   -0.4042   -3.2478 H        1 ZINC000001622055    0.3800
@<TRIPOS>BOND
1     1     2     1
2     1     7     1
3     1     8     1
4     1     9     1
5     2     3     1
6     2     10    1
7     2     11    1
8     3     4     1
9     3     5     1
10    3     6     1
11    5     12    1
12    5     13    1
13    5     14    1
14    6     15    1
@<TRIPOS>SUBSTRUCTURE
1   ZINC000001622055 1     RESIDUE    1   A     ZIN   1
