@<TRIPOS>MOLECULE
ZINC000000597368
  50   53    0    0    0
SMALL
USER_CHARGES
NO_NAME
@<TRIPOS>ATOM
    1 C1       -0.0173     1.4248     0.0099 C.3    1 <0>       0.0300
    2 O2        0.0021    -0.0041     0.0020 O.3    1 <0>      -0.3200
    3 C3        0.6058    -0.6071    -1.0557 C.ar   1 <0>       0.1300
    4 C4        1.1735     0.1588    -2.0633 C.ar   1 <0>      -0.2100
    5 C5        1.7871    -0.4607    -3.1324 C.ar   1 <0>      -0.0700
    6 C6        1.8389    -1.8450    -3.2082 C.ar   1 <0>      -0.1100
    7 C7        1.2712    -2.6084    -2.2090 C.ar   1 <0>      -0.0200
    8 C8        0.6619    -1.9896    -1.1295 C.ar   1 <0>      -0.1500
    9 C9        1.2913    -4.1147    -2.2553 C.3    1 <0>      -0.0800
   10 C10       2.3384    -4.5946    -3.2609 C.3    1 <0>       0.0600
   11 N11       2.1335    -3.8788    -4.5278 N.3    1 <0>      -0.5300
   12 C12       2.8550    -4.5257    -5.6303 C.3    1 <0>       0.0600
   13 C13       2.5046    -3.8318    -6.9471 C.3    1 <0>      -0.0900
   14 H14       3.0612    -4.2967    -7.7608 H      1 <0>       0.0800
   15 C15       1.0049    -3.9636    -7.2168 C.3    1 <0>      -0.1000
   16 C16       0.6661    -3.3062    -8.5568 C.3    1 <0>      -0.1300
   17 C17       1.0226    -1.8177    -8.4967 C.3    1 <0>       0.1200
   18 N18       2.4298    -1.6829    -8.0961 N.am   1 <0>      -0.9900
   19 S19       3.4889    -0.7999    -9.0130 S.o2   1 <0>       2.6100
   20 C20       3.3777     0.8811    -8.3402 C.3    1 <0>      -0.6700
   21 O21       4.7592    -1.3686    -8.7264 O.2    1 <0>      -0.9500
   22 O22       2.9431    -0.8493   -10.3241 O.2    1 <0>      -0.9500
   23 C23       2.8724    -2.3473    -6.8619 C.3    1 <0>       0.1500
   24 H24       3.9527    -2.2472    -6.7569 H      1 <0>       0.1000
   25 C25       2.1733    -1.6900    -5.6681 C.3    1 <0>      -0.1200
   26 C26       2.5238    -2.4730    -4.3925 C.3    1 <0>       0.1400
   27 H27       3.6033    -2.4513    -4.2433 H      1 <0>       0.0500
   28 H28       1.0053     1.8021     0.0021 H      1 <0>       0.0600
   29 H29      -0.5445     1.7859    -0.8732 H      1 <0>       0.0600
   30 H30      -0.5275     1.7763     0.9067 H      1 <0>       0.1000
   31 H31       1.1351     1.2368    -2.0111 H      1 <0>       0.1300
   32 H32       2.2298     0.1361    -3.9161 H      1 <0>       0.1200
   33 H33       0.2215    -2.5879    -0.3456 H      1 <0>       0.1300
   34 H34       1.5346    -4.5036    -1.2666 H      1 <0>       0.0800
   35 H35       0.3089    -4.4804    -2.5540 H      1 <0>       0.0900
   36 H36       3.3369    -4.3832    -2.8784 H      1 <0>       0.0400
   37 H37       2.2252    -5.6664    -3.4236 H      1 <0>       0.0800
   38 H38       3.9283    -4.4516    -5.4551 H      1 <0>       0.0400
   39 H39       2.5679    -5.5758    -5.6856 H      1 <0>       0.0800
   40 H40       0.7335    -5.0187    -7.2511 H      1 <0>       0.0600
   41 H41       0.4479    -3.4713    -6.4196 H      1 <0>       0.0800
   42 H42       1.2376    -3.7852    -9.3517 H      1 <0>       0.0700
   43 H43      -0.3996    -3.4171    -8.7571 H      1 <0>       0.0700
   44 H44       0.8777    -1.3675    -9.4788 H      1 <0>       0.0900
   45 H45       0.3855    -1.3187    -7.7665 H      1 <0>       0.0700
   46 H46       3.6612     0.8707    -7.2878 H      1 <0>       0.1300
   47 H47       4.0504     1.5383    -8.8913 H      1 <0>       0.1300
   48 H48       2.3546     1.2443    -8.4373 H      1 <0>       0.1300
   49 H49       2.4973    -0.6528    -5.5826 H      1 <0>       0.0700
   50 H50       1.0937    -1.7236    -5.8150 H      1 <0>       0.0900
@<TRIPOS>BOND
   1    1    2 1
   2    1   28 1
   3    1   29 1
   4    1   30 1
   5    2    3 1
   6    3    8 ar
   7    3    4 ar
   8    4    5 ar
   9    4   31 1
  10    5    6 ar
  11    5   32 1
  12    6   26 1
  13    6    7 ar
  14    7    8 ar
  15    7    9 1
  16    8   33 1
  17    9   10 1
  18    9   34 1
  19    9   35 1
  20   10   11 1
  21   10   36 1
  22   10   37 1
  23   11   26 1
  24   11   12 1
  25   12   13 1
  26   12   38 1
  27   12   39 1
  28   13   14 1
  29   13   23 1
  30   13   15 1
  31   15   16 1
  32   15   40 1
  33   15   41 1
  34   16   17 1
  35   16   42 1
  36   16   43 1
  37   17   18 1
  38   17   44 1
  39   17   45 1
  40   18   19 am
  41   18   23 1
  42   19   20 1
  43   19   21 2
  44   19   22 2
  45   20   46 1
  46   20   47 1
  47   20   48 1
  48   23   24 1
  49   23   25 1
  50   25   26 1
  51   25   49 1
  52   25   50 1
  53   26   27 1
