@<TRIPOS>MOLECULE
ZINC000059241034
  48   50    0    0    0
SMALL
USER_CHARGES
NO_NAME
@<TRIPOS>ATOM
    1 C1       -0.3085    -0.6018     0.9441 C.3    1 <0>       0.0300
    2 N2       -0.2174     0.1908    -0.2894 N.3    1 <0>      -0.6700
    3 C3        0.7438    -0.4039    -1.2275 C.3    1 <0>       0.0700
    4 H4        0.6593    -1.4902    -1.1945 H      1 <0>       0.0700
    5 C5        0.4442     0.0880    -2.6450 C.3    1 <0>      -0.1100
    6 C6       -0.9172    -0.4472    -3.0935 C.3    1 <0>      -0.0900
    7 C7       -1.2747     0.1472    -4.4572 C.3    1 <0>      -0.1100
    8 C8       -2.6361    -0.3880    -4.9057 C.3    1 <0>      -0.1200
    9 C9       -2.5740    -1.9129    -5.0144 C.3    1 <0>      -0.1200
   10 C10      -2.2164    -2.5073    -3.6506 C.3    1 <0>      -0.1200
   11 C11      -0.8550    -1.9721    -3.2022 C.3    1 <0>      -0.1200
   12 C12       2.1420     0.0031    -0.8396 C.2    1 <0>       0.5200
   13 O13       2.3249     1.0296    -0.2201 O.2    1 <0>      -0.4900
   14 N14       3.1892    -0.7736    -1.1811 N.am   1 <0>      -0.6800
   15 C15       4.4729    -0.4530    -0.7314 C.ar   1 <0>       0.1800
   16 C16       4.6389     0.1313     0.5299 C.ar   1 <0>      -0.1200
   17 C17       5.8753     0.4550     0.9949 C.ar   1 <0>      -0.0600
   18 C18       7.0064     0.2012     0.2026 C.ar   1 <0>      -0.1300
   19 C19       8.3034     0.5163     0.6375 C.ar   1 <0>       0.1500
   20 N20       9.3332     0.2615    -0.1355 N.ar   1 <0>      -0.4900
   21 C21       9.2118    -0.2912    -1.3351 C.ar   1 <0>       0.0800
   22 C22       7.9986    -0.6341    -1.8487 C.ar   1 <0>      -0.1600
   23 C23       6.8459    -0.3916    -1.0778 C.ar   1 <0>       0.0000
   24 C24       5.5630    -0.7207    -1.5326 C.ar   1 <0>      -0.1500
   25 H25      -0.7187    -1.5852     0.7145 H      1 <0>       0.0300
   26 H26       0.6851    -0.7147     1.3776 H      1 <0>       0.0600
   27 H27      -0.9597    -0.0936     1.6553 H      1 <0>       0.0800
   28 H28      -1.1242     0.2964    -0.7192 H      1 <0>       0.3500
   29 H29       0.4276     1.1778    -2.6554 H      1 <0>       0.0800
   30 H30       1.2173    -0.2701    -3.3249 H      1 <0>       0.0800
   31 H31      -1.6765    -0.1656    -2.3640 H      1 <0>       0.0700
   32 H32      -1.3190     1.2335    -4.3798 H      1 <0>       0.0700
   33 H33      -0.5154    -0.1345    -5.1867 H      1 <0>       0.0600
   34 H34      -3.3955    -0.1064    -4.1762 H      1 <0>       0.0600
   35 H35      -2.8908     0.0354    -5.8772 H      1 <0>       0.0600
   36 H36      -3.5439    -2.2942    -5.3339 H      1 <0>       0.0600
   37 H37      -1.8146    -2.1945    -5.7439 H      1 <0>       0.0600
   38 H38      -2.9758    -2.2256    -2.9212 H      1 <0>       0.0600
   39 H39      -2.1722    -3.5936    -3.7281 H      1 <0>       0.0600
   40 H40      -0.0957    -2.2537    -3.9316 H      1 <0>       0.0700
   41 H41      -0.6003    -2.3955    -2.2306 H      1 <0>       0.0600
   42 H42       3.0518    -1.5551    -1.7390 H      1 <0>       0.4100
   43 H43       3.7719     0.3284     1.1429 H      1 <0>       0.1400
   44 H44       5.9866     0.9058     1.9699 H      1 <0>       0.1400
   45 H45       8.4536     0.9681     1.6069 H      1 <0>       0.1600
   46 H46      10.1004    -0.4740    -1.9210 H      1 <0>       0.1500
   47 H47       7.9220    -1.0829    -2.8280 H      1 <0>       0.1400
   48 H48       5.4283    -1.1758    -2.5027 H      1 <0>       0.1300
@<TRIPOS>BOND
   1    1    2 1
   2    1   25 1
   3    1   26 1
   4    1   27 1
   5    2    3 1
   6    2   28 1
   7    3    4 1
   8    3    5 1
   9    3   12 1
  10    5    6 1
  11    5   29 1
  12    5   30 1
  13    6   11 1
  14    6    7 1
  15    6   31 1
  16    7    8 1
  17    7   32 1
  18    7   33 1
  19    8    9 1
  20    8   34 1
  21    8   35 1
  22    9   10 1
  23    9   36 1
  24    9   37 1
  25   10   11 1
  26   10   38 1
  27   10   39 1
  28   11   40 1
  29   11   41 1
  30   12   13 2
  31   12   14 am
  32   14   15 1
  33   14   42 1
  34   15   24 ar
  35   15   16 ar
  36   16   17 ar
  37   16   43 1
  38   17   18 ar
  39   17   44 1
  40   18   23 ar
  41   18   19 ar
  42   19   20 ar
  43   19   45 1
  44   20   21 ar
  45   21   22 ar
  46   21   46 1
  47   22   23 ar
  48   22   47 1
  49   23   24 ar
  50   24   48 1
