@<TRIPOS>MOLECULE
ZINC000036412221
63    66    1     0     0
SMALL
USER_CHARGES
@<TRIPOS>ATOM
1      C1      0.3428    2.1198    0.6439 C.3      1 ZINC000036412221   -0.1200
2      C2      0.5165    0.6262    0.5434 C.ar     1 ZINC000036412221   -0.0500
3      C3      0.7530    0.0390   -0.6854 C.ar     1 ZINC000036412221   -0.1400
4      C4      0.9123   -1.3311   -0.7776 C.ar     1 ZINC000036412221   -0.0300
5      C5      0.8354   -2.1139    0.3592 C.ar     1 ZINC000036412221   -0.6200
6      S6      1.0379   -3.8603    0.2416 S.o2     1 ZINC000036412221    2.6900
7      O7     -0.2720   -4.4918    0.0164 O.2      1 ZINC000036412221   -1.0300
8      O8      1.9341   -4.1756   -0.8820 O.3      1 ZINC000036412221   -1.0300
9      N9      1.6293   -4.3794    1.5110 N.am     1 ZINC000036412221   -1.2400
10     C10     1.8724   -5.6840    1.6490 C.2      1 ZINC000036412221    0.7500
11     O11     1.6122   -6.4513    0.7401 O.2      1 ZINC000036412221   -0.6300
12     N12     2.4061   -6.1525    2.7945 N.am     1 ZINC000036412221   -0.6200
13     C13     2.7199   -5.2398    3.9024 C.3      1 ZINC000036412221    0.1300
14     C14     2.0404   -5.7566    5.1744 C.3      1 ZINC000036412221   -0.1600
15     C15     2.4593   -7.2083    5.4180 C.3      1 ZINC000036412221    0.0300
16     N16     1.8357   -7.6966    6.6552 N.4      1 ZINC000036412221   -0.3800
17     H17     0.8318   -7.6458    6.5674 H        1 ZINC000036412221    0.4200
18     C18     2.2696   -6.8624    7.7823 C.3      1 ZINC000036412221   -0.0100
19     C19     1.5602   -7.3158    9.0601 C.3      1 ZINC000036412221   -0.1400
20     C20     1.9124   -8.7795    9.3410 C.3      1 ZINC000036412221    0.0700
21     O21     1.1951   -9.2313   10.4913 O.3      1 ZINC000036412221   -0.2900
22     C22     1.7325  -10.2690   11.1854 C.ar     1 ZINC000036412221    0.1400
23     C23     1.1476  -10.6882   12.3712 C.ar     1 ZINC000036412221   -0.1300
24     C24     1.6950  -11.7432   13.0760 C.ar     1 ZINC000036412221   -0.0500
25     C25     2.8260  -12.3816   12.6002 C.ar     1 ZINC000036412221   -0.0600
26     Cl26    3.5117  -13.7068   13.4875 Cl       1 ZINC000036412221   -0.0400
27     C27     3.4119  -11.9649   11.4163 C.ar     1 ZINC000036412221    0.0100
28     Cl28    4.8312  -12.7679   10.8208 Cl       1 ZINC000036412221   -0.0300
29     C29     2.8633  -10.9138   10.7057 C.ar     1 ZINC000036412221   -0.2000
30     C30     1.5233   -9.6297    8.1282 C.3      1 ZINC000036412221   -0.1800
31     C31     2.2354   -9.0900    6.8859 C.3      1 ZINC000036412221   -0.0100
32     C32     2.0062   -8.0760    4.2417 C.3      1 ZINC000036412221   -0.1500
33     C33     2.6796   -7.5864    2.9614 C.3      1 ZINC000036412221    0.1300
34     C34     0.6003   -1.5265    1.5882 C.ar     1 ZINC000036412221   -0.0200
35     C35     0.4448   -0.1561    1.6809 C.ar     1 ZINC000036412221   -0.1500
36     H36     1.3135    2.5883    0.8065 H        1 ZINC000036412221    0.0700
37     H37    -0.0928    2.4979   -0.2809 H        1 ZINC000036412221    0.0700
38     H38    -0.3177    2.3534    1.4789 H        1 ZINC000036412221    0.0700
39     H39     0.8130    0.6505   -1.5736 H        1 ZINC000036412221    0.1300
40     H40     1.0964   -1.7899   -1.7378 H        1 ZINC000036412221    0.1400
41     H41     3.7989   -5.2051    4.0528 H        1 ZINC000036412221    0.0600
42     H42     2.3490   -4.2416    3.6697 H        1 ZINC000036412221    0.1200
43     H43     2.3428   -5.1433    6.0232 H        1 ZINC000036412221    0.0900
44     H44     0.9581   -5.7054    5.0552 H        1 ZINC000036412221    0.0900
45     H45     3.5439   -7.2623    5.5122 H        1 ZINC000036412221    0.1400
46     H46     3.3475   -6.9593    7.9117 H        1 ZINC000036412221    0.1300
47     H47     2.0211   -5.8206    7.5795 H        1 ZINC000036412221    0.1400
48     H48     1.8850   -6.6964    9.8961 H        1 ZINC000036412221    0.1200
49     H49     0.4821   -7.2191    8.9318 H        1 ZINC000036412221    0.1000
50     H50     2.9837   -8.8684    9.5213 H        1 ZINC000036412221    0.0900
51     H51     0.2649  -10.1899   12.7438 H        1 ZINC000036412221    0.1500
52     H52     1.2394  -12.0695   13.9992 H        1 ZINC000036412221    0.1600
53     H53     3.3198  -10.5889    9.7824 H        1 ZINC000036412221    0.1500
54     H54     1.8217  -10.6642    8.2981 H        1 ZINC000036412221    0.1200
55     H55     0.4444   -9.5810    7.9806 H        1 ZINC000036412221    0.1000
56     H56     1.9613   -9.6926    6.0199 H        1 ZINC000036412221    0.1400
57     H57     3.3139   -9.1399    7.0354 H        1 ZINC000036412221    0.1300
58     H58     2.2842   -9.1136    4.4267 H        1 ZINC000036412221    0.0900
59     H59     0.9242   -8.0030    4.1313 H        1 ZINC000036412221    0.0900
60     H60     2.2849   -8.1368    2.1074 H        1 ZINC000036412221    0.1100
61     H61     3.7562   -7.7412    3.0326 H        1 ZINC000036412221    0.0700
62     H62     0.5406   -2.1380    2.4764 H        1 ZINC000036412221    0.1400
63     H63     0.2611    0.3028    2.6412 H        1 ZINC000036412221    0.1300
@<TRIPOS>BOND
1     1     2     1
2     1     36    1
3     1     37    1
4     1     38    1
5     2     35    ar
6     2     3     ar
7     3     4     ar
8     3     39    1
9     4     5     ar
10    4     40    1
11    5     6     1
12    5     34    ar
13    6     7     2
14    6     8     1
15    6     9     2
16    9     10    1
17    10    11    2
18    10    12    am
19    12    33    1
20    12    13    1
21    13    14    1
22    13    41    1
23    13    42    1
24    14    15    1
25    14    43    1
26    14    44    1
27    15    16    1
28    15    32    1
29    15    45    1
30    16    17    1
31    16    31    1
32    16    18    1
33    18    19    1
34    18    46    1
35    18    47    1
36    19    20    1
37    19    48    1
38    19    49    1
39    20    21    1
40    20    30    1
41    20    50    1
42    21    22    1
43    22    29    ar
44    22    23    ar
45    23    24    ar
46    23    51    1
47    24    25    ar
48    24    52    1
49    25    26    1
50    25    27    ar
51    27    28    1
52    27    29    ar
53    29    53    1
54    30    31    1
55    30    54    1
56    30    55    1
57    31    56    1
58    31    57    1
59    32    33    1
60    32    58    1
61    32    59    1
62    33    60    1
63    33    61    1
64    34    35    ar
65    34    62    1
66    35    63    1
@<TRIPOS>SUBSTRUCTURE
1   ZINC000036412221 1     RESIDUE    1   A     ZIN   1
