@<TRIPOS>MOLECULE
ZINC000004217734
36    36    1     0     0
SMALL
USER_CHARGES
@<TRIPOS>ATOM
1      C1     -0.0190    1.5470    0.0105 C.3      1 ZINC000004217734   -0.1500
2      C2      0.0021   -0.0041    0.0020 C.3      1 ZINC000004217734   -0.0400
3      C3     -1.4605   -0.4566    0.0401 C.3      1 ZINC000004217734   -0.1600
4      C4      0.6752   -0.4335   -1.2864 C.3      1 ZINC000004217734   -0.1100
5      C5      1.1644   -1.8677   -1.3222 C.3      1 ZINC000004217734   -0.0400
6      C6      0.0224   -2.8345   -1.6479 C.3      1 ZINC000004217734   -0.1600
7      C7      2.1768   -1.9752   -2.4927 C.3      1 ZINC000004217734   -0.1500
8      C8      1.8947   -2.2873   -0.0617 C.3      1 ZINC000004217734   -0.1300
9      C9      1.2344   -1.8804    1.2402 C.3      1 ZINC000004217734    0.0900
10     C10     0.1156   -2.8522    1.6241 C.3      1 ZINC000004217734   -0.1900
11     N11     2.2700   -1.9924    2.3075 N.4      1 ZINC000004217734   -0.6500
12     H12     3.0423   -1.3796    2.0925 H        1 ZINC000004217734    0.4300
13     H13     1.8685   -1.7287    3.1948 H        1 ZINC000004217734    0.4300
14     H14     2.6001   -2.9446    2.3574 H        1 ZINC000004217734    0.4300
15     C15     0.7445   -0.4463    1.2475 C.3      1 ZINC000004217734   -0.1300
16     H16     1.0036    1.9243    0.0028 H        1 ZINC000004217734    0.0600
17     H17    -0.5461    1.9081   -0.8725 H        1 ZINC000004217734    0.0700
18     H18    -0.5292    1.8986    0.9073 H        1 ZINC000004217734    0.0600
19     H19    -1.9837   -0.0685   -0.8338 H        1 ZINC000004217734    0.0700
20     H20    -1.5041   -1.5457    0.0357 H        1 ZINC000004217734    0.0600
21     H21    -1.9346   -0.0776    0.9454 H        1 ZINC000004217734    0.0600
22     H22    -0.0275   -0.2784   -2.1215 H        1 ZINC000004217734    0.0800
23     H23     1.5292    0.2364   -1.4796 H        1 ZINC000004217734    0.0700
24     H24    -0.3972   -2.5859   -2.6227 H        1 ZINC000004217734    0.0700
25     H25     0.4045   -3.8552   -1.6665 H        1 ZINC000004217734    0.0600
26     H26    -0.7530   -2.7506   -0.8865 H        1 ZINC000004217734    0.0600
27     H27     3.0068   -1.2902   -2.3193 H        1 ZINC000004217734    0.0600
28     H28     2.5546   -2.9958   -2.5538 H        1 ZINC000004217734    0.0600
29     H29     1.6803   -1.7150   -3.4275 H        1 ZINC000004217734    0.0700
30     H30     2.0153   -3.3829   -0.0707 H        1 ZINC000004217734    0.0900
31     H31     2.9142   -1.8688   -0.0878 H        1 ZINC000004217734    0.0800
32     H32     0.5292   -3.8536    1.7434 H        1 ZINC000004217734    0.0800
33     H33    -0.3376   -2.5322    2.5624 H        1 ZINC000004217734    0.0800
34     H34    -0.6414   -2.8628    0.8400 H        1 ZINC000004217734    0.1100
35     H35     1.6076    0.2221    1.4008 H        1 ZINC000004217734    0.0800
36     H36     0.0881   -0.3006    2.1211 H        1 ZINC000004217734    0.0900
@<TRIPOS>BOND
1     1     2     1
2     1     16    1
3     1     17    1
4     1     18    1
5     2     15    1
6     2     3     1
7     2     4     1
8     3     19    1
9     3     20    1
10    3     21    1
11    4     5     1
12    4     22    1
13    4     23    1
14    5     6     1
15    5     7     1
16    5     8     1
17    6     24    1
18    6     25    1
19    6     26    1
20    7     27    1
21    7     28    1
22    7     29    1
23    8     9     1
24    8     30    1
25    8     31    1
26    9     10    1
27    9     11    1
28    9     15    1
29    10    32    1
30    10    33    1
31    10    34    1
32    11    12    1
33    11    13    1
34    11    14    1
35    15    35    1
36    15    36    1
@<TRIPOS>SUBSTRUCTURE
1   ZINC000004217734 1     RESIDUE    1   A     ZIN   1
