@<TRIPOS>MOLECULE
ZINC000068199892
  32   32    0    0    0
SMALL
USER_CHARGES
NO_NAME
@<TRIPOS>ATOM
    1 C1       -0.0184     1.5028     0.0103 C.3    1 <0>      -0.1300
    2 C2        0.0021    -0.0041     0.0020 C.2    1 <0>       0.2200
    3 N3        0.0216    -0.6577     1.1202 N.2    1 <0>      -0.3500
    4 O4        0.0237     0.0436     2.3503 O.3    1 <0>      -0.3900
    5 C5       -0.0001    -0.7326    -1.2757 C.2    1 <0>       0.2400
    6 N6       -0.0132    -0.1877    -2.4743 N.2    1 <0>      -0.4400
    7 C7       -0.0108    -1.1530    -3.3962 C.2    1 <0>       0.0100
    8 C8        0.0042    -2.3475    -2.7640 C.2    1 <0>      -0.0300
    9 C9        0.0127    -3.7060    -3.4162 C.3    1 <0>       0.1600
   10 H10      -0.4102    -4.4407    -2.7309 H      1 <0>       0.1200
   11 O11      -0.7685    -3.6651    -4.6121 O.3    1 <0>      -0.5300
   12 C12       1.4512    -4.0978    -3.7598 C.3    1 <0>       0.0500
   13 H13       2.0251    -4.2156    -2.8406 H      1 <0>       0.1100
   14 O14       2.0440    -3.0760    -4.5638 O.3    1 <0>      -0.5400
   15 C15       1.4494    -5.4182    -4.5327 C.3    1 <0>       0.0800
   16 H16       0.8755    -5.3004    -5.4519 H      1 <0>       0.1200
   17 O17       0.8565    -6.4400    -3.7286 O.3    1 <0>      -0.5400
   18 C18       2.8879    -5.8100    -4.8763 C.3    1 <0>       0.0500
   19 O19       2.8799    -6.9798    -5.6969 O.3    1 <0>      -0.5600
   20 N20       0.0170    -2.0910    -1.4228 N.pl3  1 <0>      -0.5400
   21 H21       1.0042     1.8801     0.0026 H      1 <0>       0.0900
   22 H22      -0.5455     1.8639    -0.8728 H      1 <0>       0.0900
   23 H23      -0.5286     1.8543     0.9071 H      1 <0>       0.0800
   24 H24       0.0389    -0.5289     3.1295 H      1 <0>       0.4100
   25 H25      -0.0200    -1.0047    -4.4659 H      1 <0>       0.1800
   26 H26      -0.4493    -3.0313    -5.2689 H      1 <0>       0.3800
   27 H27       1.5843    -2.9168    -5.3995 H      1 <0>       0.3800
   28 H28       1.3162    -6.5992    -2.8929 H      1 <0>       0.3700
   29 H29       3.3686    -4.9925    -5.4136 H      1 <0>       0.0600
   30 H30       3.4381    -6.0143    -3.9578 H      1 <0>       0.0500
   31 H31       3.7604    -7.2861    -5.9539 H      1 <0>       0.3800
   32 H32       0.0295    -2.7485    -0.7097 H      1 <0>       0.4300
@<TRIPOS>BOND
   1    1    2 1
   2    1   21 1
   3    1   22 1
   4    1   23 1
   5    2    3 2
   6    2    5 1
   7    3    4 1
   8    4   24 1
   9    5   20 1
  10    5    6 2
  11    6    7 1
  12    7    8 2
  13    7   25 1
  14    8    9 1
  15    8   20 1
  16    9   10 1
  17    9   11 1
  18    9   12 1
  19   11   26 1
  20   12   13 1
  21   12   14 1
  22   12   15 1
  23   14   27 1
  24   15   16 1
  25   15   17 1
  26   15   18 1
  27   17   28 1
  28   18   19 1
  29   18   29 1
  30   18   30 1
  31   19   31 1
  32   20   32 1
