@<TRIPOS>MOLECULE
ZINC000003975668
55    57    1     0     0
SMALL
USER_CHARGES
@<TRIPOS>ATOM
1      C1     -0.0187    1.5258    0.0104 C.3      1 ZINC000003975668   -0.1800
2      C2      0.0021   -0.0041    0.0020 C.3      1 ZINC000003975668    0.0600
3      C3      0.7421   -0.5109    1.2415 C.3      1 ZINC000003975668   -0.1800
4      C4     -1.4333   -0.5336    0.0129 C.3      1 ZINC000003975668   -0.0900
5      C5     -2.1387   -0.0476    1.2528 C.ar     1 ZINC000003975668   -0.1000
6      C6     -2.0859   -0.8121    2.4165 C.ar     1 ZINC000003975668   -0.1200
7      C7     -2.7120   -0.4019    3.5535 C.ar     1 ZINC000003975668   -0.0900
8      C8     -3.4228    0.8100    3.5571 C.ar     1 ZINC000003975668   -0.0500
9      C9     -4.0814    1.2666    4.7118 C.ar     1 ZINC000003975668   -0.1100
10     C10    -4.7600    2.4458    4.6780 C.ar     1 ZINC000003975668   -0.1000
11     C11    -4.8129    3.2104    3.5138 C.ar     1 ZINC000003975668   -0.1100
12     C12    -4.1874    2.8001    2.3769 C.ar     1 ZINC000003975668   -0.1100
13     C13    -3.4766    1.5876    2.3732 C.ar     1 ZINC000003975668   -0.0500
14     C14    -2.8132    1.1343    1.2206 C.ar     1 ZINC000003975668   -0.0900
15     N15     0.6897   -0.4778   -1.2066 N.4      1 ZINC000003975668   -0.5000
16     H16     0.7033   -1.4867   -1.2121 H        1 ZINC000003975668    0.4300
17     H17     0.2017   -0.1436   -2.0240 H        1 ZINC000003975668    0.4300
18     C18     2.0678    0.0307   -1.2170 C.3      1 ZINC000003975668   -0.0500
19     C19     2.7840   -0.4628   -2.4758 C.3      1 ZINC000003975668    0.0900
20     H20     2.7213   -1.5498   -2.5270 H        1 ZINC000003975668    0.1400
21     O21     2.1628    0.1050   -3.6307 O.3      1 ZINC000003975668   -0.5400
22     C22     4.2531   -0.0383   -2.4263 C.3      1 ZINC000003975668    0.0300
23     O23     4.9483   -0.5972   -3.5427 O.3      1 ZINC000003975668   -0.2900
24     C24     6.2715   -0.3151   -3.6486 C.ar     1 ZINC000003975668    0.1800
25     C25     6.8923    0.4778   -2.6965 C.ar     1 ZINC000003975668   -0.2100
26     C26     8.2395    0.7652   -2.8049 C.ar     1 ZINC000003975668   -0.0300
27     C27     8.9799    0.2649   -3.8620 C.ar     1 ZINC000003975668   -0.1400
28     C28     8.3788   -0.5269   -4.8195 C.ar     1 ZINC000003975668    0.0400
29     Cl29    9.3128   -1.1518   -6.1428 Cl       1 ZINC000003975668   -0.0300
30     C30     7.0176   -0.8294   -4.7185 C.ar     1 ZINC000003975668   -0.0400
31     C31     6.3867   -1.6503   -5.7079 C.1      1 ZINC000003975668    0.2500
32     N32     5.8863   -2.3014   -6.4928 N.1      1 ZINC000003975668   -0.3800
33     H33     1.0039    1.9031    0.0027 H        1 ZINC000003975668    0.0800
34     H34    -0.5459    1.8868   -0.8726 H        1 ZINC000003975668    0.0800
35     H35    -0.5289    1.8773    0.9072 H        1 ZINC000003975668    0.1100
36     H36     0.2319   -0.1594    2.1383 H        1 ZINC000003975668    0.1100
37     H37     0.7568   -1.6008    1.2356 H        1 ZINC000003975668    0.0800
38     H38     1.7647   -0.1336    1.2338 H        1 ZINC000003975668    0.0800
39     H39    -1.9605   -0.1726   -0.8702 H        1 ZINC000003975668    0.1000
40     H40    -1.4185   -1.6235    0.0069 H        1 ZINC000003975668    0.1000
41     H41    -1.5404   -1.7442    2.4163 H        1 ZINC000003975668    0.1200
42     H42    -2.6628   -1.0050    4.4481 H        1 ZINC000003975668    0.1300
43     H43    -4.0494    0.6846    5.6210 H        1 ZINC000003975668    0.1300
44     H44    -5.2654    2.7942    5.5665 H        1 ZINC000003975668    0.1300
45     H45    -5.3587    4.1423    3.5139 H        1 ZINC000003975668    0.1300
46     H46    -4.2373    3.4028    1.4822 H        1 ZINC000003975668    0.1300
47     H47    -2.8415    1.7186    0.3128 H        1 ZINC000003975668    0.1300
48     H48     2.0530    1.1205   -1.2110 H        1 ZINC000003975668    0.1400
49     H49     2.5950   -0.3304   -0.3340 H        1 ZINC000003975668    0.1500
50     H50     2.1814    1.0716   -3.6522 H        1 ZINC000003975668    0.3900
51     H51     4.3186    1.0490   -2.4647 H        1 ZINC000003975668    0.0800
52     H52     4.7039   -0.3970   -1.5010 H        1 ZINC000003975668    0.0900
53     H53     6.3219    0.8721   -1.8685 H        1 ZINC000003975668    0.1400
54     H54     8.7177    1.3842   -2.0602 H        1 ZINC000003975668    0.1500
55     H55    10.0322    0.4955   -3.9381 H        1 ZINC000003975668    0.1500
@<TRIPOS>BOND
1     1     2     1
2     1     33    1
3     1     34    1
4     1     35    1
5     2     3     1
6     2     4     1
7     2     15    1
8     3     36    1
9     3     37    1
10    3     38    1
11    4     5     1
12    4     39    1
13    4     40    1
14    5     14    ar
15    5     6     ar
16    6     7     ar
17    6     41    1
18    7     8     ar
19    7     42    1
20    8     13    ar
21    8     9     ar
22    9     10    ar
23    9     43    1
24    10    11    ar
25    10    44    1
26    11    12    ar
27    11    45    1
28    12    13    ar
29    12    46    1
30    13    14    ar
31    14    47    1
32    15    16    1
33    15    17    1
34    15    18    1
35    18    19    1
36    18    48    1
37    18    49    1
38    19    20    1
39    19    21    1
40    19    22    1
41    21    50    1
42    22    23    1
43    22    51    1
44    22    52    1
45    23    24    1
46    24    30    ar
47    24    25    ar
48    25    26    ar
49    25    53    1
50    26    27    ar
51    26    54    1
52    27    28    ar
53    27    55    1
54    28    29    1
55    28    30    ar
56    30    31    1
57    31    32    3
@<TRIPOS>SUBSTRUCTURE
1   ZINC000003975668 1     RESIDUE    1   A     ZIN   1
