@<TRIPOS>MOLECULE
ZINC000043130902
97    98    1     0     0
SMALL
USER_CHARGES
@<TRIPOS>ATOM
1      C1      0.6373    2.1381    0.4346 C.3      1 ZINC000043130902   -0.1300
2      C2      0.4264    0.6668    0.1861 C.ar     1 ZINC000043130902   -0.0500
3      C3      0.3036    0.1960   -1.1068 C.ar     1 ZINC000043130902   -0.1500
4      C4      0.1099   -1.1587   -1.3350 C.ar     1 ZINC000043130902    0.1200
5      O5     -0.0108   -1.6244   -2.6060 O.3      1 ZINC000043130902   -0.4900
6      C6      0.0401   -2.0372   -0.2636 C.ar     1 ZINC000043130902   -0.1500
7      C7      0.1636   -1.5614    1.0274 C.ar     1 ZINC000043130902   -0.0600
8      C8      0.0883   -2.5152    2.1918 C.3      1 ZINC000043130902   -0.1200
9      C9      0.3618   -0.2115    1.2520 C.ar     1 ZINC000043130902   -0.1000
10     C10     0.4965    0.3048    2.6613 C.3      1 ZINC000043130902   -0.0900
11     C11     1.9788    0.4250    3.0209 C.3      1 ZINC000043130902    0.1400
12     H12     2.4874    1.0281    2.2688 H        1 ZINC000043130902    0.1200
13     N13     2.5804   -0.9101    3.0649 N.am     1 ZINC000043130902   -0.7000
14     C14     3.8843   -1.0719    2.7644 C.2      1 ZINC000043130902    0.4900
15     O15     4.5815   -0.1034    2.5483 O.2      1 ZINC000043130902   -0.5500
16     C16     4.4758   -2.4563    2.6969 C.3      1 ZINC000043130902    0.0800
17     H17     3.9804   -3.0989    3.4248 H        1 ZINC000043130902    0.1100
18     N18     5.9119   -2.3905    2.9992 N.3      1 ZINC000043130902   -0.8200
19     C19     4.2760   -3.0284    1.2920 C.3      1 ZINC000043130902   -0.1000
20     C20     4.7660   -4.4774    1.2570 C.3      1 ZINC000043130902   -0.1200
21     C21     4.5662   -5.0495   -0.1479 C.3      1 ZINC000043130902    0.0900
22     N22     5.0354   -6.4369   -0.1815 N.pl3    1 ZINC000043130902   -0.6900
23     C23     4.9562   -7.1578   -1.3413 C.cat    1 ZINC000043130902    0.7400
24     N24     4.4526   -6.5983   -2.4401 N.pl3    1 ZINC000043130902   -0.7900
25     N25     5.3828   -8.4192   -1.3718 N.pl3    1 ZINC000043130902   -0.7900
26     H26     5.7495   -8.8267   -0.5716 H        1 ZINC000043130902    0.4400
27     H27     5.3266   -8.9304   -2.1942 H        1 ZINC000043130902    0.4400
28     C28     2.1168    1.0828    4.3697 C.2      1 ZINC000043130902    0.5100
29     O29     2.6638    0.4944    5.2782 O.2      1 ZINC000043130902   -0.5300
30     N30     1.6323    2.3250    4.5663 N.am     1 ZINC000043130902   -0.7100
31     C31     1.7664    2.9645    5.8775 C.3      1 ZINC000043130902    0.1300
32     H32     1.6755    2.2113    6.6601 H        1 ZINC000043130902    0.1200
33     C33     3.1351    3.6411    5.9773 C.3      1 ZINC000043130902   -0.1300
34     C34     4.2342    2.5777    5.9313 C.3      1 ZINC000043130902   -0.1100
35     C35     5.6029    3.2543    6.0311 C.3      1 ZINC000043130902   -0.1500
36     C36     6.7020    2.1909    5.9851 C.3      1 ZINC000043130902   -0.0100
37     N37     8.0161    2.8405    6.0810 N.4      1 ZINC000043130902   -0.6400
38     H38     8.7409    2.1392    6.0506 H        1 ZINC000043130902    0.4400
39     H39     8.1329    3.4787    5.3082 H        1 ZINC000043130902    0.4400
40     H40     8.0769    3.3497    6.9499 H        1 ZINC000043130902    0.4400
41     C41     0.6820    3.9974    6.0459 C.2      1 ZINC000043130902    0.5200
42     O42    -0.1235    4.1812    5.1581 O.2      1 ZINC000043130902   -0.5200
43     N43     0.6074    4.7168    7.1832 N.am     1 ZINC000043130902   -0.7000
44     C44    -0.4467    5.7209    7.3469 C.3      1 ZINC000043130902    0.1300
45     H45    -1.3571    5.3751    6.8573 H        1 ZINC000043130902    0.1200
46     C46    -0.7192    5.9359    8.8370 C.3      1 ZINC000043130902   -0.0800
47     C47    -1.2785    4.6699    9.4332 C.ar     1 ZINC000043130902   -0.0900
48     C48    -2.6441    4.4561    9.4453 C.ar     1 ZINC000043130902   -0.1100
49     C49    -3.1571    3.2948    9.9922 C.ar     1 ZINC000043130902   -0.1100
50     C50    -2.3044    2.3470   10.5266 C.ar     1 ZINC000043130902   -0.1200
51     C51    -0.9387    2.5604   10.5136 C.ar     1 ZINC000043130902   -0.1200
52     C52    -0.4254    3.7198    9.9629 C.ar     1 ZINC000043130902   -0.1100
53     C53    -0.0041    7.0201    6.7246 C.2      1 ZINC000043130902    0.5100
54     N54    -0.8182    8.0937    6.7551 N.am     1 ZINC000043130902   -0.8500
55     O55     1.0848    7.0995    6.1964 O.2      1 ZINC000043130902   -0.5400
56     H56     1.7053    2.3557    0.4433 H        1 ZINC000043130902    0.0700
57     H57     0.1557    2.7129   -0.3564 H        1 ZINC000043130902    0.0800
58     H58     0.2033    2.4099    1.3969 H        1 ZINC000043130902    0.0700
59     H59     0.3579    0.8819   -1.9393 H        1 ZINC000043130902    0.1300
60     H60     0.8288   -1.8775   -3.0136 H        1 ZINC000043130902    0.3900
61     H61    -0.1109   -3.0922   -0.4386 H        1 ZINC000043130902    0.1300
62     H62     1.0885   -2.8771    2.4302 H        1 ZINC000043130902    0.0700
63     H63    -0.3274   -1.9997    3.0575 H        1 ZINC000043130902    0.0800
64     H64    -0.5504   -3.3587    1.9298 H        1 ZINC000043130902    0.0800
65     H65     0.0239    1.2841    2.7362 H        1 ZINC000043130902    0.1000
66     H66     0.0106   -0.3868    3.3496 H        1 ZINC000043130902    0.0900
67     H67     2.0404   -1.6776    3.3103 H        1 ZINC000043130902    0.4100
68     H68     6.3939   -1.8001    2.3379 H        1 ZINC000043130902    0.3500
69     H69     6.0682   -2.0765    3.9453 H        1 ZINC000043130902    0.3500
70     H70     3.2175   -2.9964    1.0339 H        1 ZINC000043130902    0.0800
71     H71     4.8432   -2.4356    0.5743 H        1 ZINC000043130902    0.0800
72     H72     5.8245   -4.5093    1.5152 H        1 ZINC000043130902    0.1000
73     H73     4.1989   -5.0702    1.9747 H        1 ZINC000043130902    0.0800
74     H74     3.5077   -5.0175   -0.4061 H        1 ZINC000043130902    0.0900
75     H75     5.1334   -4.4567   -0.8656 H        1 ZINC000043130902    0.0900
76     H76     5.4022   -6.8443    0.6188 H        1 ZINC000043130902    0.4400
77     H77     4.1420   -5.6796   -2.4179 H        1 ZINC000043130902    0.4400
78     H78     4.3965   -7.1095   -3.2626 H        1 ZINC000043130902    0.4400
79     H79     1.1948    2.7956    3.8397 H        1 ZINC000043130902    0.4100
80     H80     3.2614    4.3305    5.1426 H        1 ZINC000043130902    0.0800
81     H81     3.2009    4.1912    6.9160 H        1 ZINC000043130902    0.0800
82     H82     4.1079    1.8883    6.7661 H        1 ZINC000043130902    0.0800
83     H83     4.1684    2.0276    4.9926 H        1 ZINC000043130902    0.0800
84     H84     5.7291    3.9437    5.1964 H        1 ZINC000043130902    0.0900
85     H85     5.6686    3.8044    6.9698 H        1 ZINC000043130902    0.0900
86     H86     6.5757    1.5015    6.8199 H        1 ZINC000043130902    0.1300
87     H87     6.6362    1.6408    5.0464 H        1 ZINC000043130902    0.1300
88     H88     1.2517    4.5698    7.8932 H        1 ZINC000043130902    0.4000
89     H89     0.2108    6.1957    9.3427 H        1 ZINC000043130902    0.0900
90     H90    -1.4389    6.7450    8.9617 H        1 ZINC000043130902    0.1000
91     H91    -3.3103    5.1965    9.0279 H        1 ZINC000043130902    0.1200
92     H92    -4.2241    3.1281   10.0023 H        1 ZINC000043130902    0.1300
93     H93    -2.7052    1.4400   10.9545 H        1 ZINC000043130902    0.1200
94     H94    -0.2725    1.8201   10.9314 H        1 ZINC000043130902    0.1200
95     H95     0.6416    3.8865    9.9527 H        1 ZINC000043130902    0.1200
96     H96    -1.6890    8.0303    7.1776 H        1 ZINC000043130902    0.4000
97     H97    -0.5332    8.9300    6.3546 H        1 ZINC000043130902    0.4100
@<TRIPOS>BOND
1     1     2     1
2     1     56    1
3     1     57    1
4     1     58    1
5     2     9     ar
6     2     3     ar
7     3     4     ar
8     3     59    1
9     4     5     1
10    4     6     ar
11    5     60    1
12    6     7     ar
13    6     61    1
14    7     8     1
15    7     9     ar
16    8     62    1
17    8     63    1
18    8     64    1
19    9     10    1
20    10    11    1
21    10    65    1
22    10    66    1
23    11    12    1
24    11    13    1
25    11    28    1
26    13    14    am
27    13    67    1
28    14    15    2
29    14    16    1
30    16    17    1
31    16    18    1
32    16    19    1
33    18    68    1
34    18    69    1
35    19    20    1
36    19    70    1
37    19    71    1
38    20    21    1
39    20    72    1
40    20    73    1
41    21    22    1
42    21    74    1
43    21    75    1
44    22    23    ar
45    22    76    1
46    23    24    ar
47    23    25    ar
48    24    77    1
49    24    78    1
50    25    26    1
51    25    27    1
52    28    29    2
53    28    30    am
54    30    31    1
55    30    79    1
56    31    32    1
57    31    33    1
58    31    41    1
59    33    34    1
60    33    80    1
61    33    81    1
62    34    35    1
63    34    82    1
64    34    83    1
65    35    36    1
66    35    84    1
67    35    85    1
68    36    37    1
69    36    86    1
70    36    87    1
71    37    38    1
72    37    39    1
73    37    40    1
74    41    42    2
75    41    43    am
76    43    44    1
77    43    88    1
78    44    45    1
79    44    46    1
80    44    53    1
81    46    47    1
82    46    89    1
83    46    90    1
84    47    52    ar
85    47    48    ar
86    48    49    ar
87    48    91    1
88    49    50    ar
89    49    92    1
90    50    51    ar
91    50    93    1
92    51    52    ar
93    51    94    1
94    52    95    1
95    53    54    am
96    53    55    2
97    54    96    1
98    54    97    1
@<TRIPOS>SUBSTRUCTURE
1   ZINC000043130902 1     RESIDUE    1   A     ZIN   1
