@<TRIPOS>MOLECULE
ZINC000006245719
  35   37    0    0    0
SMALL
USER_CHARGES
NO_NAME
@<TRIPOS>ATOM
    1 C1        1.3603    -2.9268     1.4306 C.3    1 <0>       0.0600
    2 N2        0.6177    -1.9489     0.6316 N.pl3  1 <0>      -0.4200
    3 C3        0.4745    -1.9717    -0.7376 C.2    1 <0>       0.0300
    4 C4        1.0233    -2.9525    -1.6250 C.1    1 <0>       0.2900
    5 N5        1.4586    -3.7305    -2.3291 N.1    1 <0>      -0.4200
    6 C6       -0.2917    -0.8832    -1.1047 C.2    1 <0>      -0.1000
    7 C7       -0.6182    -0.1893     0.0597 C.2    1 <0>      -0.2000
    8 C8       -0.0541    -0.8641     1.1207 C.2    1 <0>       0.1400
    9 C9       -0.1504    -0.4755     2.5424 C.ar   1 <0>      -0.1000
   10 C10      -0.4570     0.8426     2.8880 C.ar   1 <0>      -0.0600
   11 C11      -0.5462     1.2048     4.2153 C.ar   1 <0>      -0.1400
   12 C12      -0.3314     0.2580     5.2075 C.ar   1 <0>       0.1800
   13 N13      -0.4137     0.6048     6.5590 N.pl3  1 <0>      -0.6000
   14 C14       0.0984    -0.2228     7.4921 C.2    1 <0>       0.4800
   15 S15      -0.0327     0.1862     9.1494 S.2    1 <0>      -0.7100
   16 O16       0.7112    -1.3677     7.1358 O.3    1 <0>      -0.3400
   17 C17       0.1979    -2.0634     5.9667 C.3    1 <0>       0.1600
   18 C18       1.2136    -3.1106     5.5056 C.3    1 <0>      -0.1300
   19 C19      -1.1238    -2.7499     6.3172 C.3    1 <0>      -0.1600
   20 C20      -0.0271    -1.0578     4.8654 C.ar   1 <0>      -0.2000
   21 C21       0.0593    -1.4278     3.5444 C.ar   1 <0>      -0.0700
   22 H22       0.6735    -3.6847     1.8075 H      1 <0>       0.0800
   23 H23       2.1200    -3.4016     0.8096 H      1 <0>       0.0800
   24 H24       1.8400    -2.4219     2.2691 H      1 <0>       0.1000
   25 H25      -0.5840    -0.6175    -2.1099 H      1 <0>       0.1500
   26 H26      -1.2104     0.7119     0.1199 H      1 <0>       0.1500
   27 H27      -0.6240     1.5784     2.1153 H      1 <0>       0.1300
   28 H28      -0.7825     2.2241     4.4828 H      1 <0>       0.1300
   29 H29       1.3851    -3.8283     6.3079 H      1 <0>       0.0700
   30 H30       0.8268    -3.6308     4.6293 H      1 <0>       0.0700
   31 H31       2.1525    -2.6188     5.2512 H      1 <0>       0.0600
   32 H32      -1.8475    -2.0014     6.6401 H      1 <0>       0.0600
   33 H33      -1.5067    -3.2706     5.4396 H      1 <0>       0.0700
   34 H34      -0.9588    -3.4665     7.1217 H      1 <0>       0.0700
   35 H35       0.2917    -2.4492     3.2815 H      1 <0>       0.1200
@<TRIPOS>BOND
   1    1    2 1
   2    1   22 1
   3    1   23 1
   4    1   24 1
   5    2    8 1
   6    2    3 1
   7    3    4 1
   8    3    6 2
   9    4    5 3
  10    6    7 1
  11    6   25 1
  12    7    8 2
  13    7   26 1
  14    8    9 1
  15    9   21 ar
  16    9   10 ar
  17   10   11 ar
  18   10   27 1
  19   11   12 ar
  20   11   28 1
  21   12   20 ar
  22   12   13 1
  23   13   14 1
  24   14   15 2
  25   14   16 1
  26   16   17 1
  27   17   18 1
  28   17   19 1
  29   17   20 1
  30   18   29 1
  31   18   30 1
  32   18   31 1
  33   19   32 1
  34   19   33 1
  35   19   34 1
  36   20   21 ar
  37   21   35 1
