@<TRIPOS>MOLECULE
ZINC000000155368
19    19    1     0     0
SMALL
USER_CHARGES
@<TRIPOS>ATOM
1      C1     -0.0178    1.4608    0.0101 C.3      1 ZINC000000155368    0.0100
2      N2      0.0021   -0.0041    0.0020 N.ar     1 ZINC000000155368   -0.3400
3      C3      0.0052   -0.6385   -1.1547 C.ar     1 ZINC000000155368    0.1400
4      C4      0.0242   -2.0208   -1.2110 C.ar     1 ZINC000000155368   -0.1200
5      C5      0.0401   -2.7464   -0.0331 C.ar     1 ZINC000000155368    0.0200
6      C6      0.0363   -2.0447    1.1786 C.ar     1 ZINC000000155368   -0.1300
7      C7      0.0532   -2.7696    2.4670 C.2      1 ZINC000000155368    0.5700
8      N8      0.0725   -4.1171    2.4819 N.am     1 ZINC000000155368   -0.8300
9      O9      0.0497   -2.1502    3.5129 O.2      1 ZINC000000155368   -0.5100
10     C10     0.0217   -0.6498    1.1496 C.ar     1 ZINC000000155368    0.1800
11     H11     1.0048    1.8381    0.0023 H        1 ZINC000000155368    0.1300
12     H12    -0.5450    1.8219   -0.8730 H        1 ZINC000000155368    0.1300
13     H13    -0.5280    1.8123    0.9069 H        1 ZINC000000155368    0.1300
14     H14    -0.0076   -0.0696   -2.0726 H        1 ZINC000000155368    0.2100
15     H15     0.0262   -2.5280   -2.1645 H        1 ZINC000000155368    0.1900
16     H16     0.0547   -3.8262   -0.0479 H        1 ZINC000000155368    0.1800
17     H17     0.0752   -4.6113    1.6473 H        1 ZINC000000155368    0.4100
18     H18     0.0835   -4.5927    3.3272 H        1 ZINC000000155368    0.4300
19     H19     0.0190   -0.0951    2.0762 H        1 ZINC000000155368    0.2200
@<TRIPOS>BOND
1     1     2     1
2     1     11    1
3     1     12    1
4     1     13    1
5     2     10    ar
6     2     3     ar
7     3     4     ar
8     3     14    1
9     4     5     ar
10    4     15    1
11    5     6     ar
12    5     16    1
13    6     7     1
14    6     10    ar
15    7     8     am
16    7     9     2
17    8     17    1
18    8     18    1
19    10    19    1
@<TRIPOS>SUBSTRUCTURE
1   ZINC000000155368 1     RESIDUE    1   A     ZIN   1
