@<TRIPOS>MOLECULE
ZINC000001494627
  54   56    0    0    0
SMALL
USER_CHARGES
NO_NAME
@<TRIPOS>ATOM
    1 O1        0.3020    -0.4805     2.0580 O.2    1 <0>      -0.5200
    2 C2        0.1933     0.7289     2.1392 C.2    1 <0>       0.5500
    3 C3        1.3358     1.5893     1.8256 C.2    1 <0>      -0.1800
    4 C4        2.5081     1.0418     1.4469 C.2    1 <0>      -0.0300
    5 C5        3.6567     1.9069     1.1316 C.ar   1 <0>      -0.0300
    6 C6        3.5374     3.2967     1.2292 C.ar   1 <0>      -0.1000
    7 C7        4.6178     4.1004     0.9321 C.ar   1 <0>      -0.0900
    8 C8        5.8178     3.5347     0.5377 C.ar   1 <0>      -0.1500
    9 C9        6.9937     4.4203     0.2149 C.3    1 <0>       0.0400
   10 N10       7.7828     4.6496     1.4325 N.4    1 <0>      -0.3800
   11 H11       7.1854     5.0218     2.1554 H      1 <0>       0.4300
   12 C12       8.3657     3.3793     1.8847 C.3    1 <0>      -0.0100
   13 C13       9.0585     3.5874     3.2329 C.3    1 <0>       0.0500
   14 O14       8.0877     3.9519     4.2161 O.3    1 <0>      -0.5800
   15 C15       8.8590     5.6074     1.1454 C.3    1 <0>      -0.0100
   16 C16       8.2519     6.9711     0.8097 C.3    1 <0>      -0.0600
   17 C17       9.3549     7.9837     0.6386 C.2    1 <0>      -0.2000
   18 C18       9.8266     8.8171     1.5792 C.2    1 <0>       0.0800
   19 N19      10.8273     9.5910     1.0576 N.pl3  1 <0>      -0.5900
   20 C20      11.0291     9.2661    -0.2652 C.ar   1 <0>       0.0900
   21 C21      11.9001     9.7330    -1.2438 C.ar   1 <0>      -0.1200
   22 C22      11.8590     9.1928    -2.5107 C.ar   1 <0>      -0.0900
   23 C23      10.9560     8.1857    -2.8219 C.ar   1 <0>      -0.1300
   24 C24      10.0912     7.7121    -1.8757 C.ar   1 <0>      -0.0800
   25 C25      10.1200     8.2406    -0.5840 C.ar   1 <0>      -0.1000
   26 C26       5.9437     2.1600     0.4387 C.ar   1 <0>      -0.1000
   27 C27       4.8743     1.3428     0.7384 C.ar   1 <0>      -0.0900
   28 N28      -0.9803     1.2764     2.5125 N.am   1 <0>      -0.5900
   29 O29      -2.0868     0.4445     2.8101 O.3    1 <0>      -0.3100
   30 H30       1.2394     2.6626     1.8976 H      1 <0>       0.1400
   31 H31       2.6046    -0.0314     1.3748 H      1 <0>       0.1500
   32 H32       2.6014     3.7396     1.5362 H      1 <0>       0.1400
   33 H33       4.5273     5.1740     1.0071 H      1 <0>       0.1400
   34 H34       7.6175     3.9364    -0.5366 H      1 <0>       0.1400
   35 H35       6.6347     5.3746    -0.1706 H      1 <0>       0.1400
   36 H36       7.5763     2.6355     1.9929 H      1 <0>       0.1400
   37 H37       9.0939     3.0323     1.1517 H      1 <0>       0.1400
   38 H38       9.5517     2.6633     3.5344 H      1 <0>       0.0900
   39 H39       9.7994     4.3817     3.1419 H      1 <0>       0.0700
   40 H40       8.4570     4.1000     5.0975 H      1 <0>       0.4100
   41 H41       9.5039     5.7020     2.0190 H      1 <0>       0.1300
   42 H42       9.4451     5.2521     0.2979 H      1 <0>       0.1300
   43 H43       7.6804     6.8966    -0.1155 H      1 <0>       0.0900
   44 H44       7.5931     7.2848     1.6194 H      1 <0>       0.0900
   45 H45       9.4690     8.8694     2.5969 H      1 <0>       0.1700
   46 H46      11.3209    10.2677     1.5467 H      1 <0>       0.4200
   47 H47      12.6062    10.5166    -1.0116 H      1 <0>       0.1300
   48 H48      12.5359     9.5569    -3.2694 H      1 <0>       0.1300
   49 H49      10.9365     7.7733    -3.8199 H      1 <0>       0.1300
   50 H50       9.3913     6.9282    -2.1250 H      1 <0>       0.1200
   51 H51       6.8834     1.7261     0.1303 H      1 <0>       0.1400
   52 H52       4.9741     0.2702     0.6610 H      1 <0>       0.1400
   53 H53      -1.0669     2.2404     2.5772 H      1 <0>       0.4100
   54 H54      -2.8838     0.9275     3.0681 H      1 <0>       0.3900
@<TRIPOS>BOND
   1    1    2 2
   2    2    3 1
   3    2   28 am
   4    3    4 2
   5    3   30 1
   6    4    5 1
   7    4   31 1
   8    5   27 ar
   9    5    6 ar
  10    6    7 ar
  11    6   32 1
  12    7    8 ar
  13    7   33 1
  14    8    9 1
  15    8   26 ar
  16    9   10 1
  17    9   34 1
  18    9   35 1
  19   10   11 1
  20   10   12 1
  21   10   15 1
  22   12   13 1
  23   12   36 1
  24   12   37 1
  25   13   14 1
  26   13   38 1
  27   13   39 1
  28   14   40 1
  29   15   16 1
  30   15   41 1
  31   15   42 1
  32   16   17 1
  33   16   43 1
  34   16   44 1
  35   17   25 1
  36   17   18 2
  37   18   19 1
  38   18   45 1
  39   19   20 1
  40   19   46 1
  41   20   25 ar
  42   20   21 ar
  43   21   22 ar
  44   21   47 1
  45   22   23 ar
  46   22   48 1
  47   23   24 ar
  48   23   49 1
  49   24   25 ar
  50   24   50 1
  51   26   27 ar
  52   26   51 1
  53   27   52 1
  54   28   29 1
  55   28   53 1
  56   29   54 1
