@<TRIPOS>MOLECULE
ZINC000001851171
45    46    1     0     0
SMALL
USER_CHARGES
@<TRIPOS>ATOM
1      C1     -0.8931    0.1710    0.8672 C.3      1 ZINC000001851171   -0.1500
2      C2     -1.0618   -0.9033   -0.2091 C.3      1 ZINC000001851171    0.0600
3      O3      0.2114   -1.1318   -0.8687 O.3      1 ZINC000001851171   -0.3500
4      C4      0.2351   -2.0518   -1.8457 C.2      1 ZINC000001851171    0.4900
5      O5     -0.7746   -2.6466   -2.1401 O.2      1 ZINC000001851171   -0.4900
6      C6      1.5211   -2.3430   -2.5755 C.3      1 ZINC000001851171    0.0100
7      C7      2.1201   -3.7305   -2.3373 C.3      1 ZINC000001851171   -0.0900
8      C8      2.4309   -3.9032   -0.8491 C.3      1 ZINC000001851171   -0.1200
9      C9      3.1841   -5.2175   -0.6346 C.3      1 ZINC000001851171   -0.1200
10     C10     3.4949   -5.3902    0.8535 C.3      1 ZINC000001851171   -0.1200
11     C11     4.2481   -6.7046    1.0681 C.3      1 ZINC000001851171   -0.1200
12     C12     4.5588   -6.8772    2.5562 C.3      1 ZINC000001851171    0.0600
13     O13     5.2623   -8.1048    2.7566 O.3      1 ZINC000001851171   -0.3100
14     C14     5.6162   -8.4121    4.0325 C.ar     1 ZINC000001851171    0.1400
15     C15     5.2879   -7.5523    5.0704 C.ar     1 ZINC000001851171   -0.2000
16     C16     5.6485   -7.8662    6.3665 C.ar     1 ZINC000001851171   -0.0700
17     C17     6.3371   -9.0372    6.6296 C.ar     1 ZINC000001851171   -0.0700
18     Cl18    6.7897   -9.4292    8.2591 Cl       1 ZINC000001851171   -0.0700
19     C19     6.6651   -9.8962    5.5957 C.ar     1 ZINC000001851171   -0.0700
20     C20     6.3012   -9.5885    4.2991 C.ar     1 ZINC000001851171   -0.1400
21     C21     1.7190   -1.7067   -3.9528 C.3      1 ZINC000001851171    0.0000
22     O22     2.4234   -1.2567   -2.7939 O.3      1 ZINC000001851171   -0.3200
23     H23    -0.1586   -0.1617    1.6006 H        1 ZINC000001851171    0.0700
24     H24    -0.5517    1.0974    0.4054 H        1 ZINC000001851171    0.0700
25     H25    -1.8489    0.3425    1.3623 H        1 ZINC000001851171    0.0800
26     H26    -1.4032   -1.8298    0.2527 H        1 ZINC000001851171    0.0700
27     H27    -1.7964   -0.5707   -0.9425 H        1 ZINC000001851171    0.0700
28     H28     1.4067   -4.4929   -2.6503 H        1 ZINC000001851171    0.1000
29     H29     3.0389   -3.8336   -2.9147 H        1 ZINC000001851171    0.0900
30     H30     3.0471   -3.0714   -0.5078 H        1 ZINC000001851171    0.0700
31     H31     1.4995   -3.9216   -0.2832 H        1 ZINC000001851171    0.0600
32     H32     2.5679   -6.0493   -0.9760 H        1 ZINC000001851171    0.0700
33     H33     4.1155   -5.1991   -1.2005 H        1 ZINC000001851171    0.0700
34     H34     4.1111   -4.5584    1.1949 H        1 ZINC000001851171    0.0700
35     H35     2.5635   -5.4086    1.4195 H        1 ZINC000001851171    0.0700
36     H36     3.6318   -7.5363    0.7267 H        1 ZINC000001851171    0.0800
37     H37     5.1794   -6.6862    0.5022 H        1 ZINC000001851171    0.0800
38     H38     5.1750   -6.0454    2.8976 H        1 ZINC000001851171    0.0600
39     H39     3.6275   -6.8956    3.1222 H        1 ZINC000001851171    0.0600
40     H40     4.7511   -6.6379    4.8654 H        1 ZINC000001851171    0.1400
41     H41     5.3931   -7.1971    7.1749 H        1 ZINC000001851171    0.1400
42     H42     7.2023  -10.8099    5.8031 H        1 ZINC000001851171    0.1400
43     H43     6.5573  -10.2593    3.4923 H        1 ZINC000001851171    0.1400
44     H44     2.2771   -2.2730   -4.6984 H        1 ZINC000001851171    0.1300
45     H45     0.9202   -1.0737   -4.3394 H        1 ZINC000001851171    0.1200
@<TRIPOS>BOND
1     1     2     1
2     1     23    1
3     1     24    1
4     1     25    1
5     2     3     1
6     2     26    1
7     2     27    1
8     3     4     1
9     4     5     2
10    4     6     1
11    6     22    1
12    6     7     1
13    6     21    1
14    7     8     1
15    7     28    1
16    7     29    1
17    8     9     1
18    8     30    1
19    8     31    1
20    9     10    1
21    9     32    1
22    9     33    1
23    10    11    1
24    10    34    1
25    10    35    1
26    11    12    1
27    11    36    1
28    11    37    1
29    12    13    1
30    12    38    1
31    12    39    1
32    13    14    1
33    14    20    ar
34    14    15    ar
35    15    16    ar
36    15    40    1
37    16    17    ar
38    16    41    1
39    17    18    1
40    17    19    ar
41    19    20    ar
42    19    42    1
43    20    43    1
44    21    22    1
45    21    44    1
46    21    45    1
@<TRIPOS>SUBSTRUCTURE
1   ZINC000001851171 1     RESIDUE    1   A     ZIN   1
