@<TRIPOS>MOLECULE
ZINC000068245917
49    52    1     0     0
SMALL
USER_CHARGES
@<TRIPOS>ATOM
1      C1     -0.0178    1.5119    0.0237 C.3      1 ZINC000068245917   -0.1700
2      C2      0.0023   -0.0179    0.0084 C.3      1 ZINC000068245917    0.2000
3      H3      0.5292   -0.3832    0.8899 H        1 ZINC000068245917    0.0900
4      N4      0.6879   -0.4853   -1.1989 N.pl3    1 ZINC000068245917   -0.7200
5      C5      2.0735   -0.5998   -1.2112 C.ar     1 ZINC000068245917    0.4400
6      C6      2.7981   -0.2746   -0.0738 C.ar     1 ZINC000068245917   -0.2800
7      C7      4.1895   -0.3934   -0.0973 C.ar     1 ZINC000068245917    0.1200
8      C8      5.0016   -0.0562    1.0981 C.2      1 ZINC000068245917   -0.2100
9      C9      6.3613   -0.1260    1.1955 C.2      1 ZINC000068245917    0.0800
10     N10     6.7013    0.2630    2.4399 N.pl3    1 ZINC000068245917   -0.3700
11     C11     8.0634    0.3385    2.9739 C.3      1 ZINC000068245917    0.1000
12     N12     5.5286    0.5827    3.1348 N.2      1 ZINC000068245917   -0.2900
13     C13     4.5102    0.4000    2.3371 C.2      1 ZINC000068245917    0.0700
14     C14     4.7975   -0.8377   -1.2734 C.ar     1 ZINC000068245917   -0.2800
15     C15     4.0043   -1.1435   -2.3696 C.ar     1 ZINC000068245917    0.4200
16     N16     4.5998   -1.5871   -3.5466 N.pl3    1 ZINC000068245917   -0.6400
17     C17     3.8084   -2.0003   -4.6139 C.ar     1 ZINC000068245917    0.3300
18     C18     4.3990   -2.5467   -5.7506 C.ar     1 ZINC000068245917    0.0100
19     N19     3.6448   -2.9372   -6.7606 N.ar     1 ZINC000068245917   -0.4100
20     C20     2.3302   -2.8102   -6.6941 C.ar     1 ZINC000068245917    0.0000
21     C21     1.7404   -2.2683   -5.5676 C.ar     1 ZINC000068245917    0.0900
22     N22     2.4886   -1.8797   -4.5492 N.ar     1 ZINC000068245917   -0.4200
23     N23     2.6857   -1.0234   -2.3078 N.ar     1 ZINC000068245917   -0.5300
24     C24    -1.4118   -0.5389    0.0166 C.ar     1 ZINC000068245917   -0.1000
25     C25    -2.1409   -0.5763   -1.1574 C.ar     1 ZINC000068245917   -0.0800
26     C26    -3.4377   -1.0539   -1.1511 C.ar     1 ZINC000068245917   -0.1500
27     C27    -4.0065   -1.4955    0.0314 C.ar     1 ZINC000068245917    0.1000
28     F28    -5.2740   -1.9630    0.0387 F        1 ZINC000068245917   -0.1400
29     C29    -3.2752   -1.4580    1.2065 C.ar     1 ZINC000068245917   -0.1500
30     C30    -1.9769   -0.9845    1.1970 C.ar     1 ZINC000068245917   -0.0800
31     H31     1.0050    1.8887    0.0178 H        1 ZINC000068245917    0.0700
32     H32    -0.5447    1.8772   -0.8578 H        1 ZINC000068245917    0.0600
33     H33    -0.5279    1.8596    0.9220 H        1 ZINC000068245917    0.0700
34     H34     0.1753   -0.7148   -1.9897 H        1 ZINC000068245917    0.4000
35     H35     2.2929    0.0661    0.8179 H        1 ZINC000068245917    0.1300
36     H36     7.0414   -0.4370    0.4164 H        1 ZINC000068245917    0.1800
37     H37     8.4744    1.3297    2.7823 H        1 ZINC000068245917    0.0800
38     H38     8.0433    0.1549    4.0481 H        1 ZINC000068245917    0.0900
39     H39     8.6861   -0.4130    2.4884 H        1 ZINC000068245917    0.0900
40     H40     3.4721    0.5628    2.5865 H        1 ZINC000068245917    0.1900
41     H41     5.8710   -0.9415   -1.3288 H        1 ZINC000068245917    0.1300
42     H42     5.5665   -1.6083   -3.6229 H        1 ZINC000068245917    0.4300
43     H43     5.4726   -2.6503   -5.8056 H        1 ZINC000068245917    0.1600
44     H44     1.7157   -3.1304   -7.5225 H        1 ZINC000068245917    0.1700
45     H45     0.6664   -2.1661   -5.5175 H        1 ZINC000068245917    0.1700
46     H46    -1.6969   -0.2318   -2.0797 H        1 ZINC000068245917    0.1300
47     H47    -4.0073   -1.0823   -2.0683 H        1 ZINC000068245917    0.1400
48     H48    -3.7180   -1.8019    2.1296 H        1 ZINC000068245917    0.1400
49     H49    -1.4061   -0.9555    2.1133 H        1 ZINC000068245917    0.1400
@<TRIPOS>BOND
1     1     2     1
2     1     31    1
3     1     32    1
4     1     33    1
5     2     3     1
6     2     4     1
7     2     24    1
8     4     5     1
9     4     34    1
10    5     23    ar
11    5     6     ar
12    6     7     ar
13    6     35    1
14    7     8     1
15    7     14    ar
16    8     13    1
17    8     9     2
18    9     10    1
19    9     36    1
20    10    11    1
21    10    12    1
22    11    37    1
23    11    38    1
24    11    39    1
25    12    13    2
26    13    40    1
27    14    15    ar
28    14    41    1
29    15    16    1
30    15    23    ar
31    16    17    1
32    16    42    1
33    17    22    ar
34    17    18    ar
35    18    19    ar
36    18    43    1
37    19    20    ar
38    20    21    ar
39    20    44    1
40    21    22    ar
41    21    45    1
42    24    30    ar
43    24    25    ar
44    25    26    ar
45    25    46    1
46    26    27    ar
47    26    47    1
48    27    28    1
49    27    29    ar
50    29    30    ar
51    29    48    1
52    30    49    1
@<TRIPOS>SUBSTRUCTURE
1   ZINC000068245917 1     RESIDUE    1   A     ZIN   1
