@<TRIPOS>MOLECULE
ZINC000059224388
  66   70    0    0    0
SMALL
USER_CHARGES
NO_NAME
@<TRIPOS>ATOM
    1 C1        0.1304     1.5043     0.0138 C.3    1 <0>      -0.1200
    2 C2        0.1390    -0.0027     0.0051 C.2    1 <0>      -0.0100
    3 C3        0.1992    -0.6995    -1.1185 C.2    1 <0>      -0.2600
    4 C4        0.2649    -0.0957    -2.4977 C.3    1 <0>       0.0800
    5 N5        1.6694     0.1085    -2.8766 N.4    1 <0>      -0.3800
    6 H6        2.1294     0.6642    -2.1711 H      1 <0>       0.4300
    7 C7        1.7299     0.8092    -4.1655 C.3    1 <0>      -0.0200
    8 C8        3.1902     1.1242    -4.5064 C.3    1 <0>       0.0900
    9 N9        3.9607    -0.1281    -4.4593 N.am   1 <0>      -0.6300
   10 C10       4.7635    -0.4866    -5.4808 C.2    1 <0>       0.5300
   11 O11       4.8584     0.2271    -6.4568 O.2    1 <0>      -0.4800
   12 C12       5.5432    -1.7743    -5.4102 C.3    1 <0>       0.0900
   13 H13       4.8602    -2.6028    -5.2224 H      1 <0>       0.0800
   14 C14       6.5663    -1.6894    -4.2758 C.3    1 <0>      -0.2000
   15 O15       6.2223    -1.9884    -6.6492 O.3    1 <0>      -0.5400
   16 C16       3.8304    -0.9777    -3.2655 C.3    1 <0>       0.0800
   17 C17       2.3394    -1.1936    -2.9853 C.3    1 <0>      -0.0300
   18 S18       0.1924    -2.4228    -0.7836 S.3    1 <0>       0.1700
   19 C19       0.1040    -2.1326     0.9477 C.ar   1 <0>      -0.3100
   20 C20       0.0544    -3.0161     2.0396 C.ar   1 <0>       0.5100
   21 N21       0.0729    -4.3865     1.8364 N.pl3  1 <0>      -0.5900
   22 C22       0.1955    -5.3185     2.9684 C.3    1 <0>       0.0800
   23 C23      -0.9149    -6.3690     2.8522 C.3    1 <0>       0.0400
   24 O24      -0.8796    -6.9487     1.5459 O.3    1 <0>      -0.3700
   25 C25      -1.1293    -6.0211     0.4871 C.3    1 <0>       0.0500
   26 C26      -0.0356    -4.9530     0.4826 C.3    1 <0>       0.0900
   27 N27      -0.0099    -2.5188     3.2669 N.ar   1 <0>      -0.5600
   28 C28      -0.0275    -1.2046     3.4666 C.ar   1 <0>       0.4600
   29 C29      -0.0995    -0.6935     4.8561 C.ar   1 <0>      -0.2400
   30 C30      -0.1424    -1.5729     5.9419 C.ar   1 <0>       0.2600
   31 N31      -0.2058    -1.0787     7.1652 N.ar   1 <0>      -0.5700
   32 C32      -0.2288     0.2309     7.3694 C.ar   1 <0>       0.5900
   33 N33      -0.2955     0.7076     8.6653 N.pl3  1 <0>      -0.8100
   34 N34      -0.1892     1.0964     6.3660 N.ar   1 <0>      -0.5700
   35 C35      -0.1203     0.6803     5.1143 C.ar   1 <0>       0.2600
   36 N36       0.0173    -0.3403     2.4732 N.ar   1 <0>      -0.5300
   37 C37       0.0895    -0.7562     1.1891 C.ar   1 <0>       0.2100
   38 H38       1.1549     1.8732     0.0627 H      1 <0>       0.0800
   39 H39      -0.3444     1.8701    -0.8967 H      1 <0>       0.0700
   40 H40      -0.4256     1.8595     0.8814 H      1 <0>       0.1000
   41 H41      -0.2100    -0.7685    -3.2118 H      1 <0>       0.1400
   42 H42      -0.2550     0.8624    -2.5000 H      1 <0>       0.1500
   43 H43       1.3035     0.1762    -4.9437 H      1 <0>       0.1400
   44 H44       1.1632     1.7381    -4.1012 H      1 <0>       0.1500
   45 H45       3.2485     1.5528    -5.5069 H      1 <0>       0.1400
   46 H46       3.5923     1.8292    -3.7788 H      1 <0>       0.1000
   47 H47       6.0483    -1.5261    -3.3308 H      1 <0>       0.0700
   48 H48       7.1303    -2.6208    -4.2248 H      1 <0>       0.0800
   49 H49       7.2493    -0.8610    -4.4637 H      1 <0>       0.0800
   50 H50       6.7456    -2.8011    -6.6755 H      1 <0>       0.4000
   51 H51       4.3120    -1.9388    -3.4456 H      1 <0>       0.1300
   52 H52       4.2971    -0.4850    -2.4126 H      1 <0>       0.1000
   53 H53       2.2208    -1.7405    -2.0499 H      1 <0>       0.1400
   54 H54       1.8957    -1.7661    -3.7998 H      1 <0>       0.1400
   55 H55       1.1688    -5.8082     2.9371 H      1 <0>       0.0900
   56 H56       0.0883    -4.7732     3.9061 H      1 <0>       0.1100
   57 H57      -0.7600    -7.1467     3.6000 H      1 <0>       0.1200
   58 H58      -1.8830    -5.8949     3.0141 H      1 <0>       0.0600
   59 H59      -1.1286    -6.5487    -0.4668 H      1 <0>       0.1200
   60 H60      -2.0982    -5.5458     0.6404 H      1 <0>       0.0600
   61 H61      -0.2934    -4.1665    -0.2266 H      1 <0>       0.0800
   62 H62       0.9164    -5.4036     0.2018 H      1 <0>       0.0900
   63 H63      -0.1244    -2.6410     5.7829 H      1 <0>       0.1800
   64 H64      -0.3247     0.0863     9.4096 H      1 <0>       0.4200
   65 H65      -0.3130     1.6633     8.8302 H      1 <0>       0.4200
   66 H66      -0.0884     1.3909     4.3017 H      1 <0>       0.1800
@<TRIPOS>BOND
   1    1    2 1
   2    1   38 1
   3    1   39 1
   4    1   40 1
   5    2   37 1
   6    2    3 2
   7    3    4 1
   8    3   18 1
   9    4    5 1
  10    4   41 1
  11    4   42 1
  12    5    6 1
  13    5   17 1
  14    5    7 1
  15    7    8 1
  16    7   43 1
  17    7   44 1
  18    8    9 1
  19    8   45 1
  20    8   46 1
  21    9   10 am
  22    9   16 1
  23   10   11 2
  24   10   12 1
  25   12   13 1
  26   12   14 1
  27   12   15 1
  28   14   47 1
  29   14   48 1
  30   14   49 1
  31   15   50 1
  32   16   17 1
  33   16   51 1
  34   16   52 1
  35   17   53 1
  36   17   54 1
  37   18   19 1
  38   19   37 ar
  39   19   20 ar
  40   20   21 1
  41   20   27 ar
  42   21   26 1
  43   21   22 1
  44   22   23 1
  45   22   55 1
  46   22   56 1
  47   23   24 1
  48   23   57 1
  49   23   58 1
  50   24   25 1
  51   25   26 1
  52   25   59 1
  53   25   60 1
  54   26   61 1
  55   26   62 1
  56   27   28 ar
  57   28   29 1
  58   28   36 ar
  59   29   35 ar
  60   29   30 ar
  61   30   31 ar
  62   30   63 1
  63   31   32 ar
  64   32   33 1
  65   32   34 ar
  66   33   64 1
  67   33   65 1
  68   34   35 ar
  69   35   66 1
  70   36   37 ar
