@<TRIPOS>MOLECULE
ZINC000022445948
56    59    1     0     0
SMALL
USER_CHARGES
@<TRIPOS>ATOM
1      C1     -0.0173    1.4248    0.0099 C.3      1 ZINC000022445948    0.0100
2      O2      0.0021   -0.0041    0.0020 O.3      1 ZINC000022445948   -0.3300
3      C3      0.6059   -0.6072   -1.0559 C.ar     1 ZINC000022445948    0.1700
4      C4      1.1726    0.1618   -2.0619 C.ar     1 ZINC000022445948   -0.1700
5      C5      1.7861   -0.4505   -3.1368 C.ar     1 ZINC000022445948   -0.0500
6      C6      1.8358   -1.8357   -3.2107 C.ar     1 ZINC000022445948    0.0900
7      N7      2.4596   -2.4585   -4.3027 N.pl3    1 ZINC000022445948   -0.3100
8      N8      3.1939   -3.6575   -4.2966 N.2      1 ZINC000022445948   -0.0300
9      N9      3.5846   -3.8578   -5.5090 N.2      1 ZINC000022445948    0.0000
10     N10     3.1713   -2.9098   -6.2704 N.2      1 ZINC000022445948   -0.2400
11     C11     2.4784   -2.0376   -5.5857 C.2      1 ZINC000022445948    0.1600
12     C12     1.8297   -0.7893   -6.1261 C.3      1 ZINC000022445948    0.5700
13     F13     1.7789   -0.8572   -7.5225 F        1 ZINC000022445948   -0.1200
14     F14     0.5312   -0.6806   -5.6169 F        1 ZINC000022445948   -0.1600
15     F15     2.5769    0.3289   -5.7405 F        1 ZINC000022445948   -0.1500
16     C16     1.2684   -2.6050   -2.2036 C.ar     1 ZINC000022445948   -0.0200
17     C17     0.6603   -1.9921   -1.1266 C.ar     1 ZINC000022445948   -0.1900
18     C18     0.0450   -2.8270   -0.0333 C.3      1 ZINC000022445948    0.0500
19     N19    -1.4087   -2.8997   -0.2320 N.4      1 ZINC000022445948   -0.5200
20     H20    -1.7988   -1.9695   -0.2049 H        1 ZINC000022445948    0.4100
21     H21    -1.6051   -3.3207   -1.1277 H        1 ZINC000022445948    0.4300
22     C22    -2.0086   -3.7135    0.8337 C.3      1 ZINC000022445948    0.0200
23     H23    -1.5248   -4.6898    0.8621 H        1 ZINC000022445948    0.1900
24     C24    -1.8209   -3.0104    2.1812 C.3      1 ZINC000022445948   -0.1600
25     C25    -2.5689   -1.6743    2.1572 C.3      1 ZINC000022445948   -0.1600
26     C26    -4.0434   -1.9273    1.8355 C.3      1 ZINC000022445948   -0.0200
27     N27    -4.1573   -2.5771    0.5243 N.4      1 ZINC000022445948   -0.5100
28     H28    -5.1321   -2.6939    0.2915 H        1 ZINC000022445948    0.4500
29     H29    -3.7122   -2.0017   -0.1749 H        1 ZINC000022445948    0.4100
30     C30    -3.5035   -3.8918    0.5605 C.3      1 ZINC000022445948    0.0700
31     H31    -3.9475   -4.4962    1.3515 H        1 ZINC000022445948    0.1900
32     C32    -3.6929   -4.5829   -0.7653 C.ar     1 ZINC000022445948   -0.1900
33     C33    -3.5959   -3.8619   -1.9407 C.ar     1 ZINC000022445948   -0.1600
34     C34    -3.7696   -4.4959   -3.1567 C.ar     1 ZINC000022445948   -0.0900
35     C35    -4.0399   -5.8509   -3.1974 C.ar     1 ZINC000022445948   -0.0700
36     C36    -4.1359   -6.5721   -2.0220 C.ar     1 ZINC000022445948   -0.0900
37     C37    -3.9580   -5.9390   -0.8061 C.ar     1 ZINC000022445948   -0.0700
38     H38     1.0053    1.8021    0.0021 H        1 ZINC000022445948    0.0800
39     H39    -0.5445    1.7859   -0.8732 H        1 ZINC000022445948    0.0700
40     H40    -0.5275    1.7763    0.9067 H        1 ZINC000022445948    0.1200
41     H41     1.1336    1.2396   -2.0045 H        1 ZINC000022445948    0.1700
42     H42     2.2270    0.1482   -3.9201 H        1 ZINC000022445948    0.1600
43     H43     1.3069   -3.6828   -2.2607 H        1 ZINC000022445948    0.1600
44     H44     0.4664   -3.8318   -0.0626 H        1 ZINC000022445948    0.1600
45     H45     0.2571   -2.3721    0.9343 H        1 ZINC000022445948    0.1600
46     H46    -2.2202   -3.6375    2.9783 H        1 ZINC000022445948    0.1400
47     H47    -0.7597   -2.8309    2.3540 H        1 ZINC000022445948    0.1300
48     H48    -2.4864   -1.1934    3.1319 H        1 ZINC000022445948    0.1500
49     H49    -2.1355   -1.0281    1.3939 H        1 ZINC000022445948    0.0900
50     H50    -4.4759   -2.5733    2.5995 H        1 ZINC000022445948    0.1500
51     H51    -4.5790   -0.9781    1.8178 H        1 ZINC000022445948    0.1500
52     H52    -3.3848   -2.8032   -1.9089 H        1 ZINC000022445948    0.1100
53     H53    -3.6946   -3.9324   -4.0750 H        1 ZINC000022445948    0.1500
54     H54    -4.1763   -6.3461   -4.1475 H        1 ZINC000022445948    0.1500
55     H55    -4.3474   -7.6308   -2.0538 H        1 ZINC000022445948    0.1500
56     H56    -4.0330   -6.5025    0.1122 H        1 ZINC000022445948    0.1500
@<TRIPOS>BOND
1     1     2     1
2     1     38    1
3     1     39    1
4     1     40    1
5     2     3     1
6     3     17    ar
7     3     4     ar
8     4     5     ar
9     4     41    1
10    5     6     ar
11    5     42    1
12    6     7     1
13    6     16    ar
14    7     11    1
15    7     8     1
16    8     9     2
17    9     10    1
18    10    11    2
19    11    12    1
20    12    13    1
21    12    14    1
22    12    15    1
23    16    17    ar
24    16    43    1
25    17    18    1
26    18    19    1
27    18    44    1
28    18    45    1
29    19    20    1
30    19    21    1
31    19    22    1
32    22    23    1
33    22    30    1
34    22    24    1
35    24    25    1
36    24    46    1
37    24    47    1
38    25    26    1
39    25    48    1
40    25    49    1
41    26    27    1
42    26    50    1
43    26    51    1
44    27    28    1
45    27    29    1
46    27    30    1
47    30    31    1
48    30    32    1
49    32    37    ar
50    32    33    ar
51    33    34    ar
52    33    52    1
53    34    35    ar
54    34    53    1
55    35    36    ar
56    35    54    1
57    36    37    ar
58    36    55    1
59    37    56    1
@<TRIPOS>SUBSTRUCTURE
1   ZINC000022445948 1     RESIDUE    1   A     ZIN   1
