@<TRIPOS>MOLECULE
ZINC000000596737
36    38    1     0     0
SMALL
USER_CHARGES
@<TRIPOS>ATOM
1      O1      0.0021   -0.0041    0.0020 O.co2    1 ZINC000000596737   -0.6800
2      C2     -0.0145    1.2150    0.0087 C.2      1 ZINC000000596737    0.4900
3      O3      1.0330    1.8389    0.0021 O.co2    1 ZINC000000596737   -0.6900
4      C4     -1.3296    1.9507    0.0190 C.3      1 ZINC000000596737    0.0400
5      N5     -2.4301    0.9837    0.0189 N.am     1 ZINC000000596737   -0.5000
6      C6     -2.9321    0.5464   -1.1488 C.2      1 ZINC000000596737    0.7100
7      O7     -2.4533    0.9700   -2.1830 O.2      1 ZINC000000596737   -0.5400
8      N8     -3.9389   -0.3381   -1.2221 N.am     1 ZINC000000596737   -0.5500
9      C9     -4.4271   -0.7633   -2.5363 C.3      1 ZINC000000596737    0.1600
10     C10    -3.6566   -1.9765   -2.9899 C.ar     1 ZINC000000596737   -0.1400
11     C11    -2.6173   -1.8382   -3.8899 C.ar     1 ZINC000000596737   -0.0500
12     C12    -1.9097   -2.9506   -4.3061 C.ar     1 ZINC000000596737   -0.1100
13     C13    -2.2416   -4.2032   -3.8225 C.ar     1 ZINC000000596737   -0.0500
14     Br14   -1.2730   -5.7239   -4.3927 Br       1 ZINC000000596737   -0.0400
15     C15    -3.2816   -4.3436   -2.9216 C.ar     1 ZINC000000596737   -0.1400
16     C16    -3.9865   -3.2293   -2.5004 C.ar     1 ZINC000000596737    0.1300
17     F17    -5.0023   -3.3650   -1.6200 F        1 ZINC000000596737   -0.1100
18     C18    -4.5105   -0.8440   -0.1078 C.2      1 ZINC000000596737    0.5600
19     O19    -5.4220   -1.6453   -0.1833 O.2      1 ZINC000000596737   -0.4900
20     C20    -4.0008   -0.4004    1.2015 C.ar     1 ZINC000000596737   -0.2100
21     C21    -4.5374   -0.8759    2.3957 C.ar     1 ZINC000000596737    0.0000
22     C22    -4.0254   -0.4300    3.5958 C.ar     1 ZINC000000596737   -0.1600
23     C23    -2.9832    0.4858    3.6177 C.ar     1 ZINC000000596737    0.0400
24     Cl24   -2.3527    1.0349    5.1392 Cl       1 ZINC000000596737   -0.0600
25     C25    -2.4418    0.9648    2.4392 C.ar     1 ZINC000000596737   -0.1600
26     C26    -2.9406    0.5235    1.2243 C.ar     1 ZINC000000596737    0.2400
27     H27    -1.3917    2.5717    0.9126 H        1 ZINC000000596737    0.0900
28     H28    -1.4001    2.5813   -0.8673 H        1 ZINC000000596737    0.1000
29     H29    -5.4865   -1.0104   -2.4678 H        1 ZINC000000596737    0.1100
30     H30    -4.2882    0.0448   -3.2544 H        1 ZINC000000596737    0.1200
31     H31    -2.3578   -0.8607   -4.2687 H        1 ZINC000000596737    0.1500
32     H32    -1.0976   -2.8415   -5.0096 H        1 ZINC000000596737    0.1400
33     H33    -3.5409   -5.3216   -2.5439 H        1 ZINC000000596737    0.1400
34     H34    -5.3488   -1.5885    2.3817 H        1 ZINC000000596737    0.1500
35     H35    -4.4383   -0.7955    4.5244 H        1 ZINC000000596737    0.1400
36     H36    -1.6308    1.6775    2.4654 H        1 ZINC000000596737    0.1500
@<TRIPOS>BOND
1     1     2     ar
2     2     3     ar
3     2     4     1
4     4     5     1
5     4     27    1
6     4     28    1
7     5     26    1
8     5     6     am
9     6     7     2
10    6     8     am
11    8     9     1
12    8     18    am
13    9     10    1
14    9     29    1
15    9     30    1
16    10    16    ar
17    10    11    ar
18    11    12    ar
19    11    31    1
20    12    13    ar
21    12    32    1
22    13    14    1
23    13    15    ar
24    15    16    ar
25    15    33    1
26    16    17    1
27    18    19    2
28    18    20    1
29    20    26    ar
30    20    21    ar
31    21    22    ar
32    21    34    1
33    22    23    ar
34    22    35    1
35    23    24    1
36    23    25    ar
37    25    26    ar
38    25    36    1
@<TRIPOS>SUBSTRUCTURE
1   ZINC000000596737 1     RESIDUE    1   A     ZIN   1
