@<TRIPOS>MOLECULE
ZINC000040919043
  29   29    0    0    0
SMALL
USER_CHARGES
NO_NAME
@<TRIPOS>ATOM
    1 C1       -0.0187     1.5258     0.0104 C.3    1 <0>      -0.1900
    2 C2        0.0021    -0.0041     0.0020 C.3    1 <0>       0.1000
    3 H3       -1.0205    -0.3814     0.0098 H      1 <0>       0.1000
    4 O4        0.6932    -0.4774     1.1597 O.3    1 <0>      -0.5500
    5 C5        0.7182    -0.4975    -1.2568 C.3    1 <0>      -0.1400
    6 C6        0.6303    -2.0233    -1.3286 C.3    1 <0>       0.1000
    7 H7       -0.4142    -2.3302    -1.2744 H      1 <0>       0.0700
    8 O8        1.3521    -2.5942    -0.2354 O.3    1 <0>      -0.3400
    9 C9        1.3128    -4.0220    -0.1924 C.3    1 <0>       0.0300
   10 C10       1.9472    -4.5872    -1.4659 C.3    1 <0>       0.0400
   11 H11       2.9942    -4.2878    -1.5150 H      1 <0>       0.0700
   12 O12       1.8585    -6.0133    -1.4513 O.3    1 <0>      -0.5600
   13 C13       1.2003    -4.0390    -2.6857 C.3    1 <0>       0.0800
   14 H14       0.1651    -4.3794    -2.6626 H      1 <0>       0.0700
   15 O15       1.8301    -4.5046    -3.8809 O.3    1 <0>      -0.5600
   16 C16       1.2371    -2.5081    -2.6479 C.3    1 <0>       0.0900
   17 H17       2.2696    -2.1666    -2.7209 H      1 <0>       0.0700
   18 O18       0.4826    -1.9851    -3.7430 O.3    1 <0>      -0.5500
   19 H19       1.0039     1.9031     0.0027 H      1 <0>       0.0600
   20 H20      -0.5459     1.8868    -0.8726 H      1 <0>       0.0700
   21 H21      -0.5289     1.8773     0.9072 H      1 <0>       0.0600
   22 H22       1.6114    -0.1800     1.2187 H      1 <0>       0.3700
   23 H23       0.2444    -0.0644    -2.1377 H      1 <0>       0.1000
   24 H24       1.7648    -0.1951    -1.2215 H      1 <0>       0.0800
   25 H25       1.8671    -4.3749     0.6773 H      1 <0>       0.1000
   26 H26       0.2773    -4.3552    -0.1234 H      1 <0>       0.0600
   27 H27       2.3071    -6.4277    -0.7015 H      1 <0>       0.3900
   28 H28       1.8475    -5.4676    -3.9668 H      1 <0>       0.3900
   29 H29       0.8100    -2.2566    -4.6114 H      1 <0>       0.3900
@<TRIPOS>BOND
   1    1    2 1
   2    1   19 1
   3    1   20 1
   4    1   21 1
   5    2    3 1
   6    2    4 1
   7    2    5 1
   8    4   22 1
   9    5    6 1
  10    5   23 1
  11    5   24 1
  12    6    7 1
  13    6   16 1
  14    6    8 1
  15    8    9 1
  16    9   10 1
  17    9   25 1
  18    9   26 1
  19   10   11 1
  20   10   12 1
  21   10   13 1
  22   12   27 1
  23   13   14 1
  24   13   15 1
  25   13   16 1
  26   15   28 1
  27   16   17 1
  28   16   18 1
  29   18   29 1
