@<TRIPOS>MOLECULE
ZINC000096941866
97    102   1     0     0
SMALL
USER_CHARGES
@<TRIPOS>ATOM
1      C1     -0.2880    0.9942    1.8371 C.3      1 ZINC000096941866    0.0200
2      O2     -0.1847   -0.2988    1.2377 O.3      1 ZINC000096941866   -0.3200
3      C3     -1.3052   -0.7992    0.6531 C.ar     1 ZINC000096941866    0.1800
4      C4     -2.4764   -0.0583    0.6520 C.ar     1 ZINC000096941866   -0.2100
5      C5     -3.6187   -0.5714    0.0540 C.ar     1 ZINC000096941866    0.2300
6      N6     -4.8033    0.1743    0.0506 N.am     1 ZINC000096941866   -0.6600
7      C7     -4.7542    1.5176    0.1494 C.2      1 ZINC000096941866    0.5300
8      O8     -3.6837    2.0877    0.1397 O.2      1 ZINC000096941866   -0.5000
9      C9     -6.0295    2.3111    0.2720 C.3      1 ZINC000096941866   -0.1800
10     C10    -5.6957    3.8012    0.3680 C.3      1 ZINC000096941866    0.0100
11     N11    -6.9388    4.5747    0.4875 N.4      1 ZINC000096941866   -0.3900
12     H12    -7.5504    4.3476   -0.2822 H        1 ZINC000096941866    0.4300
13     C13    -6.6261    6.0085    0.4554 C.3      1 ZINC000096941866    0.0000
14     C14    -7.9237    6.8185    0.4980 C.3      1 ZINC000096941866   -0.1500
15     C15    -8.6828    6.4886    1.7865 C.3      1 ZINC000096941866    0.1000
16     O16    -9.9505    7.1965    1.7979 O.3      1 ZINC000096941866   -0.3500
17     C17   -10.4467    7.5424    3.0009 C.2      1 ZINC000096941866    0.6500
18     O18    -9.8371    7.2605    4.0135 O.2      1 ZINC000096941866   -0.5500
19     N19   -11.6196    8.2015    3.0819 N.am     1 ZINC000096941866   -0.6400
20     C20   -12.0861    8.6480    4.3214 C.ar     1 ZINC000096941866    0.1500
21     C21   -11.8475    7.9011    5.4654 C.ar     1 ZINC000096941866   -0.1200
22     C22   -12.3091    8.3445    6.6900 C.ar     1 ZINC000096941866   -0.1000
23     C23   -13.0110    9.5333    6.7832 C.ar     1 ZINC000096941866   -0.1200
24     C24   -13.2564   10.2869    5.6529 C.ar     1 ZINC000096941866   -0.0900
25     C25   -12.7909    9.8537    4.4141 C.ar     1 ZINC000096941866   -0.0600
26     C26   -13.0517   10.6597    3.1967 C.ar     1 ZINC000096941866   -0.0600
27     C27   -12.0079   10.9716    2.3274 C.ar     1 ZINC000096941866   -0.1100
28     C28   -12.2565   11.7220    1.1961 C.ar     1 ZINC000096941866   -0.1200
29     C29   -13.5387   12.1643    0.9243 C.ar     1 ZINC000096941866   -0.1100
30     C30   -14.5784   11.8580    1.7837 C.ar     1 ZINC000096941866   -0.1100
31     C31   -14.3426   11.1031    2.9147 C.ar     1 ZINC000096941866   -0.1000
32     C32    -8.9383    4.9798    1.8448 C.3      1 ZINC000096941866   -0.1700
33     C33    -7.6023    4.2393    1.7531 C.3      1 ZINC000096941866   -0.0100
34     C34    -3.5849   -1.8265   -0.5418 C.ar     1 ZINC000096941866   -0.1100
35     Cl35   -5.0125   -2.4702   -1.2910 Cl       1 ZINC000096941866   -0.0300
36     C36    -2.4145   -2.5623   -0.5385 C.ar     1 ZINC000096941866   -0.0200
37     C37    -1.2751   -2.0498    0.0522 C.ar     1 ZINC000096941866   -0.2000
38     C38    -0.0011   -2.8548    0.0533 C.3      1 ZINC000096941866    0.0600
39     N39     0.1647   -3.5072    1.3590 N.4      1 ZINC000096941866   -0.5000
40     H40     0.2097   -2.8052    2.0824 H        1 ZINC000096941866    0.4300
41     H41    -0.6194   -4.1183    1.5316 H        1 ZINC000096941866    0.4300
42     C42     1.4066   -4.2918    1.3601 C.3      1 ZINC000096941866   -0.0500
43     C43     1.5794   -4.9713    2.7200 C.3      1 ZINC000096941866    0.1300
44     H44     0.7323   -5.6315    2.9065 H        1 ZINC000096941866    0.1400
45     O45     1.6431   -3.9772    3.7446 O.3      1 ZINC000096941866   -0.5400
46     C46     2.8534   -5.7763    2.7212 C.ar     1 ZINC000096941866   -0.1000
47     C47     4.0048   -5.2349    3.2174 C.ar     1 ZINC000096941866   -0.1100
48     C48     5.1848   -5.9660    3.2242 C.ar     1 ZINC000096941866   -0.0900
49     C49     5.2169   -7.2558    2.7287 C.ar     1 ZINC000096941866    0.0900
50     O50     6.3777   -7.9636    2.7399 O.3      1 ZINC000096941866   -0.4900
51     C51     4.0509   -7.8282    2.2173 C.ar     1 ZINC000096941866    0.1700
52     C52     2.8584   -7.0828    2.2189 C.ar     1 ZINC000096941866   -0.1000
53     C53     1.6405   -7.6914    1.6803 C.2      1 ZINC000096941866   -0.0500
54     C54     1.7071   -8.9567    1.1977 C.2      1 ZINC000096941866   -0.1700
55     C55     2.9291   -9.6625    1.2195 C.2      1 ZINC000096941866    0.5300
56     O56     2.9670  -10.7992    0.7809 O.2      1 ZINC000096941866   -0.5100
57     N57     4.0518   -9.1135    1.7158 N.am     1 ZINC000096941866   -0.6200
58     H58     0.6743    1.2738    2.2659 H        1 ZINC000096941866    0.1200
59     H59    -0.5740    1.7240    1.0797 H        1 ZINC000096941866    0.0700
60     H60    -1.0430    0.9712    2.6229 H        1 ZINC000096941866    0.0600
61     H61    -2.5001    0.9167    1.1160 H        1 ZINC000096941866    0.1700
62     H62    -5.6594   -0.2757   -0.0230 H        1 ZINC000096941866    0.4300
63     H63    -6.6532    2.1342   -0.6042 H        1 ZINC000096941866    0.1300
64     H64    -6.5659    2.0005    1.1686 H        1 ZINC000096941866    0.1300
65     H65    -5.0720    3.9781    1.2442 H        1 ZINC000096941866    0.1400
66     H66    -5.1593    4.1118   -0.5286 H        1 ZINC000096941866    0.1500
67     H67    -6.0099    6.2649    1.3172 H        1 ZINC000096941866    0.1400
68     H68    -6.0831    6.2411   -0.4606 H        1 ZINC000096941866    0.1400
69     H69    -7.6893    7.8827    0.4760 H        1 ZINC000096941866    0.1300
70     H70    -8.5407    6.5630   -0.3635 H        1 ZINC000096941866    0.1000
71     H71    -8.0880    6.7923    2.6479 H        1 ZINC000096941866    0.1100
72     H72   -12.1399    8.3658    2.2800 H        1 ZINC000096941866    0.4200
73     H73   -11.3008    6.9721    5.3989 H        1 ZINC000096941866    0.1400
74     H74   -12.1214    7.7602    7.5787 H        1 ZINC000096941866    0.1300
75     H75   -13.3688    9.8727    7.7440 H        1 ZINC000096941866    0.1300
76     H76   -13.8049   11.2140    5.7300 H        1 ZINC000096941866    0.1300
77     H77   -11.0064   10.6271    2.5389 H        1 ZINC000096941866    0.1200
78     H78   -11.4484   11.9646    0.5220 H        1 ZINC000096941866    0.1200
79     H79   -13.7286   12.7512    0.0378 H        1 ZINC000096941866    0.1300
80     H80   -15.5774   12.2063    1.5667 H        1 ZINC000096941866    0.1300
81     H81   -15.1552   10.8643    3.5849 H        1 ZINC000096941866    0.1300
82     H82    -9.4292    4.7298    2.7853 H        1 ZINC000096941866    0.1200
83     H83    -9.5764    4.6862    1.0112 H        1 ZINC000096941866    0.1000
84     H84    -7.7795    3.1646    1.7944 H        1 ZINC000096941866    0.1400
85     H85    -6.9660    4.5341    2.5876 H        1 ZINC000096941866    0.1400
86     H86    -2.3895   -3.5375   -1.0018 H        1 ZINC000096941866    0.1600
87     H87    -0.0497   -3.6131   -0.7282 H        1 ZINC000096941866    0.1400
88     H88     0.8459   -2.1946   -0.1332 H        1 ZINC000096941866    0.1400
89     H89     1.3580   -5.0501    0.5786 H        1 ZINC000096941866    0.1500
90     H90     2.2537   -3.6317    1.1736 H        1 ZINC000096941866    0.1400
91     H91     2.3749   -3.3534    3.6423 H        1 ZINC000096941866    0.3900
92     H92     3.9973   -4.2281    3.6081 H        1 ZINC000096941866    0.1400
93     H93     6.0865   -5.5225    3.6201 H        1 ZINC000096941866    0.1500
94     H94     6.5150   -8.4813    3.5450 H        1 ZINC000096941866    0.4000
95     H95     0.7093   -7.1445    1.6681 H        1 ZINC000096941866    0.1400
96     H96     0.8217   -9.4263    0.7954 H        1 ZINC000096941866    0.1600
97     H97     4.8752   -9.6262    1.7158 H        1 ZINC000096941866    0.4300
@<TRIPOS>BOND
1     1     2     1
2     1     58    1
3     1     59    1
4     1     60    1
5     2     3     1
6     3     37    ar
7     3     4     ar
8     4     5     ar
9     4     61    1
10    5     6     1
11    5     34    ar
12    6     7     am
13    6     62    1
14    7     8     2
15    7     9     1
16    9     10    1
17    9     63    1
18    9     64    1
19    10    11    1
20    10    65    1
21    10    66    1
22    11    12    1
23    11    33    1
24    11    13    1
25    13    14    1
26    13    67    1
27    13    68    1
28    14    15    1
29    14    69    1
30    14    70    1
31    15    16    1
32    15    32    1
33    15    71    1
34    16    17    1
35    17    18    2
36    17    19    am
37    19    20    1
38    19    72    1
39    20    25    ar
40    20    21    ar
41    21    22    ar
42    21    73    1
43    22    23    ar
44    22    74    1
45    23    24    ar
46    23    75    1
47    24    25    ar
48    24    76    1
49    25    26    1
50    26    31    ar
51    26    27    ar
52    27    28    ar
53    27    77    1
54    28    29    ar
55    28    78    1
56    29    30    ar
57    29    79    1
58    30    31    ar
59    30    80    1
60    31    81    1
61    32    33    1
62    32    82    1
63    32    83    1
64    33    84    1
65    33    85    1
66    34    35    1
67    34    36    ar
68    36    37    ar
69    36    86    1
70    37    38    1
71    38    39    1
72    38    87    1
73    38    88    1
74    39    40    1
75    39    41    1
76    39    42    1
77    42    43    1
78    42    89    1
79    42    90    1
80    43    44    1
81    43    45    1
82    43    46    1
83    45    91    1
84    46    52    ar
85    46    47    ar
86    47    48    ar
87    47    92    1
88    48    49    ar
89    48    93    1
90    49    50    1
91    49    51    ar
92    50    94    1
93    51    57    1
94    51    52    ar
95    52    53    1
96    53    54    2
97    53    95    1
98    54    55    1
99    54    96    1
100   55    56    2
101   55    57    am
102   57    97    1
@<TRIPOS>SUBSTRUCTURE
1   ZINC000096941866 1     RESIDUE    1   A     ZIN   1
