@<TRIPOS>MOLECULE
ZINC000024044436
77    81    1     0     0
SMALL
USER_CHARGES
@<TRIPOS>ATOM
1      C1      0.0276    1.5019   -0.0243 C.3      1 ZINC000024044436   -0.1200
2      C2      0.0423   -0.0050   -0.0280 C.ar     1 ZINC000024044436   -0.0800
3      C3      0.0498   -0.6920   -1.2280 C.ar     1 ZINC000024044436   -0.0900
4      C4      0.0627   -2.0731   -1.2346 C.ar     1 ZINC000024044436   -0.1000
5      C5      0.0687   -2.7717   -0.0347 C.ar     1 ZINC000024044436    0.1500
6      N6      0.0823   -4.1731   -0.0381 N.pl3    1 ZINC000024044436   -0.3400
7      N7     -0.5531   -5.0026   -0.9710 N.2      1 ZINC000024044436   -0.2700
8      C8     -0.3148   -6.2480   -0.6469 C.2      1 ZINC000024044436    0.1100
9      C9     -0.8130   -7.4617   -1.3883 C.3      1 ZINC000024044436    0.0100
10     C10    -1.9549   -8.1073   -0.6008 C.3      1 ZINC000024044436   -0.1400
11     C11    -1.3192   -7.0431   -2.7701 C.3      1 ZINC000024044436   -0.1400
12     C12     0.3295   -8.4670   -1.5467 C.3      1 ZINC000024044436   -0.1400
13     C13     0.4801   -6.2623    0.5028 C.2      1 ZINC000024044436   -0.2600
14     C14     0.7202   -4.9712    0.8609 C.2      1 ZINC000024044436    0.3200
15     N15     1.4735   -4.5446    1.9542 N.am     1 ZINC000024044436   -0.6600
16     C16     2.0445   -5.4497    2.7735 C.2      1 ZINC000024044436    0.7200
17     O17     1.9028   -6.6383    2.5594 O.2      1 ZINC000024044436   -0.5400
18     N18     2.7726   -5.0374    3.8301 N.am     1 ZINC000024044436   -0.6700
19     C19     3.2861   -5.9738    4.7339 C.ar     1 ZINC000024044436    0.1500
20     C20     3.3744   -5.6618    6.1067 C.ar     1 ZINC000024044436   -0.0300
21     C21     2.9531   -4.4161    6.5989 C.ar     1 ZINC000024044436   -0.1100
22     C22     3.0525   -4.1491    7.9302 C.ar     1 ZINC000024044436   -0.1000
23     C23     3.5676   -5.0949    8.8146 C.ar     1 ZINC000024044436   -0.1100
24     C24     3.9859   -6.3125    8.3724 C.ar     1 ZINC000024044436   -0.1000
25     C25     3.8976   -6.6238    7.0054 C.ar     1 ZINC000024044436   -0.0500
26     C26     4.3206   -7.8744    6.5128 C.ar     1 ZINC000024044436    0.1100
27     O27     4.8253   -8.8064    7.3635 O.3      1 ZINC000024044436   -0.3200
28     C28     5.2341  -10.0514    6.7935 C.3      1 ZINC000024044436    0.0200
29     C29     5.7709  -10.9657    7.8967 C.3      1 ZINC000024044436    0.0000
30     N30     4.6840  -11.3019    8.8260 N.4      1 ZINC000024044436   -0.3900
31     H31     4.2653  -10.4530    9.1753 H        1 ZINC000024044436    0.4300
32     C32     5.2233  -12.0807    9.9493 C.3      1 ZINC000024044436   -0.0400
33     C33     4.0890  -12.4296   10.9162 C.3      1 ZINC000024044436    0.0400
34     O34     3.0761  -13.1543   10.2129 O.3      1 ZINC000024044436   -0.3600
35     C35     2.5359  -12.4458    9.0939 C.3      1 ZINC000024044436    0.0400
36     C36     3.6672  -12.0968    8.1236 C.3      1 ZINC000024044436   -0.0500
37     C37     4.2218   -8.1478    5.1780 C.ar     1 ZINC000024044436   -0.1800
38     C38     3.7041   -7.2093    4.2904 C.ar     1 ZINC000024044436   -0.0900
39     C39     0.0617   -2.0790    1.1686 C.ar     1 ZINC000024044436   -0.1500
40     C40     0.0539   -0.6978    1.1687 C.ar     1 ZINC000024044436   -0.0900
41     H41     1.0517    1.8752   -0.0277 H        1 ZINC000024044436    0.0800
42     H42    -0.4934    1.8624   -0.9113 H        1 ZINC000024044436    0.0700
43     H43    -0.4860    1.8581    0.8686 H        1 ZINC000024044436    0.0700
44     H44     0.0451   -0.1481   -2.1611 H        1 ZINC000024044436    0.1400
45     H45     0.0678   -2.6092   -2.1722 H        1 ZINC000024044436    0.1400
46     H46    -2.7688   -7.3911   -0.4879 H        1 ZINC000024044436    0.0600
47     H47    -2.3152   -8.9852   -1.1371 H        1 ZINC000024044436    0.0700
48     H48    -1.5942   -8.4055    0.3836 H        1 ZINC000024044436    0.0600
49     H49    -0.5057   -6.5832   -3.3311 H        1 ZINC000024044436    0.0600
50     H50    -1.6795   -7.9210   -3.3064 H        1 ZINC000024044436    0.0600
51     H51    -2.1331   -6.3269   -2.6572 H        1 ZINC000024044436    0.0600
52     H52     0.6901   -8.7653   -0.5623 H        1 ZINC000024044436    0.0600
53     H53    -0.0308   -9.3449   -2.0830 H        1 ZINC000024044436    0.0700
54     H54     1.1430   -8.0071   -2.1077 H        1 ZINC000024044436    0.0600
55     H55     0.8428   -7.1418    1.0140 H        1 ZINC000024044436    0.1800
56     H56     1.5865   -3.5965    2.1250 H        1 ZINC000024044436    0.4100
57     H57     2.9405   -4.0915    3.9640 H        1 ZINC000024044436    0.4100
58     H58     2.5526   -3.6735    5.9249 H        1 ZINC000024044436    0.1300
59     H59     2.7277   -3.1902    8.3064 H        1 ZINC000024044436    0.1300
60     H60     3.6362   -4.8584    9.8661 H        1 ZINC000024044436    0.1300
61     H61     4.3836   -7.0356    9.0691 H        1 ZINC000024044436    0.1300
62     H62     4.3808  -10.5274    6.3103 H        1 ZINC000024044436    0.0900
63     H63     6.0168   -9.8738    6.0560 H        1 ZINC000024044436    0.1100
64     H64     6.1643  -11.8796    7.4517 H        1 ZINC000024044436    0.1500
65     H65     6.5663  -10.4535    8.4380 H        1 ZINC000024044436    0.1500
66     H66     5.6747  -12.9983    9.5721 H        1 ZINC000024044436    0.1400
67     H67     5.9776  -11.4918   10.4711 H        1 ZINC000024044436    0.1400
68     H68     4.4787  -13.0438   11.7280 H        1 ZINC000024044436    0.1400
69     H69     3.6637  -11.5128   11.3244 H        1 ZINC000024044436    0.0800
70     H70     1.8016  -13.0717    8.5868 H        1 ZINC000024044436    0.1400
71     H71     2.0574  -11.5296    9.4397 H        1 ZINC000024044436    0.0800
72     H72     3.2663  -11.5199    7.2901 H        1 ZINC000024044436    0.1400
73     H73     4.1193  -13.0143    7.7470 H        1 ZINC000024044436    0.1400
74     H74     4.5477   -9.1080    4.8064 H        1 ZINC000024044436    0.1300
75     H75     3.6364   -7.4496    3.2396 H        1 ZINC000024044436    0.1500
76     H76     0.0663   -2.6196    2.1035 H        1 ZINC000024044436    0.1200
77     H77     0.0488   -0.1585    2.1043 H        1 ZINC000024044436    0.1300
@<TRIPOS>BOND
1     1     2     1
2     1     41    1
3     1     42    1
4     1     43    1
5     2     40    ar
6     2     3     ar
7     3     4     ar
8     3     44    1
9     4     5     ar
10    4     45    1
11    5     6     1
12    5     39    ar
13    6     14    1
14    6     7     1
15    7     8     2
16    8     9     1
17    8     13    1
18    9     10    1
19    9     11    1
20    9     12    1
21    10    46    1
22    10    47    1
23    10    48    1
24    11    49    1
25    11    50    1
26    11    51    1
27    12    52    1
28    12    53    1
29    12    54    1
30    13    14    2
31    13    55    1
32    14    15    1
33    15    16    am
34    15    56    1
35    16    17    2
36    16    18    am
37    18    19    1
38    18    57    1
39    19    38    ar
40    19    20    ar
41    20    25    ar
42    20    21    ar
43    21    22    ar
44    21    58    1
45    22    23    ar
46    22    59    1
47    23    24    ar
48    23    60    1
49    24    25    ar
50    24    61    1
51    25    26    ar
52    26    27    1
53    26    37    ar
54    27    28    1
55    28    29    1
56    28    62    1
57    28    63    1
58    29    30    1
59    29    64    1
60    29    65    1
61    30    31    1
62    30    36    1
63    30    32    1
64    32    33    1
65    32    66    1
66    32    67    1
67    33    34    1
68    33    68    1
69    33    69    1
70    34    35    1
71    35    36    1
72    35    70    1
73    35    71    1
74    36    72    1
75    36    73    1
76    37    38    ar
77    37    74    1
78    38    75    1
79    39    40    ar
80    39    76    1
81    40    77    1
@<TRIPOS>SUBSTRUCTURE
1   ZINC000024044436 1     RESIDUE    1   A     ZIN   1
