@<TRIPOS>MOLECULE
ZINC000002022217
23    22    1     0     0
SMALL
USER_CHARGES
@<TRIPOS>ATOM
1      C1     -0.2381    1.4837    0.0224 C.3      1 ZINC000002022217   -0.1400
2      C2     -0.0945   -0.0164    0.0092 C.2      1 ZINC000002022217    0.0100
3      C3      0.1206   -0.6637    1.1276 C.2      1 ZINC000002022217   -0.2600
4      C4      0.1232    0.0784    2.4392 C.3      1 ZINC000002022217   -0.0100
5      H5     -0.1585    1.1176    2.2692 H        1 ZINC000002022217    0.1300
6      N6      1.4675    0.0256    3.0291 N.4      1 ZINC000002022217   -0.6100
7      H7      1.7282   -0.9364    3.1864 H        1 ZINC000002022217    0.4300
8      H8      2.1284    0.4544    2.3987 H        1 ZINC000002022217    0.4000
9      H9      1.4692    0.5224    3.9073 H        1 ZINC000002022217    0.4200
10     C10    -0.8640   -0.5621    3.3806 C.2      1 ZINC000002022217    0.5000
11     O11    -0.4661   -1.1794    4.3538 O.co2    1 ZINC000002022217   -0.7100
12     O12    -2.0607   -0.4630    3.1692 O.co2    1 ZINC000002022217   -0.6100
13     C13    -0.1985   -0.7719   -1.2906 C.3      1 ZINC000002022217   -0.6900
14     P14    -1.9516   -1.1113   -1.6577 P.3      1 ZINC000002022217    2.1800
15     O15    -2.6033   -1.8605   -0.4459 O.co2    1 ZINC000002022217   -1.1500
16     O16    -2.7051    0.2403   -1.9024 O.co2    1 ZINC000002022217   -1.1700
17     O17    -2.0530   -2.0054   -2.9402 O.co2    1 ZINC000002022217   -1.1800
18     H18     0.7495    1.9435   -0.0152 H        1 ZINC000002022217    0.0500
19     H19    -0.8197    1.8007   -0.8432 H        1 ZINC000002022217    0.0900
20     H20    -0.7478    1.7918    0.9353 H        1 ZINC000002022217    0.0700
21     H21     0.2962   -1.7292    1.1096 H        1 ZINC000002022217    0.1100
22     H22     0.2317   -0.1737   -2.0939 H        1 ZINC000002022217    0.0600
23     H23     0.3443   -1.7135   -1.2080 H        1 ZINC000002022217    0.0600
@<TRIPOS>BOND
1     1     2     1
2     1     18    1
3     1     19    1
4     1     20    1
5     2     3     2
6     2     13    1
7     3     4     1
8     3     21    1
9     4     5     1
10    4     6     1
11    4     10    1
12    6     7     1
13    6     8     1
14    6     9     1
15    10    11    ar
16    10    12    ar
17    13    14    1
18    13    22    1
19    13    23    1
20    14    15    ar
21    14    16    ar
22    14    17    ar
@<TRIPOS>SUBSTRUCTURE
1   ZINC000002022217 1     RESIDUE    1   A     ZIN   1
