@<TRIPOS>MOLECULE
ZINC000036184574
76    80    1     0     0
SMALL
USER_CHARGES
@<TRIPOS>ATOM
1      C1      4.0235   -1.0129    2.4307 C.3      1 ZINC000036184574   -0.1600
2      C2      2.6105   -1.5972    2.4845 C.3      1 ZINC000036184574   -0.0700
3      C3      2.6893   -3.0961    2.7812 C.3      1 ZINC000036184574   -0.1700
4      C4      1.8120   -0.9003    3.5880 C.3      1 ZINC000036184574   -0.1500
5      C5      1.9170   -1.3796    1.1382 C.3      1 ZINC000036184574   -0.1400
6      C6      2.7851   -1.9566    0.0182 C.3      1 ZINC000036184574    0.0600
7      H7      3.8104   -1.5980    0.1091 H        1 ZINC000036184574    0.1700
8      N8      2.7500   -3.4437    0.0470 N.4      1 ZINC000036184574   -0.5100
9      H9      3.4223   -3.7993    0.7100 H        1 ZINC000036184574    0.4400
10     H10     1.8230   -3.7700    0.2757 H        1 ZINC000036184574    0.4400
11     C11     3.1193   -3.8485   -1.3347 C.3      1 ZINC000036184574    0.0100
12     H12     4.1997   -3.7971   -1.4699 H        1 ZINC000036184574    0.1800
13     C13     2.6201   -5.2403   -1.6257 C.2      1 ZINC000036184574    0.5200
14     O14     1.7262   -5.7159   -0.9580 O.2      1 ZINC000036184574   -0.4900
15     N15     3.1669   -5.9566   -2.6279 N.am     1 ZINC000036184574   -0.7100
16     C16     2.6367   -7.2827   -2.9545 C.3      1 ZINC000036184574    0.0900
17     C17     3.4293   -7.8757   -4.1211 C.3      1 ZINC000036184574   -0.0200
18     N18     2.8978   -9.2054   -4.4485 N.4      1 ZINC000036184574   -0.3800
19     H19     2.9055   -9.7838   -3.6218 H        1 ZINC000036184574    0.4300
20     C20     3.7324   -9.8245   -5.4874 C.3      1 ZINC000036184574   -0.0400
21     C21     3.1766  -11.2099   -5.8266 C.3      1 ZINC000036184574    0.0300
22     O22     1.8172  -11.0813   -6.2523 O.3      1 ZINC000036184574   -0.3500
23     C23     0.9684  -10.4611   -5.2824 C.3      1 ZINC000036184574    0.0400
24     C24     1.5199   -9.0744   -4.9420 C.3      1 ZINC000036184574   -0.0500
25     C25     2.4125   -2.8181   -2.2455 C.3      1 ZINC000036184574   -0.0200
26     H26     1.4526   -3.2071   -2.5854 H        1 ZINC000036184574    0.1300
27     C27     3.2854   -2.4736   -3.4246 C.ar     1 ZINC000036184574   -0.1300
28     C28     4.6519   -2.3494   -3.2599 C.ar     1 ZINC000036184574   -0.0900
29     C29     5.4537   -2.0338   -4.3412 C.ar     1 ZINC000036184574   -0.1000
30     C30     4.8900   -1.8415   -5.5884 C.ar     1 ZINC000036184574   -0.0600
31     C31     3.5225   -1.9648   -5.7560 C.ar     1 ZINC000036184574   -0.0700
32     Cl32    2.8141   -1.7229   -7.3223 Cl       1 ZINC000036184574   -0.0200
33     C33     2.7193   -2.2871   -4.6741 C.ar     1 ZINC000036184574    0.1300
34     F34     1.3835   -2.4078   -4.8360 F        1 ZINC000036184574   -0.1200
35     C35     2.2068   -1.5852   -1.3538 C.3      1 ZINC000036184574   -0.0600
36     C36     0.7519   -1.2166   -1.2519 C.2      1 ZINC000036184574    0.5400
37     O37    -0.1450   -1.9172   -0.8327 O.2      1 ZINC000036184574   -0.4700
38     N38     0.6385    0.0425   -1.7171 N.am     1 ZINC000036184574   -0.6400
39     C39     1.8677    0.5671   -2.1223 C.ar     1 ZINC000036184574    0.1700
40     C40     2.1947    1.8110   -2.6554 C.ar     1 ZINC000036184574   -0.1200
41     C41     3.5038    2.1037   -2.9836 C.ar     1 ZINC000036184574    0.0200
42     Cl42    3.9014    3.6577   -3.6474 Cl       1 ZINC000036184574   -0.0300
43     C43     4.5001    1.1640   -2.7853 C.ar     1 ZINC000036184574   -0.1200
44     C44     4.1825   -0.0747   -2.2564 C.ar     1 ZINC000036184574   -0.0500
45     C45     2.8785   -0.3706   -1.9287 C.ar     1 ZINC000036184574   -0.1600
46     H46     4.5923   -1.5095    1.6446 H        1 ZINC000036184574    0.0500
47     H47     3.9673    0.0549    2.2194 H        1 ZINC000036184574    0.0700
48     H48     4.5175   -1.1680    3.3899 H        1 ZINC000036184574    0.0800
49     H49     2.7424   -3.2509    3.8588 H        1 ZINC000036184574    0.0900
50     H50     1.8026   -3.5919    2.3861 H        1 ZINC000036184574    0.0600
51     H51     3.5792   -3.5134    2.3099 H        1 ZINC000036184574    0.0500
52     H52     1.7558    0.1676    3.3767 H        1 ZINC000036184574    0.0700
53     H53     0.8054   -1.3165    3.6263 H        1 ZINC000036184574    0.0600
54     H54     2.3061   -1.0553    4.5472 H        1 ZINC000036184574    0.0700
55     H55     0.9492   -1.8811    1.1427 H        1 ZINC000036184574    0.1100
56     H56     1.7723   -0.3121    0.9724 H        1 ZINC000036184574    0.1200
57     H57     3.9114   -5.5940   -3.1330 H        1 ZINC000036184574    0.4200
58     H58     2.7272   -7.9342   -2.0853 H        1 ZINC000036184574    0.1000
59     H59     1.5872   -7.1953   -3.2354 H        1 ZINC000036184574    0.1000
60     H60     3.3389   -7.2241   -4.9902 H        1 ZINC000036184574    0.1400
61     H61     4.4789   -7.9630   -3.8402 H        1 ZINC000036184574    0.1400
62     H62     3.7233   -9.2003   -6.3810 H        1 ZINC000036184574    0.1400
63     H63     4.7547   -9.9223   -5.1222 H        1 ZINC000036184574    0.1500
64     H64     3.7684  -11.6534   -6.6274 H        1 ZINC000036184574    0.1500
65     H65     3.2228  -11.8468   -4.9433 H        1 ZINC000036184574    0.0800
66     H66    -0.0380  -10.3627   -5.6893 H        1 ZINC000036184574    0.1500
67     H67     0.9389  -11.0725   -4.3805 H        1 ZINC000036184574    0.0800
68     H68     0.8998   -8.6154   -4.1720 H        1 ZINC000036184574    0.1400
69     H69     1.5118   -8.4504   -5.8357 H        1 ZINC000036184574    0.1400
70     H70     5.0938   -2.4986   -2.2858 H        1 ZINC000036184574    0.1400
71     H71     6.5215   -1.9371   -4.2110 H        1 ZINC000036184574    0.1600
72     H72     5.5173   -1.5947   -6.4322 H        1 ZINC000036184574    0.1600
73     H73    -0.1997    0.5282   -1.7653 H        1 ZINC000036184574    0.4300
74     H74     1.4222    2.5491   -2.8132 H        1 ZINC000036184574    0.1500
75     H75     5.5227    1.3967   -3.0430 H        1 ZINC000036184574    0.1500
76     H76     4.9582   -0.8099   -2.1009 H        1 ZINC000036184574    0.1500
@<TRIPOS>BOND
1     1     2     1
2     1     46    1
3     1     47    1
4     1     48    1
5     2     3     1
6     2     4     1
7     2     5     1
8     3     49    1
9     3     50    1
10    3     51    1
11    4     52    1
12    4     53    1
13    4     54    1
14    5     6     1
15    5     55    1
16    5     56    1
17    6     7     1
18    6     35    1
19    6     8     1
20    8     9     1
21    8     10    1
22    8     11    1
23    11    12    1
24    11    13    1
25    11    25    1
26    13    14    2
27    13    15    am
28    15    16    1
29    15    57    1
30    16    17    1
31    16    58    1
32    16    59    1
33    17    18    1
34    17    60    1
35    17    61    1
36    18    19    1
37    18    24    1
38    18    20    1
39    20    21    1
40    20    62    1
41    20    63    1
42    21    22    1
43    21    64    1
44    21    65    1
45    22    23    1
46    23    24    1
47    23    66    1
48    23    67    1
49    24    68    1
50    24    69    1
51    25    26    1
52    25    27    1
53    25    35    1
54    27    33    ar
55    27    28    ar
56    28    29    ar
57    28    70    1
58    29    30    ar
59    29    71    1
60    30    31    ar
61    30    72    1
62    31    32    1
63    31    33    ar
64    33    34    1
65    35    45    1
66    35    36    1
67    36    37    2
68    36    38    am
69    38    39    1
70    38    73    1
71    39    45    ar
72    39    40    ar
73    40    41    ar
74    40    74    1
75    41    42    1
76    41    43    ar
77    43    44    ar
78    43    75    1
79    44    45    ar
80    44    76    1
@<TRIPOS>SUBSTRUCTURE
1   ZINC000036184574 1     RESIDUE    1   A     ZIN   1
