@<TRIPOS>MOLECULE
ZINC000003965738
49    52    1     0     0
SMALL
USER_CHARGES
@<TRIPOS>ATOM
1      O1      0.0037    0.0165   -0.2522 O.2      1 ZINC000003965738   -0.5500
2      C2     -0.0322    1.2311   -0.2424 C.2      1 ZINC000003965738    0.6600
3      O3      1.0840    1.9397   -0.4971 O.3      1 ZINC000003965738   -0.3500
4      C4      2.2939    1.1866   -0.7750 C.3      1 ZINC000003965738    0.0800
5      H5      2.2630    0.2361   -0.2424 H        1 ZINC000003965738    0.0900
6      C6      2.4029    0.9278   -2.2805 C.3      1 ZINC000003965738    0.0400
7      N7      3.6390    1.5356   -2.7911 N.3      1 ZINC000003965738   -0.5300
8      C8      3.6278    2.9928   -2.6028 C.3      1 ZINC000003965738    0.0500
9      C9      3.5528    3.3106   -1.1068 C.3      1 ZINC000003965738   -0.1500
10     C10     3.5169    1.9919   -0.3186 C.3      1 ZINC000003965738   -0.0900
11     C11     4.7819    1.1898   -0.6492 C.3      1 ZINC000003965738   -0.1500
12     C12     4.8225    0.9332   -2.1620 C.3      1 ZINC000003965738    0.0500
13     N13    -1.1906    1.8689    0.0179 N.am     1 ZINC000003965738   -0.5500
14     C14    -2.4281    1.1021    0.1821 C.3      1 ZINC000003965738    0.1700
15     C15    -2.5995    0.7297    1.6323 C.ar     1 ZINC000003965738   -0.0700
16     C16    -2.0686   -0.4544    2.1082 C.ar     1 ZINC000003965738   -0.1100
17     C17    -2.2249   -0.7983    3.4400 C.ar     1 ZINC000003965738    0.1000
18     F18    -1.7058   -1.9558    3.9047 F        1 ZINC000003965738   -0.1200
19     C19    -2.9141    0.0459    4.2964 C.ar     1 ZINC000003965738    0.0400
20     F20    -3.0674   -0.2878    5.5966 F        1 ZINC000003965738   -0.1100
21     C21    -3.4453    1.2330    3.8173 C.ar     1 ZINC000003965738    0.1000
22     F22    -4.1171    2.0577    4.6503 F        1 ZINC000003965738   -0.1200
23     C23    -3.2826    1.5755    2.4860 C.ar     1 ZINC000003965738   -0.1200
24     C24    -1.2114    3.2636    0.1312 C.ar     1 ZINC000003965738    0.1600
25     C25    -1.8780    4.0285   -0.8168 C.ar     1 ZINC000003965738   -0.1300
26     C26    -1.8975    5.4052   -0.7034 C.ar     1 ZINC000003965738   -0.0800
27     C27    -1.2541    6.0228    0.3526 C.ar     1 ZINC000003965738   -0.1500
28     C28    -0.5874    5.2635    1.3003 C.ar     1 ZINC000003965738    0.1100
29     F29     0.0410    5.8698    2.3311 F        1 ZINC000003965738   -0.1300
30     C30    -0.5702    3.8845    1.1947 C.ar     1 ZINC000003965738   -0.1400
31     H31     2.4229   -0.1464   -2.4643 H        1 ZINC000003965738    0.0900
32     H32     1.5446    1.3680   -2.7881 H        1 ZINC000003965738    0.0900
33     H33     4.5393    3.4205   -3.0202 H        1 ZINC000003965738    0.0800
34     H34     2.7611    3.4182   -3.1089 H        1 ZINC000003965738    0.0800
35     H35     4.4289    3.8880   -0.8117 H        1 ZINC000003965738    0.0700
36     H36     2.6489    3.8836   -0.9000 H        1 ZINC000003965738    0.0700
37     H37     3.4571    2.1957    0.7505 H        1 ZINC000003965738    0.0900
38     H38     5.6631    1.7590   -0.3532 H        1 ZINC000003965738    0.0800
39     H39     4.7620    0.2398   -0.1150 H        1 ZINC000003965738    0.0700
40     H40     4.8247   -0.1407   -2.3488 H        1 ZINC000003965738    0.0800
41     H41     5.7247    1.3777   -2.5822 H        1 ZINC000003965738    0.0800
42     H42    -3.2757    1.7068   -0.1404 H        1 ZINC000003965738    0.1100
43     H43    -2.3772    0.1963   -0.4220 H        1 ZINC000003965738    0.1100
44     H44    -1.5317   -1.1119    1.4406 H        1 ZINC000003965738    0.1600
45     H45    -3.6964    2.5004    2.1123 H        1 ZINC000003965738    0.1500
46     H46    -2.3809    3.5474   -1.6426 H        1 ZINC000003965738    0.1400
47     H47    -2.4158    5.9998   -1.4411 H        1 ZINC000003965738    0.1400
48     H48    -1.2708    7.0993    0.4388 H        1 ZINC000003965738    0.1400
49     H49    -0.0506    3.2921    1.9333 H        1 ZINC000003965738    0.1300
@<TRIPOS>BOND
1     1     2     2
2     2     3     1
3     2     13    am
4     3     4     1
5     4     5     1
6     4     10    1
7     4     6     1
8     6     7     1
9     6     31    1
10    6     32    1
11    7     12    1
12    7     8     1
13    8     9     1
14    8     33    1
15    8     34    1
16    9     10    1
17    9     35    1
18    9     36    1
19    10    11    1
20    10    37    1
21    11    12    1
22    11    38    1
23    11    39    1
24    12    40    1
25    12    41    1
26    13    14    1
27    13    24    1
28    14    15    1
29    14    42    1
30    14    43    1
31    15    23    ar
32    15    16    ar
33    16    17    ar
34    16    44    1
35    17    18    1
36    17    19    ar
37    19    20    1
38    19    21    ar
39    21    22    1
40    21    23    ar
41    23    45    1
42    24    30    ar
43    24    25    ar
44    25    26    ar
45    25    46    1
46    26    27    ar
47    26    47    1
48    27    28    ar
49    27    48    1
50    28    29    1
51    28    30    ar
52    30    49    1
@<TRIPOS>SUBSTRUCTURE
1   ZINC000003965738 1     RESIDUE    1   A     ZIN   1
