@<TRIPOS>MOLECULE
ZINC000001540245
77    78    1     0     0
SMALL
USER_CHARGES
@<TRIPOS>ATOM
1      C1      0.8362   -0.0219   -0.3011 C.3      1 ZINC000001540245   -0.1400
2      C2     -0.4646    0.7834   -0.3214 C.3      1 ZINC000001540245   -0.0500
3      C3     -0.5928    1.5116   -1.6609 C.3      1 ZINC000001540245   -0.1400
4      C4     -1.6352   -0.1486   -0.1423 C.ar     1 ZINC000001540245   -0.0900
5      C5     -1.8532   -1.1670   -1.0512 C.ar     1 ZINC000001540245   -0.1100
6      C6     -2.9270   -2.0219   -0.8869 C.ar     1 ZINC000001540245   -0.0600
7      C7     -3.1650   -3.1319   -1.8780 C.3      1 ZINC000001540245   -0.0600
8      C8     -3.2368   -2.5478   -3.2903 C.3      1 ZINC000001540245   -0.1400
9      C9     -2.0164   -4.1397   -1.8006 C.3      1 ZINC000001540245   -0.1400
10     C10    -3.7823   -1.8590    0.1869 C.ar     1 ZINC000001540245   -0.0400
11     C11    -4.9526   -2.7913    0.3663 C.3      1 ZINC000001540245   -0.0800
12     C12    -6.1645   -2.2137   -0.3183 C.2      1 ZINC000001540245    0.5400
13     O13    -6.0856   -1.1497   -0.8951 O.2      1 ZINC000001540245   -0.6200
14     N14    -7.3360   -2.8794   -0.2896 N.pl3    1 ZINC000001540245   -1.1300
15     S15    -8.6677   -2.2447   -1.0419 S.o2     1 ZINC000001540245    2.7200
16     O16    -9.0088   -1.0654   -0.3263 O.2      1 ZINC000001540245   -1.0300
17     O17    -8.3847   -2.2545   -2.4344 O.2      1 ZINC000001540245   -1.0200
18     O18    -9.8142   -3.2230   -0.8294 O.3      1 ZINC000001540245   -0.6800
19     C19   -10.3345   -3.2007    0.4258 C.ar     1 ZINC000001540245    0.1000
20     C20    -9.8133   -4.0295    1.4088 C.ar     1 ZINC000001540245   -0.0600
21     C21    -8.6693   -4.9557    1.0857 C.3      1 ZINC000001540245   -0.0600
22     C22    -7.4725   -4.6183    1.9771 C.3      1 ZINC000001540245   -0.1300
23     C23    -9.0989   -6.4029    1.3348 C.3      1 ZINC000001540245   -0.1400
24     C24   -10.3436   -4.0046    2.6841 C.ar     1 ZINC000001540245   -0.1200
25     C25   -11.3932   -3.1550    2.9812 C.ar     1 ZINC000001540245   -0.1100
26     C26   -11.9147   -2.3283    2.0032 C.ar     1 ZINC000001540245   -0.1200
27     C27   -11.3838   -2.3450    0.7279 C.ar     1 ZINC000001540245   -0.0600
28     C28   -11.9527   -1.4438   -0.3375 C.3      1 ZINC000001540245   -0.0600
29     C29   -13.4315   -1.7742   -0.5488 C.3      1 ZINC000001540245   -0.1400
30     C30   -11.8137    0.0154    0.1012 C.3      1 ZINC000001540245   -0.1500
31     C31    -3.5637   -0.8411    1.0963 C.ar     1 ZINC000001540245   -0.0600
32     C32    -4.4957   -0.6637    2.2672 C.3      1 ZINC000001540245   -0.0600
33     C33    -3.7405   -0.9458    3.5675 C.3      1 ZINC000001540245   -0.1400
34     C34    -5.0242    0.7720    2.2855 C.3      1 ZINC000001540245   -0.1400
35     C35    -2.4877    0.0114    0.9341 C.ar     1 ZINC000001540245   -0.1200
36     H36     1.6829    0.6522   -0.4307 H        1 ZINC000001540245    0.0500
37     H37     0.9275   -0.5407    0.6531 H        1 ZINC000001540245    0.0500
38     H38     0.8249   -0.7509   -1.1114 H        1 ZINC000001540245    0.0600
39     H39    -0.4533    1.5124    0.4888 H        1 ZINC000001540245    0.0700
40     H40    -0.6041    0.7826   -2.4711 H        1 ZINC000001540245    0.0600
41     H41    -1.5195    2.0853   -1.6753 H        1 ZINC000001540245    0.0600
42     H42     0.2539    2.1857   -1.7905 H        1 ZINC000001540245    0.0500
43     H43    -1.1849   -1.2946   -1.8899 H        1 ZINC000001540245    0.1100
44     H44    -4.1043   -3.6329   -1.6439 H        1 ZINC000001540245    0.0900
45     H45    -2.2975   -2.0469   -3.5245 H        1 ZINC000001540245    0.0500
46     H46    -3.4089   -3.3507   -4.0072 H        1 ZINC000001540245    0.0500
47     H47    -4.0551   -1.8299   -3.3454 H        1 ZINC000001540245    0.0600
48     H48    -1.9653   -4.5558   -0.7945 H        1 ZINC000001540245    0.0500
49     H49    -2.1886   -4.9425   -2.5175 H        1 ZINC000001540245    0.0500
50     H50    -1.0771   -3.6387   -2.0348 H        1 ZINC000001540245    0.0500
51     H51    -4.7153   -3.7607   -0.0718 H        1 ZINC000001540245    0.0900
52     H52    -5.1598   -2.9139    1.4294 H        1 ZINC000001540245    0.0900
53     H53    -8.3885   -4.8351    0.0394 H        1 ZINC000001540245    0.1000
54     H54    -6.6451   -5.2883    1.7434 H        1 ZINC000001540245    0.0500
55     H55    -7.1665   -3.5873    1.7996 H        1 ZINC000001540245    0.0900
56     H56    -7.7533   -4.7390    3.0234 H        1 ZINC000001540245    0.0300
57     H57    -9.9515   -6.6433    0.6997 H        1 ZINC000001540245    0.0500
58     H58    -8.2715   -7.0729    1.1011 H        1 ZINC000001540245    0.0600
59     H59    -9.3797   -6.5236    2.3810 H        1 ZINC000001540245    0.0500
60     H60    -9.9383   -4.6496    3.4497 H        1 ZINC000001540245    0.1300
61     H61   -11.8066   -3.1373    3.9788 H        1 ZINC000001540245    0.1200
62     H62   -12.7348   -1.6658    2.2377 H        1 ZINC000001540245    0.1300
63     H63   -11.4095   -1.5960   -1.2702 H        1 ZINC000001540245    0.0700
64     H64   -13.8430   -1.1223   -1.3195 H        1 ZINC000001540245    0.0600
65     H65   -13.5305   -2.8137   -0.8614 H        1 ZINC000001540245    0.0500
66     H66   -13.9747   -1.6219    0.3838 H        1 ZINC000001540245    0.0600
67     H67   -10.7602    0.2508    0.2517 H        1 ZINC000001540245    0.0900
68     H68   -12.2252    0.6672   -0.6695 H        1 ZINC000001540245    0.0500
69     H69   -12.3569    0.1676    1.0339 H        1 ZINC000001540245    0.0500
70     H70    -5.3315   -1.3574    2.1746 H        1 ZINC000001540245    0.0900
71     H71    -4.4146   -0.8175    4.4144 H        1 ZINC000001540245    0.0500
72     H72    -3.3640   -1.9687    3.5545 H        1 ZINC000001540245    0.0500
73     H73    -2.9047   -0.2522    3.6601 H        1 ZINC000001540245    0.0500
74     H74    -5.5622    0.9729    1.3591 H        1 ZINC000001540245    0.0600
75     H75    -5.6983    0.9003    3.1323 H        1 ZINC000001540245    0.0500
76     H76    -4.1884    1.4656    2.3780 H        1 ZINC000001540245    0.0500
77     H77    -2.3169    0.8067    1.6446 H        1 ZINC000001540245    0.1100
@<TRIPOS>BOND
1     1     2     1
2     1     36    1
3     1     37    1
4     1     38    1
5     2     3     1
6     2     4     1
7     2     39    1
8     3     40    1
9     3     41    1
10    3     42    1
11    4     35    ar
12    4     5     ar
13    5     6     ar
14    5     43    1
15    6     7     1
16    6     10    ar
17    7     8     1
18    7     9     1
19    7     44    1
20    8     45    1
21    8     46    1
22    8     47    1
23    9     48    1
24    9     49    1
25    9     50    1
26    10    11    1
27    10    31    ar
28    11    12    1
29    11    51    1
30    11    52    1
31    12    13    2
32    12    14    1
33    14    15    1
34    15    16    2
35    15    17    2
36    15    18    1
37    18    19    1
38    19    27    ar
39    19    20    ar
40    20    21    1
41    20    24    ar
42    21    22    1
43    21    23    1
44    21    53    1
45    22    54    1
46    22    55    1
47    22    56    1
48    23    57    1
49    23    58    1
50    23    59    1
51    24    25    ar
52    24    60    1
53    25    26    ar
54    25    61    1
55    26    27    ar
56    26    62    1
57    27    28    1
58    28    29    1
59    28    30    1
60    28    63    1
61    29    64    1
62    29    65    1
63    29    66    1
64    30    67    1
65    30    68    1
66    30    69    1
67    31    32    1
68    31    35    ar
69    32    33    1
70    32    34    1
71    32    70    1
72    33    71    1
73    33    72    1
74    33    73    1
75    34    74    1
76    34    75    1
77    34    76    1
78    35    77    1
@<TRIPOS>SUBSTRUCTURE
1   ZINC000001540245 1     RESIDUE    1   A     ZIN   1
