@<TRIPOS>MOLECULE
ZINC000004019701
55    58    1     0     0
SMALL
USER_CHARGES
@<TRIPOS>ATOM
1      C1      1.7359   -0.8805   -1.6528 C.3      1 ZINC000004019701    0.0300
2      N2      1.1165   -0.3928   -0.4132 N.3      1 ZINC000004019701   -0.5100
3      C3      1.4609    1.0145   -0.1709 C.3      1 ZINC000004019701    0.0300
4      C4     -0.3402   -0.5806   -0.4434 C.3      1 ZINC000004019701    0.0700
5      H5     -0.7385   -0.1402   -1.3574 H        1 ZINC000004019701    0.0600
6      C6     -0.9508    0.1097    0.7432 C.2      1 ZINC000004019701    0.4200
7      O7     -1.3283    1.2596    0.6516 O.2      1 ZINC000004019701   -0.5600
8      C8     -1.0886   -0.6092    2.0074 C.2      1 ZINC000004019701   -0.5100
9      C9     -1.5265    0.1075    3.2157 C.2      1 ZINC000004019701    0.5900
10     N10    -1.6742    1.4469    3.1884 N.am     1 ZINC000004019701   -0.8800
11     O11    -1.7551   -0.5088    4.2391 O.2      1 ZINC000004019701   -0.5700
12     C12    -0.8102   -1.9509    2.0705 C.2      1 ZINC000004019701    0.3400
13     O13    -0.9648   -2.5847    3.2424 O.3      1 ZINC000004019701   -0.5800
14     C14    -0.3412   -2.7382    0.8854 C.3      1 ZINC000004019701    0.1200
15     O15     1.0787   -2.8659    0.9845 O.3      1 ZINC000004019701   -0.5400
16     C16    -0.9070   -4.1261    0.9405 C.2      1 ZINC000004019701    0.3800
17     O17    -0.5777   -4.8446    1.8645 O.2      1 ZINC000004019701   -0.4800
18     C18    -1.7878   -4.6360   -0.0066 C.2      1 ZINC000004019701   -0.4700
19     C19    -2.2083   -5.9483    0.1050 C.2      1 ZINC000004019701    0.3300
20     O20    -1.7162   -6.7403    1.0824 O.3      1 ZINC000004019701   -0.6100
21     C21    -3.1959   -6.4749   -0.8489 C.ar     1 ZINC000004019701   -0.0800
22     C22    -3.4058   -7.8549   -0.9724 C.ar     1 ZINC000004019701    0.1300
23     O23    -2.7067   -8.7245   -0.2006 O.3      1 ZINC000004019701   -0.4800
24     C24    -4.3343   -8.3251   -1.8898 C.ar     1 ZINC000004019701   -0.1600
25     C25    -5.0440   -7.4375   -2.6744 C.ar     1 ZINC000004019701   -0.1200
26     C26    -4.8416   -6.0716   -2.5513 C.ar     1 ZINC000004019701   -0.1400
27     C27    -3.9295   -5.5866   -1.6412 C.ar     1 ZINC000004019701   -0.0800
28     C28    -3.7288   -4.1028   -1.4775 C.3      1 ZINC000004019701    0.1800
29     C29    -4.1294   -3.3904   -2.7710 C.3      1 ZINC000004019701   -0.1900
30     O30    -4.5438   -3.6295   -0.4034 O.3      1 ZINC000004019701   -0.5300
31     C31    -2.2627   -3.8056   -1.1692 C.3      1 ZINC000004019701    0.0000
32     H32    -1.6555   -4.0472   -2.0415 H        1 ZINC000004019701    0.0500
33     C33    -2.1016   -2.3196   -0.8374 C.3      1 ZINC000004019701    0.1300
34     H34    -2.7641   -2.0548   -0.0134 H        1 ZINC000004019701    0.1100
35     O35    -2.4269   -1.5338   -1.9858 O.3      1 ZINC000004019701   -0.5500
36     C36    -0.6507   -2.0645   -0.4300 C.3      1 ZINC000004019701   -0.0800
37     H37    -0.0146   -2.5220   -1.1878 H        1 ZINC000004019701    0.0700
38     H38     2.8073   -0.6818   -1.6261 H        1 ZINC000004019701    0.0600
39     H39     1.5676   -1.9535   -1.7453 H        1 ZINC000004019701    0.0700
40     H40     1.2924   -0.3682   -2.5065 H        1 ZINC000004019701    0.0100
41     H41     1.0073    1.6375   -0.9417 H        1 ZINC000004019701    0.0200
42     H42     1.0870    1.3168    0.8073 H        1 ZINC000004019701    0.0700
43     H43     2.5441    1.1334   -0.1985 H        1 ZINC000004019701    0.0600
44     H44    -1.5607    1.9305    2.3552 H        1 ZINC000004019701    0.4000
45     H45    -1.8940    1.9273    4.0019 H        1 ZINC000004019701    0.3700
46     H46     1.3750   -3.3796    1.7483 H        1 ZINC000004019701    0.3700
47     H47    -3.1348   -8.9359    0.6403 H        1 ZINC000004019701    0.3900
48     H48    -4.5022   -9.3872   -1.9907 H        1 ZINC000004019701    0.1200
49     H49    -5.7621   -7.8104   -3.3898 H        1 ZINC000004019701    0.1200
50     H50    -5.4010   -5.3862   -3.1707 H        1 ZINC000004019701    0.1200
51     H51    -5.1328   -3.7016   -3.0614 H        1 ZINC000004019701    0.0500
52     H52    -4.1153   -2.3122   -2.6113 H        1 ZINC000004019701    0.1000
53     H53    -3.4253   -3.6498   -3.5617 H        1 ZINC000004019701    0.0600
54     H54    -5.4905   -3.7776   -0.5332 H        1 ZINC000004019701    0.3600
55     H55    -1.9175   -1.7617   -2.7755 H        1 ZINC000004019701    0.3600
@<TRIPOS>BOND
1     1     2     1
2     1     38    1
3     1     39    1
4     1     40    1
5     2     3     1
6     2     4     1
7     3     41    1
8     3     42    1
9     3     43    1
10    4     5     1
11    4     36    1
12    4     6     1
13    6     7     2
14    6     8     1
15    8     9     1
16    8     12    2
17    9     10    am
18    9     11    2
19    10    44    1
20    10    45    1
21    12    13    1
22    12    14    1
23    14    36    1
24    14    15    1
25    14    16    1
26    15    46    1
27    16    17    2
28    16    18    1
29    18    31    1
30    18    19    2
31    19    20    1
32    19    21    1
33    21    27    ar
34    21    22    ar
35    22    23    1
36    22    24    ar
37    23    47    1
38    24    25    ar
39    24    48    1
40    25    26    ar
41    25    49    1
42    26    27    ar
43    26    50    1
44    27    28    1
45    28    29    1
46    28    30    1
47    28    31    1
48    29    51    1
49    29    52    1
50    29    53    1
51    30    54    1
52    31    32    1
53    31    33    1
54    33    34    1
55    33    35    1
56    33    36    1
57    35    55    1
58    36    37    1
@<TRIPOS>SUBSTRUCTURE
1   ZINC000004019701 1     RESIDUE    1   A     ZIN   1
