@<TRIPOS>MOLECULE
ZINC000006095555
  34   35    0    0    0
SMALL
USER_CHARGES
NO_NAME
@<TRIPOS>ATOM
    1 N1        0.0471     1.2269     0.5382 N.2    1 <0>      -0.8000
    2 C2        0.0656    -0.0722     0.4279 C.2    1 <0>       0.6400
    3 N3       -1.1059    -0.7873     0.5225 N.pl3  1 <0>      -0.8500
    4 N4        1.2567    -0.7278     0.2170 N.pl3  1 <0>      -0.6100
    5 N5        2.4497     0.0004     0.1207 N.2    1 <0>      -0.2100
    6 C6        3.5929    -0.6267     0.0360 C.2    1 <0>       0.1800
    7 C7        4.8581     0.1417     0.0034 C.ar   1 <0>      -0.0500
    8 C8        6.0777    -0.5225    -0.1294 C.ar   1 <0>      -0.0900
    9 C9        7.2533     0.1991    -0.1590 C.ar   1 <0>      -0.1200
   10 C10       7.2243     1.5786    -0.0569 C.ar   1 <0>      -0.1000
   11 C11       6.0181     2.2431     0.0755 C.ar   1 <0>      -0.1200
   12 C12       4.8352     1.5332     0.0997 C.ar   1 <0>      -0.0800
   13 C13       3.6230    -2.1044    -0.0275 C.ar   1 <0>      -0.1700
   14 C14       3.2060    -2.8615     1.0666 C.ar   1 <0>      -0.0400
   15 C15       3.2363    -4.2406     1.0017 C.ar   1 <0>      -0.0900
   16 Cl16      2.7167    -5.1817     2.3648 Cl     1 <0>      -0.0700
   17 C17       3.6792    -4.8760    -0.1465 C.ar   1 <0>      -0.0400
   18 C18       4.0955    -4.1366    -1.2373 C.ar   1 <0>      -0.1900
   19 C19       4.0656    -2.7507    -1.1899 C.ar   1 <0>       0.2500
   20 N20       4.4856    -2.0031    -2.2901 N.pl3  1 <0>      -0.8600
   21 H21       0.8731     1.7311     0.4715 H      1 <0>       0.3500
   22 H22      -1.9456    -0.3251     0.6712 H      1 <0>       0.4200
   23 H23      -1.0922    -1.7537     0.4405 H      1 <0>       0.4000
   24 H24       1.2705    -1.6943     0.1350 H      1 <0>       0.3800
   25 H25       6.1016    -1.5993    -0.2085 H      1 <0>       0.1300
   26 H26       8.1981    -0.3139    -0.2618 H      1 <0>       0.1300
   27 H27       8.1472     2.1390    -0.0803 H      1 <0>       0.1300
   28 H28       6.0020     3.3200     0.1551 H      1 <0>       0.1300
   29 H29       3.8941     2.0530     0.2027 H      1 <0>       0.1300
   30 H30       2.8599    -2.3699     1.9638 H      1 <0>       0.1300
   31 H31       3.6996    -5.9549    -0.1895 H      1 <0>       0.1400
   32 H32       4.4403    -4.6385    -2.1293 H      1 <0>       0.1400
   33 H33       4.7395    -2.4508    -3.1123 H      1 <0>       0.4000
   34 H34       4.5237    -1.0356    -2.2330 H      1 <0>       0.4000
@<TRIPOS>BOND
   1    1    2 2
   2    1   21 1
   3    2    3 1
   4    2    4 1
   5    3   22 1
   6    3   23 1
   7    4    5 1
   8    4   24 1
   9    5    6 2
  10    6    7 1
  11    6   13 1
  12    7   12 ar
  13    7    8 ar
  14    8    9 ar
  15    8   25 1
  16    9   10 ar
  17    9   26 1
  18   10   11 ar
  19   10   27 1
  20   11   12 ar
  21   11   28 1
  22   12   29 1
  23   13   19 ar
  24   13   14 ar
  25   14   15 ar
  26   14   30 1
  27   15   16 1
  28   15   17 ar
  29   17   18 ar
  30   17   31 1
  31   18   19 ar
  32   18   32 1
  33   19   20 1
  34   20   33 1
  35   20   34 1
