@<TRIPOS>MOLECULE
ZINC000059299699
52    55    1     0     0
SMALL
USER_CHARGES
@<TRIPOS>ATOM
1      C1     -0.9235    0.4823    0.6120 C.3      1 ZINC000059299699   -0.6700
2      S2     -0.4800   -1.0070   -0.3238 S.o2     1 ZINC000059299699    2.6000
3      O3      0.2392   -1.9164    0.4979 O.2      1 ZINC000059299699   -0.9400
4      O4     -1.5768   -1.4441   -1.1145 O.2      1 ZINC000059299699   -0.9400
5      N5      0.6370   -0.4836   -1.4285 N.am     1 ZINC000059299699   -0.9400
6      C6      2.0009   -0.6005   -1.1516 C.ar     1 ZINC000059299699    0.2200
7      C7      2.6994   -1.7292   -1.5606 C.ar     1 ZINC000059299699   -0.1200
8      C8      4.0504   -1.8426   -1.2856 C.ar     1 ZINC000059299699    0.1400
9      F9      4.7303   -2.9403   -1.6832 F        1 ZINC000059299699   -0.1300
10     C10     4.7065   -0.8318   -0.6035 C.ar     1 ZINC000059299699   -0.1900
11     C11     4.0121    0.2945   -0.1948 C.ar     1 ZINC000059299699    0.1400
12     F12     4.6548    1.2794    0.4700 F        1 ZINC000059299699   -0.1300
13     C13     2.6621    0.4143   -0.4719 C.ar     1 ZINC000059299699   -0.1700
14     C14     0.1946    0.1021   -2.6964 C.3      1 ZINC000059299699    0.1200
15     C15     1.1269    1.2057   -3.2278 C.3      1 ZINC000059299699    0.0000
16     N16     1.8354    0.1236   -3.9465 N.3      1 ZINC000059299699   -0.4600
17     C17     2.1774    0.5362   -5.3142 C.3      1 ZINC000059299699    0.1300
18     C18     3.2150    1.6280   -5.2650 C.ar     1 ZINC000059299699   -0.0800
19     C19     4.2488    1.5580   -4.3498 C.ar     1 ZINC000059299699   -0.0800
20     C20     5.2006    2.5591   -4.3041 C.ar     1 ZINC000059299699   -0.1100
21     C21     5.1187    3.6314   -5.1745 C.ar     1 ZINC000059299699   -0.0300
22     Cl22    6.3143    4.8888   -5.1181 Cl       1 ZINC000059299699   -0.0700
23     C23     4.0839    3.7009   -6.0902 C.ar     1 ZINC000059299699   -0.1100
24     C24     3.1358    2.6964   -6.1387 C.ar     1 ZINC000059299699   -0.1000
25     C25     2.7265   -0.6447   -6.0726 C.ar     1 ZINC000059299699   -0.0700
26     C26     3.5874   -1.5275   -5.4476 C.ar     1 ZINC000059299699   -0.0800
27     C27     4.0913   -2.6108   -6.1426 C.ar     1 ZINC000059299699   -0.1100
28     C28     3.7340   -2.8114   -7.4641 C.ar     1 ZINC000059299699   -0.0300
29     Cl29    4.3661   -4.1721   -8.3375 Cl       1 ZINC000059299699   -0.0700
30     C30     2.8724   -1.9275   -8.0890 C.ar     1 ZINC000059299699   -0.1100
31     C31     2.3647   -0.8478   -7.3913 C.ar     1 ZINC000059299699   -0.1000
32     C32     0.6138   -0.7111   -3.9343 C.3      1 ZINC000059299699    0.0000
33     H33    -0.0168    0.9701    0.9697 H        1 ZINC000059299699    0.1300
34     H34    -1.4737    1.1668   -0.0338 H        1 ZINC000059299699    0.1300
35     H35    -1.5467    0.2051    1.4622 H        1 ZINC000059299699    0.1300
36     H36     2.1880   -2.5178   -2.0925 H        1 ZINC000059299699    0.1400
37     H37     5.7613   -0.9220   -0.3897 H        1 ZINC000059299699    0.1500
38     H38     2.1209    1.2928   -0.1529 H        1 ZINC000059299699    0.1400
39     H39    -0.8592    0.3808   -2.6908 H        1 ZINC000059299699    0.1200
40     H40     0.6319    1.9194   -3.8863 H        1 ZINC000059299699    0.0900
41     H41     1.7265    1.6846   -2.4536 H        1 ZINC000059299699    0.1000
42     H42     1.2837    0.9067   -5.8163 H        1 ZINC000059299699    0.0700
43     H43     4.3124    0.7210   -3.6702 H        1 ZINC000059299699    0.1400
44     H44     6.0080    2.5044   -3.5889 H        1 ZINC000059299699    0.1300
45     H45     4.0192    4.5379   -6.7696 H        1 ZINC000059299699    0.1300
46     H46     2.3281    2.7504   -6.8537 H        1 ZINC000059299699    0.1300
47     H47     3.8665   -1.3706   -4.4162 H        1 ZINC000059299699    0.1400
48     H48     4.7641   -3.3002   -5.6543 H        1 ZINC000059299699    0.1300
49     H49     2.5934   -2.0835   -9.1206 H        1 ZINC000059299699    0.1300
50     H50     1.6919   -0.1580   -7.8789 H        1 ZINC000059299699    0.1300
51     H51     0.8034   -1.7638   -3.7246 H        1 ZINC000059299699    0.1000
52     H52    -0.0314   -0.5581   -4.7994 H        1 ZINC000059299699    0.0900
@<TRIPOS>BOND
1     1     2     1
2     1     33    1
3     1     34    1
4     1     35    1
5     2     3     2
6     2     4     2
7     2     5     am
8     5     6     1
9     5     14    1
10    6     13    ar
11    6     7     ar
12    7     8     ar
13    7     36    1
14    8     9     1
15    8     10    ar
16    10    11    ar
17    10    37    1
18    11    12    1
19    11    13    ar
20    13    38    1
21    14    32    1
22    14    15    1
23    14    39    1
24    15    16    1
25    15    40    1
26    15    41    1
27    16    17    1
28    16    32    1
29    17    18    1
30    17    25    1
31    17    42    1
32    18    24    ar
33    18    19    ar
34    19    20    ar
35    19    43    1
36    20    21    ar
37    20    44    1
38    21    22    1
39    21    23    ar
40    23    24    ar
41    23    45    1
42    24    46    1
43    25    31    ar
44    25    26    ar
45    26    27    ar
46    26    47    1
47    27    28    ar
48    27    48    1
49    28    29    1
50    28    30    ar
51    30    31    ar
52    30    49    1
53    31    50    1
54    32    51    1
55    32    52    1
@<TRIPOS>SUBSTRUCTURE
1   ZINC000059299699 1     RESIDUE    1   A     ZIN   1
