@<TRIPOS>MOLECULE
ZINC000072318110
  42   46    0    0    0
SMALL
USER_CHARGES
NO_NAME
@<TRIPOS>ATOM
    1 C1        0.0342     1.4754     0.0002 C.3    1 <0>       0.0900
    2 N2        0.0338     0.0104    -0.0064 N.pl3  1 <0>      -0.3700
    3 N3        0.0357    -0.8263    -1.1344 N.2    1 <0>      -0.3100
    4 C4        0.0353    -2.0563    -0.6922 C.2    1 <0>       0.2000
    5 N5        0.0332    -2.0371     0.6401 N.2    1 <0>      -0.5200
    6 C6        0.0373    -0.8001     1.0661 C.2    1 <0>       0.2700
    7 C7        0.0367    -0.3605     2.5075 C.3    1 <0>       0.0500
    8 H8        0.0414     0.7284     2.5551 H      1 <0>       0.1300
    9 C9       -1.1985    -0.8881     3.1932 C.2    1 <0>       0.1700
   10 N10      -2.3086    -0.2139     3.1917 N.2    1 <0>      -0.2400
   11 N11      -3.4708    -0.6813     3.8084 N.am   1 <0>      -0.5300
   12 C12      -3.5182    -1.8736     4.4405 C.2    1 <0>       0.5300
   13 O13      -4.5494    -2.2614     4.9605 O.2    1 <0>      -0.5100
   14 C14      -2.3005    -2.6931     4.4874 C.ar   1 <0>      -0.0500
   15 C15      -2.2549    -3.9379     5.1110 C.ar   1 <0>      -0.1400
   16 C16      -1.0737    -4.6555     5.1221 C.ar   1 <0>       0.1600
   17 F17      -1.0355    -5.8646     5.7237 F      1 <0>      -0.1300
   18 C18       0.0766    -4.1520     4.5229 C.ar   1 <0>      -0.2000
   19 C19       0.0547    -2.9208     3.9017 C.ar   1 <0>       0.2800
   20 C20      -1.1401    -2.1837     3.8683 C.ar   1 <0>      -0.1300
   21 N21       1.1911    -2.3716     3.3060 N.pl3  1 <0>      -0.7200
   22 C22       1.2843    -0.9074     3.2085 C.3    1 <0>       0.2200
   23 H23       2.1713    -0.6372     2.6354 H      1 <0>       0.1200
   24 C24       1.3808    -0.3170     4.5916 C.ar   1 <0>      -0.1300
   25 C25       1.2915    -1.1375     5.7006 C.ar   1 <0>      -0.0700
   26 C26       1.3798    -0.5972     6.9695 C.ar   1 <0>      -0.1500
   27 C27       1.5584     0.7665     7.1298 C.ar   1 <0>       0.1100
   28 F28       1.6454     1.2957     8.3698 F      1 <0>      -0.1400
   29 C29       1.6482     1.5872     6.0183 C.ar   1 <0>      -0.1500
   30 C30       1.5644     1.0440     4.7504 C.ar   1 <0>      -0.0800
   31 H31       1.0620     1.8384    -0.0018 H      1 <0>       0.0900
   32 H32      -0.4827     1.8429    -0.8863 H      1 <0>       0.1000
   33 H33      -0.4763     1.8349     0.8936 H      1 <0>       0.1000
   34 H34       0.0358    -2.9442    -1.3070 H      1 <0>       0.2200
   35 H35      -4.2697    -0.1318     3.7823 H      1 <0>       0.4400
   36 H36      -3.1385    -4.3404     5.5839 H      1 <0>       0.1500
   37 H37       0.9903    -4.7273     4.5447 H      1 <0>       0.1500
   38 H38       1.8995    -2.9399     2.9654 H      1 <0>       0.4200
   39 H39       1.1522    -2.2011     5.5753 H      1 <0>       0.1400
   40 H40       1.3093    -1.2383     7.8358 H      1 <0>       0.1400
   41 H41       1.7872     2.6511     6.1422 H      1 <0>       0.1400
   42 H42       1.6348     1.6840     3.8832 H      1 <0>       0.1400
@<TRIPOS>BOND
   1    1    2 1
   2    1   31 1
   3    1   32 1
   4    1   33 1
   5    2    6 1
   6    2    3 1
   7    3    4 2
   8    4    5 1
   9    4   34 1
  10    5    6 2
  11    6    7 1
  12    7    8 1
  13    7   22 1
  14    7    9 1
  15    9   20 1
  16    9   10 2
  17   10   11 1
  18   11   12 am
  19   11   35 1
  20   12   13 2
  21   12   14 1
  22   14   20 ar
  23   14   15 ar
  24   15   16 ar
  25   15   36 1
  26   16   17 1
  27   16   18 ar
  28   18   19 ar
  29   18   37 1
  30   19   20 ar
  31   19   21 1
  32   21   22 1
  33   21   38 1
  34   22   23 1
  35   22   24 1
  36   24   30 ar
  37   24   25 ar
  38   25   26 ar
  39   25   39 1
  40   26   27 ar
  41   26   40 1
  42   27   28 1
  43   27   29 ar
  44   29   30 ar
  45   29   41 1
  46   30   42 1
