@<TRIPOS>MOLECULE
ZINC000103267239
78    81    1     0     0
SMALL
USER_CHARGES
@<TRIPOS>ATOM
1      C1      0.3013    1.6343   -0.6394 C.3      1 ZINC000103267239   -0.1200
2      C2      0.2685    0.1328   -0.5149 C.2      1 ZINC000103267239   -0.1200
3      C3     -0.0214   -0.5576   -1.5708 C.2      1 ZINC000103267239   -0.1600
4      C4     -0.1028   -2.0558   -1.5996 C.3      1 ZINC000103267239   -0.0900
5      C5      0.6007   -2.6455   -0.3753 C.3      1 ZINC000103267239   -0.1000
6      H6      1.6774   -2.5024   -0.4671 H        1 ZINC000103267239    0.1000
7      C7      0.2921   -4.1171   -0.2736 C.2      1 ZINC000103267239    0.5500
8      O8     -0.3339   -4.5413    0.6745 O.2      1 ZINC000103267239   -0.5300
9      N9      0.7118   -4.9617   -1.2364 N.am     1 ZINC000103267239   -0.5300
10     C10     0.3656   -6.3111   -1.1795 C.2      1 ZINC000103267239    0.1500
11     C11     1.0501   -7.2255   -0.4089 C.2      1 ZINC000103267239   -0.1500
12     C12     2.1625   -6.9311    0.4043 C.2      1 ZINC000103267239    0.4900
13     O13     2.5467   -5.6664    0.5755 O.co2    1 ZINC000103267239   -0.6600
14     O14     2.8304   -7.9173    1.0023 O.co2    1 ZINC000103267239   -0.7000
15     S15     0.3238   -8.8157   -0.5953 S.3      1 ZINC000103267239    0.2200
16     C16    -0.8782   -8.1800   -1.7092 C.2      1 ZINC000103267239   -0.1300
17     C17    -1.9070   -8.9530   -2.3374 C.1      1 ZINC000103267239   -0.0900
18     C18    -2.7505   -9.5868   -2.8524 C.1      1 ZINC000103267239   -0.1600
19     C19    -3.8080  -10.3814   -3.4981 C.3      1 ZINC000103267239    0.0500
20     C20    -4.6526   -9.4737   -4.3945 C.3      1 ZINC000103267239   -0.1400
21     C21    -3.1714  -11.4852   -4.3450 C.3      1 ZINC000103267239   -0.1400
22     C22    -4.6993  -11.0113   -2.4258 C.3      1 ZINC000103267239   -0.1400
23     C23    -0.6895   -6.8385   -1.8820 C.2      1 ZINC000103267239   -0.1000
24     C24     1.5318   -4.4619   -2.3428 C.3      1 ZINC000103267239    0.1500
25     H25     1.6640   -3.3849   -2.2394 H        1 ZINC000103267239    0.0900
26     C26     2.8988   -5.1486   -2.3151 C.3      1 ZINC000103267239   -0.1300
27     C27     3.7552   -4.6266   -3.4706 C.3      1 ZINC000103267239   -0.1000
28     C28     3.0590   -4.9298   -4.7989 C.3      1 ZINC000103267239    0.1400
29     O29     2.8856   -6.3418   -4.9344 O.3      1 ZINC000103267239   -0.5400
30     C30     3.9153   -4.4079   -5.9543 C.3      1 ZINC000103267239    0.0300
31     O31     3.2131   -4.5860   -7.1860 O.3      1 ZINC000103267239   -0.3700
32     C32     3.9293   -4.1286   -8.3349 C.3      1 ZINC000103267239    0.0600
33     H33     5.0047   -4.2086   -8.1766 H        1 ZINC000103267239    0.0800
34     C34     3.4974   -4.9129   -9.6039 C.3      1 ZINC000103267239   -0.1500
35     C35     3.7761   -3.8622  -10.7080 C.3      1 ZINC000103267239    0.0500
36     O36     3.4314   -2.5983  -10.1187 O.3      1 ZINC000103267239   -0.3800
37     C37     3.5323   -2.6792   -8.6887 C.3      1 ZINC000103267239    0.0300
38     C38     1.6920   -4.2431   -4.8265 C.3      1 ZINC000103267239   -0.1300
39     C39     0.8356   -4.7651   -3.6711 C.3      1 ZINC000103267239   -0.1300
40     C40     0.0888   -1.9192    0.8751 C.3      1 ZINC000103267239   -0.1000
41     C41     0.5800   -0.4692    0.8240 C.3      1 ZINC000103267239   -0.0800
42     H42     1.3049    1.9538   -0.9201 H        1 ZINC000103267239    0.0600
43     H43    -0.4080    1.9510   -1.4040 H        1 ZINC000103267239    0.0600
44     H44     0.0307    2.0841    0.3159 H        1 ZINC000103267239    0.0600
45     H45    -0.2172   -0.0220   -2.4880 H        1 ZINC000103267239    0.1000
46     H46    -1.1492   -2.3608   -1.5968 H        1 ZINC000103267239    0.0800
47     H47     0.3771   -2.4263   -2.5054 H        1 ZINC000103267239    0.0800
48     H48    -4.0176   -9.0250   -5.1584 H        1 ZINC000103267239    0.0600
49     H49    -5.4357  -10.0622   -4.8727 H        1 ZINC000103267239    0.0600
50     H50    -5.1061   -8.6874   -3.7912 H        1 ZINC000103267239    0.0600
51     H51    -2.5697  -12.1319   -3.7063 H        1 ZINC000103267239    0.0600
52     H52    -3.9545  -12.0736   -4.8231 H        1 ZINC000103267239    0.0600
53     H53    -2.5364  -11.0365   -5.1089 H        1 ZINC000103267239    0.0600
54     H54    -5.1528  -10.2250   -1.8224 H        1 ZINC000103267239    0.0600
55     H55    -5.4824  -11.5998   -2.9039 H        1 ZINC000103267239    0.0600
56     H56    -4.0976  -11.6580   -1.7871 H        1 ZINC000103267239    0.0600
57     H57    -1.3164   -6.2408   -2.5271 H        1 ZINC000103267239    0.1400
58     H58     3.3948   -4.9326   -1.3689 H        1 ZINC000103267239    0.1000
59     H59     2.7665   -6.2256   -2.4185 H        1 ZINC000103267239    0.0700
60     H60     3.8874   -3.5496   -3.3672 H        1 ZINC000103267239    0.0700
61     H61     4.7290   -5.1158   -3.4509 H        1 ZINC000103267239    0.0700
62     H62     2.4494   -6.6074   -5.7555 H        1 ZINC000103267239    0.3700
63     H63     4.1218   -3.3482   -5.8038 H        1 ZINC000103267239    0.0600
64     H64     4.8547   -4.9598   -5.9885 H        1 ZINC000103267239    0.0600
65     H65     4.1117   -5.8023   -9.7439 H        1 ZINC000103267239    0.0900
66     H66     2.4391   -5.1708   -9.5651 H        1 ZINC000103267239    0.0900
67     H67     4.8301   -3.8754  -10.9855 H        1 ZINC000103267239    0.0600
68     H68     3.1520   -4.0556  -11.5805 H        1 ZINC000103267239    0.0900
69     H69     2.5697   -2.4413   -8.2360 H        1 ZINC000103267239    0.0800
70     H70     4.2920   -1.9839   -8.3317 H        1 ZINC000103267239    0.0700
71     H71     1.8242   -3.1661   -4.7231 H        1 ZINC000103267239    0.0700
72     H72     1.1960   -4.4591   -5.7728 H        1 ZINC000103267239    0.0700
73     H73     0.7034   -5.8421   -3.7745 H        1 ZINC000103267239    0.0800
74     H74    -0.1383   -4.2759   -3.6908 H        1 ZINC000103267239    0.0600
75     H75    -1.0009   -1.9403    0.8907 H        1 ZINC000103267239    0.0700
76     H76     0.4806   -2.4065    1.7680 H        1 ZINC000103267239    0.0800
77     H77     1.6561   -0.4460    0.9958 H        1 ZINC000103267239    0.0800
78     H78     0.0796    0.1093    1.6006 H        1 ZINC000103267239    0.0700
@<TRIPOS>BOND
1     1     2     1
2     1     42    1
3     1     43    1
4     1     44    1
5     2     41    1
6     2     3     2
7     3     4     1
8     3     45    1
9     4     5     1
10    4     46    1
11    4     47    1
12    5     6     1
13    5     7     1
14    5     40    1
15    7     8     2
16    7     9     am
17    9     10    1
18    9     24    1
19    10    23    1
20    10    11    2
21    11    12    1
22    11    15    1
23    12    13    ar
24    12    14    ar
25    15    16    1
26    16    17    1
27    16    23    2
28    17    18    3
29    18    19    1
30    19    20    1
31    19    21    1
32    19    22    1
33    20    48    1
34    20    49    1
35    20    50    1
36    21    51    1
37    21    52    1
38    21    53    1
39    22    54    1
40    22    55    1
41    22    56    1
42    23    57    1
43    24    25    1
44    24    39    1
45    24    26    1
46    26    27    1
47    26    58    1
48    26    59    1
49    27    28    1
50    27    60    1
51    27    61    1
52    28    29    1
53    28    30    1
54    28    38    1
55    29    62    1
56    30    31    1
57    30    63    1
58    30    64    1
59    31    32    1
60    32    33    1
61    32    37    1
62    32    34    1
63    34    35    1
64    34    65    1
65    34    66    1
66    35    36    1
67    35    67    1
68    35    68    1
69    36    37    1
70    37    69    1
71    37    70    1
72    38    39    1
73    38    71    1
74    38    72    1
75    39    73    1
76    39    74    1
77    40    41    1
78    40    75    1
79    40    76    1
80    41    77    1
81    41    78    1
@<TRIPOS>SUBSTRUCTURE
1   ZINC000103267239 1     RESIDUE    1   A     ZIN   1
