@<TRIPOS>MOLECULE
ZINC000057988506
42    44    1     0     0
SMALL
USER_CHARGES
@<TRIPOS>ATOM
1      C1     -2.5240   -0.1553   -0.4899 C.3      1 ZINC000057988506    0.1000
2      N2     -1.2322   -0.8009   -0.2437 N.am     1 ZINC000057988506   -0.7000
3      C3     -0.5840   -1.4175   -1.2517 C.2      1 ZINC000057988506    0.6400
4      O4     -1.0712   -1.4379   -2.3648 O.2      1 ZINC000057988506   -0.5500
5      O5      0.6033   -2.0109   -1.0254 O.3      1 ZINC000057988506   -0.3000
6      C6      1.1549   -2.7026   -2.0586 C.ar     1 ZINC000057988506    0.1100
7      C7      1.7823   -2.0225   -3.0918 C.ar     1 ZINC000057988506   -0.0800
8      C8      2.3544   -2.7254   -4.1336 C.ar     1 ZINC000057988506   -0.0900
9      C9      2.3023   -4.1085   -4.1573 C.ar     1 ZINC000057988506    0.0800
10     C10     1.6424   -4.7957   -3.1211 C.ar     1 ZINC000057988506   -0.1100
11     C11     1.0948   -4.0884   -2.0760 C.ar     1 ZINC000057988506   -0.0700
12     C12     1.7001   -6.2425   -3.4874 C.3      1 ZINC000057988506   -0.0200
13     C13     0.4940   -6.6794   -4.3214 C.3      1 ZINC000057988506   -0.1500
14     C14     2.1170   -7.2894   -2.4574 C.3      1 ZINC000057988506   -0.1300
15     C15     2.8677   -8.3221   -3.3560 C.3      1 ZINC000057988506    0.0100
16     N16     3.3328   -7.5697   -4.5649 N.4      1 ZINC000057988506   -0.3600
17     H17     2.8316   -7.8820   -5.3831 H        1 ZINC000057988506    0.4300
18     C18     4.7776   -7.7570   -4.7532 C.3      1 ZINC000057988506   -0.0500
19     C19     3.0458   -6.2090   -4.3073 C.3      1 ZINC000057988506    0.1300
20     H20     3.7496   -5.9071   -3.5317 H        1 ZINC000057988506    0.1000
21     N21     2.8459   -5.0385   -5.0941 N.3      1 ZINC000057988506   -0.4300
22     C22     4.1177   -4.5499   -5.6434 C.3      1 ZINC000057988506   -0.0100
23     H23    -2.4029    0.6249   -1.2414 H        1 ZINC000057988506    0.0700
24     H24    -3.2384   -0.8967   -0.8478 H        1 ZINC000057988506    0.0700
25     H25    -2.8919    0.2863    0.4363 H        1 ZINC000057988506    0.0900
26     H26    -0.8434   -0.7846    0.6448 H        1 ZINC000057988506    0.4100
27     H27     1.8231   -0.9433   -3.0817 H        1 ZINC000057988506    0.1500
28     H28     2.8452   -2.1930   -4.9349 H        1 ZINC000057988506    0.1400
29     H29     0.6075   -4.6147   -1.2687 H        1 ZINC000057988506    0.1400
30     H30     0.4501   -6.0866   -5.2350 H        1 ZINC000057988506    0.0900
31     H31     0.5921   -7.7344   -4.5771 H        1 ZINC000057988506    0.0600
32     H32    -0.4194   -6.5283   -3.7461 H        1 ZINC000057988506    0.0900
33     H33     2.7860   -6.8601   -1.7116 H        1 ZINC000057988506    0.1100
34     H34     1.2455   -7.7423   -1.9847 H        1 ZINC000057988506    0.1200
35     H35     3.7227   -8.7334   -2.8194 H        1 ZINC000057988506    0.1400
36     H36     2.1902   -9.1232   -3.6516 H        1 ZINC000057988506    0.1500
37     H37     4.9890   -8.8143   -4.9132 H        1 ZINC000057988506    0.1300
38     H38     5.1082   -7.1851   -5.6202 H        1 ZINC000057988506    0.1200
39     H39     5.3075   -7.4108   -3.8658 H        1 ZINC000057988506    0.1200
40     H40     4.5625   -5.3216   -6.2717 H        1 ZINC000057988506    0.0800
41     H41     3.9363   -3.6557   -6.2397 H        1 ZINC000057988506    0.1000
42     H42     4.7981   -4.3098   -4.8263 H        1 ZINC000057988506    0.0600
@<TRIPOS>BOND
1     1     2     1
2     1     23    1
3     1     24    1
4     1     25    1
5     2     3     am
6     2     26    1
7     3     4     2
8     3     5     1
9     5     6     1
10    6     11    ar
11    6     7     ar
12    7     8     ar
13    7     27    1
14    8     9     ar
15    8     28    1
16    9     21    1
17    9     10    ar
18    10    11    ar
19    10    12    1
20    11    29    1
21    12    19    1
22    12    13    1
23    12    14    1
24    13    30    1
25    13    31    1
26    13    32    1
27    14    15    1
28    14    33    1
29    14    34    1
30    15    16    1
31    15    35    1
32    15    36    1
33    16    17    1
34    16    18    1
35    16    19    1
36    18    37    1
37    18    38    1
38    18    39    1
39    19    20    1
40    19    21    1
41    21    22    1
42    22    40    1
43    22    41    1
44    22    42    1
@<TRIPOS>SUBSTRUCTURE
1   ZINC000057988506 1     RESIDUE    1   A     ZIN   1
