@<TRIPOS>MOLECULE
ZINC000090716740
57    60    1     0     0
SMALL
USER_CHARGES
@<TRIPOS>ATOM
1      C1     -0.0058    1.5633    0.0671 C.3      1 ZINC000090716740   -0.1400
2      C2     -0.0126    0.0338    0.0281 C.3      1 ZINC000090716740   -0.1200
3      H3     -1.0381   -0.3355    0.0361 H        1 ZINC000090716740    0.0900
4      C4      0.7209   -0.4671   -1.2353 C.3      1 ZINC000090716740   -0.1100
5      C5      1.4560   -1.7532   -0.7547 C.3      1 ZINC000090716740   -0.0800
6      H6      2.2851   -2.0274   -1.4070 H        1 ZINC000090716740    0.1000
7      C7      0.3977   -2.8557   -0.6705 C.3      1 ZINC000090716740   -0.1100
8      H8     -0.5036   -2.4588   -0.2033 H        1 ZINC000090716740    0.1200
9      C9      0.0654   -3.3487   -2.0854 C.3      1 ZINC000090716740   -0.1200
10     C10    -1.2170   -4.1783   -1.9980 C.3      1 ZINC000090716740   -0.0900
11     C11    -1.1004   -5.2030   -0.9077 C.2      1 ZINC000090716740   -0.0400
12     C12    -2.0168   -6.1974   -0.8618 C.2      1 ZINC000090716740   -0.2300
13     C13    -1.8596   -7.1397    0.2797 C.2      1 ZINC000090716740    0.4200
14     O14    -1.9985   -8.3427    0.1604 O.2      1 ZINC000090716740   -0.4500
15     C15    -1.5189   -6.4967    1.5788 C.2      1 ZINC000090716740   -0.2400
16     C16    -0.6081   -5.5022    1.5032 C.2      1 ZINC000090716740   -0.0600
17     C17    -0.0442   -5.1974    0.1436 C.3      1 ZINC000090716740   -0.0100
18     C18     0.8328   -6.4076   -0.1838 C.3      1 ZINC000090716740   -0.1600
19     C19     0.9113   -4.0379    0.1410 C.3      1 ZINC000090716740    0.0800
20     Cl20    2.4707   -4.5877   -0.5778 Cl       1 ZINC000090716740   -0.1600
21     C21     1.1944   -3.5628    1.5709 C.3      1 ZINC000090716740    0.0600
22     H22     0.2938   -3.1198    1.9959 H        1 ZINC000090716740    0.1100
23     O23     1.6108   -4.6700    2.3726 O.3      1 ZINC000090716740   -0.5400
24     C24     2.3076   -2.5165    1.5182 C.3      1 ZINC000090716740   -0.1600
25     C25     1.9302   -1.3339    0.6491 C.3      1 ZINC000090716740   -0.0300
26     C26     3.1353   -0.3988    0.5303 C.3      1 ZINC000090716740   -0.1300
27     C27     0.7618   -0.5295    1.2370 C.3      1 ZINC000090716740    0.1000
28     O28     1.2570    0.5303    2.0577 O.3      1 ZINC000090716740   -0.5300
29     C29    -0.1384   -1.4325    2.0404 C.2      1 ZINC000090716740    0.3400
30     O30    -1.0983   -1.9473    1.5189 O.2      1 ZINC000090716740   -0.4100
31     C31     0.1594   -1.6931    3.4945 C.3      1 ZINC000090716740    0.0100
32     O32    -0.8294   -2.5732    4.0329 O.3      1 ZINC000090716740   -0.5500
33     H33     1.0231    1.9227    0.0462 H        1 ZINC000090716740    0.0700
34     H34    -0.5437    1.9512   -0.7980 H        1 ZINC000090716740    0.0600
35     H35    -0.4918    1.9057    0.9807 H        1 ZINC000090716740    0.0500
36     H36     0.0064   -0.7066   -2.0228 H        1 ZINC000090716740    0.0800
37     H37     1.4383    0.2769   -1.5815 H        1 ZINC000090716740    0.0800
38     H38    -0.0901   -2.4964   -2.7469 H        1 ZINC000090716740    0.0800
39     H39     0.8804   -3.9665   -2.4626 H        1 ZINC000090716740    0.0800
40     H40    -2.0592   -3.5197   -1.7857 H        1 ZINC000090716740    0.0900
41     H41    -1.3868   -4.6818   -2.9498 H        1 ZINC000090716740    0.0900
42     H42    -2.8019   -6.2993   -1.5965 H        1 ZINC000090716740    0.1500
43     H43    -1.9667   -6.8031    2.5126 H        1 ZINC000090716740    0.1500
44     H44    -0.2992   -4.9513    2.3793 H        1 ZINC000090716740    0.1600
45     H45     0.2203   -7.3093   -0.1894 H        1 ZINC000090716740    0.0500
46     H46     1.2881   -6.2716   -1.1648 H        1 ZINC000090716740    0.0800
47     H47     1.6147   -6.5042    0.5694 H        1 ZINC000090716740    0.0800
48     H48     1.8066   -4.4390    3.2910 H        1 ZINC000090716740    0.3800
49     H49     2.5127   -2.1628    2.5286 H        1 ZINC000090716740    0.0800
50     H50     3.2092   -2.9752    1.1122 H        1 ZINC000090716740    0.1000
51     H51     3.9650   -0.9325    0.0668 H        1 ZINC000090716740    0.0600
52     H52     2.8685    0.4615   -0.0835 H        1 ZINC000090716740    0.0600
53     H53     3.4310   -0.0593    1.5230 H        1 ZINC000090716740    0.0700
54     H54     0.5649    1.0744    2.4576 H        1 ZINC000090716740    0.3800
55     H55     1.1436   -2.1523    3.5872 H        1 ZINC000090716740    0.0800
56     H56     0.1448   -0.7512    4.0428 H        1 ZINC000090716740    0.0900
57     H57    -0.7002   -2.7851    4.9675 H        1 ZINC000090716740    0.3900
@<TRIPOS>BOND
1     1     2     1
2     1     33    1
3     1     34    1
4     1     35    1
5     2     3     1
6     2     27    1
7     2     4     1
8     4     5     1
9     4     36    1
10    4     37    1
11    5     6     1
12    5     25    1
13    5     7     1
14    7     8     1
15    7     19    1
16    7     9     1
17    9     10    1
18    9     38    1
19    9     39    1
20    10    11    1
21    10    40    1
22    10    41    1
23    11    17    1
24    11    12    2
25    12    13    1
26    12    42    1
27    13    14    2
28    13    15    1
29    15    16    2
30    15    43    1
31    16    17    1
32    16    44    1
33    17    18    1
34    17    19    1
35    18    45    1
36    18    46    1
37    18    47    1
38    19    20    1
39    19    21    1
40    21    22    1
41    21    23    1
42    21    24    1
43    23    48    1
44    24    25    1
45    24    49    1
46    24    50    1
47    25    26    1
48    25    27    1
49    26    51    1
50    26    52    1
51    26    53    1
52    27    28    1
53    27    29    1
54    28    54    1
55    29    30    2
56    29    31    1
57    31    32    1
58    31    55    1
59    31    56    1
60    32    57    1
@<TRIPOS>SUBSTRUCTURE
1   ZINC000090716740 1     RESIDUE    1   A     ZIN   1
