@<TRIPOS>MOLECULE
ZINC000013306865
  26   28    0    0    0
SMALL
USER_CHARGES
NO_NAME
@<TRIPOS>ATOM
    1 C1       -0.0184     1.5028     0.0103 C.3    1 <0>      -0.2000
    2 C2        0.0021    -0.0041     0.0020 C.2    1 <0>       0.4400
    3 O3        1.0610    -0.5964    -0.0113 O.2    1 <0>      -0.4200
    4 C4       -1.2556    -0.7532     0.0100 C.2    1 <0>      -0.0900
    5 C5       -1.3723    -2.1318     0.0092 C.2    1 <0>      -0.0700
    6 C6       -2.7382    -2.4099     0.0189 C.2    1 <0>      -0.2100
    7 C7       -3.4047    -1.1776     0.0250 C.2    1 <0>       0.0000
    8 O8       -2.4936    -0.2123     0.0252 O.3    1 <0>      -0.1000
    9 C9       -4.8833    -1.1159     0.0364 C.2    1 <0>       0.4800
   10 O10      -5.4746    -0.0710    -0.1506 O.2    1 <0>      -0.4000
   11 C11      -5.6148    -2.3856     0.2855 C.ar   1 <0>      -0.1100
   12 C12      -6.9850    -2.3494     0.5293 C.ar   1 <0>      -0.0600
   13 C13      -7.6773    -3.5257     0.7626 C.ar   1 <0>      -0.1000
   14 C14      -7.0167    -4.7394     0.7556 C.ar   1 <0>      -0.0900
   15 C15      -5.6535    -4.7934     0.5149 C.ar   1 <0>      -0.0700
   16 C16      -4.9431    -3.6209     0.2790 C.ar   1 <0>      -0.1100
   17 C17      -3.4794    -3.6898     0.0236 C.2    1 <0>       0.4600
   18 O18      -2.9182    -4.7493    -0.1721 O.2    1 <0>      -0.4100
   19 H19       1.0042     1.8801     0.0026 H      1 <0>       0.1000
   20 H20      -0.5455     1.8639    -0.8728 H      1 <0>       0.1000
   21 H21      -0.5286     1.8543     0.9071 H      1 <0>       0.1000
   22 H22      -0.5655    -2.8497     0.0020 H      1 <0>       0.1800
   23 H23      -7.5077    -1.4043     0.5367 H      1 <0>       0.1500
   24 H24      -8.7402    -3.4944     0.9516 H      1 <0>       0.1400
   25 H25      -7.5661    -5.6509     0.9391 H      1 <0>       0.1400
   26 H26      -5.1427    -5.7450     0.5107 H      1 <0>       0.1500
@<TRIPOS>BOND
   1    1    2 1
   2    1   19 1
   3    1   20 1
   4    1   21 1
   5    2    3 2
   6    2    4 1
   7    4    8 1
   8    4    5 2
   9    5    6 1
  10    5   22 1
  11    6   17 1
  12    6    7 2
  13    7    8 1
  14    7    9 1
  15    9   10 2
  16    9   11 1
  17   11   16 ar
  18   11   12 ar
  19   12   13 ar
  20   12   23 1
  21   13   14 ar
  22   13   24 1
  23   14   15 ar
  24   14   25 1
  25   15   16 ar
  26   15   26 1
  27   16   17 1
  28   17   18 2
