@<TRIPOS>MOLECULE
ZINC000052509444
37    39    1     0     0
SMALL
USER_CHARGES
@<TRIPOS>ATOM
1      C1      0.7674   -0.5772    1.1965 C.3      1 ZINC000052509444   -0.1800
2      C2      0.0021   -0.0041    0.0020 C.3      1 ZINC000052509444    0.2200
3      C3     -1.4128   -0.5226    0.0205 C.ar     1 ZINC000052509444   -0.1600
4      C4     -1.8100   -1.4040    1.0045 C.ar     1 ZINC000052509444   -0.0300
5      C5     -3.1184   -1.8831    1.0219 C.ar     1 ZINC000052509444   -0.0700
6      C6     -3.5500   -2.8308    2.0787 C.ar     1 ZINC000052509444   -0.1800
7      C7     -2.7979   -3.9716    2.3707 C.ar     1 ZINC000052509444    0.1700
8      N8     -3.2184   -4.7894    3.3203 N.ar     1 ZINC000052509444   -0.5100
9      C9     -4.3284   -4.5408    3.9866 C.ar     1 ZINC000052509444    0.3100
10     N10    -5.0673   -3.4768    3.7424 N.ar     1 ZINC000052509444   -0.5100
11     C11    -4.7166   -2.6042    2.8134 C.ar     1 ZINC000052509444    0.1800
12     C12    -4.0216   -1.4682    0.0423 C.ar     1 ZINC000052509444    0.1700
13     F13    -5.2916   -1.9287    0.0538 F        1 ZINC000052509444   -0.1100
14     C14    -3.6139   -0.5847   -0.9395 C.ar     1 ZINC000052509444   -0.1800
15     C15    -2.3136   -0.1084   -0.9479 C.ar     1 ZINC000052509444    0.1500
16     F16    -1.9191    0.7550   -1.9092 F        1 ZINC000052509444   -0.1200
17     C17    -0.0197    1.5198    0.0992 C.3      1 ZINC000052509444   -0.1500
18     C18     1.4078    2.0624    0.2079 C.3      1 ZINC000052509444   -0.1200
19     S19     2.2797    1.7349   -1.3491 S.3      1 ZINC000052509444    0.0400
20     C20     1.9555    0.0000   -1.4800 C.cat    1 ZINC000052509444    0.5200
21     N21     2.8996   -0.8456   -1.7880 N.pl3    1 ZINC000052509444   -0.6700
22     H22     3.8014   -0.5275   -1.9507 H        1 ZINC000052509444    0.4500
23     H23     2.6998   -1.7925   -1.8543 H        1 ZINC000052509444    0.4400
24     N24     0.6570   -0.4237   -1.2412 N.pl3    1 ZINC000052509444   -0.7200
25     H25     1.7928   -0.2078    1.1821 H        1 ZINC000052509444    0.0700
26     H26     0.2823   -0.2665    2.1218 H        1 ZINC000052509444    0.1000
27     H27     0.7724   -1.6655    1.1365 H        1 ZINC000052509444    0.0800
28     H28    -1.1075   -1.7227    1.7605 H        1 ZINC000052509444    0.1600
29     H29    -1.8876   -4.1820    1.8289 H        1 ZINC000052509444    0.1700
30     H30    -4.6424   -5.2305    4.7561 H        1 ZINC000052509444    0.2100
31     H31    -5.3269   -1.7346    2.6192 H        1 ZINC000052509444    0.1700
32     H32    -4.3112   -0.2627   -1.6987 H        1 ZINC000052509444    0.1600
33     H33    -0.4958    1.9317   -0.7906 H        1 ZINC000052509444    0.1100
34     H34    -0.5874    1.8175    0.9807 H        1 ZINC000052509444    0.1200
35     H35     1.3772    3.1366    0.3904 H        1 ZINC000052509444    0.1500
36     H36     1.9258    1.5654    1.0281 H        1 ZINC000052509444    0.1300
37     H37     0.1926   -0.9850   -1.8816 H        1 ZINC000052509444    0.4300
@<TRIPOS>BOND
1     1     2     1
2     1     25    1
3     1     26    1
4     1     27    1
5     2     24    1
6     2     3     1
7     2     17    1
8     3     15    ar
9     3     4     ar
10    4     5     ar
11    4     28    1
12    5     6     1
13    5     12    ar
14    6     11    ar
15    6     7     ar
16    7     8     ar
17    7     29    1
18    8     9     ar
19    9     10    ar
20    9     30    1
21    10    11    ar
22    11    31    1
23    12    13    1
24    12    14    ar
25    14    15    ar
26    14    32    1
27    15    16    1
28    17    18    1
29    17    33    1
30    17    34    1
31    18    19    1
32    18    35    1
33    18    36    1
34    19    20    1
35    20    21    ar
36    20    24    ar
37    21    22    1
38    21    23    1
39    24    37    1
@<TRIPOS>SUBSTRUCTURE
1   ZINC000052509444 1     RESIDUE    1   A     ZIN   1
