@<TRIPOS>MOLECULE
ZINC000049087983
45    48    1     0     0
SMALL
USER_CHARGES
@<TRIPOS>ATOM
1      N1     -0.0162    1.3436    0.0094 N.am     1 ZINC000049087983   -0.8500
2      C2      0.0021   -0.0041    0.0020 C.2      1 ZINC000049087983    0.5600
3      O3      1.0637   -0.5979   -0.0113 O.2      1 ZINC000049087983   -0.5300
4      C4     -1.2622   -0.7571    0.0100 C.ar     1 ZINC000049087983   -0.1300
5      C5     -2.4805   -0.0958    0.0194 C.ar     1 ZINC000049087983   -0.0200
6      C6     -3.6818   -0.7932    0.0266 C.ar     1 ZINC000049087983   -0.1700
7      C7     -3.7400   -2.1504    0.0253 C.ar     1 ZINC000049087983   -0.0100
8      C8     -2.5591   -2.9177    0.0161 C.ar     1 ZINC000049087983   -0.2000
9      C9     -2.2745   -4.2724    0.0129 C.2      1 ZINC000049087983    0.0900
10     N10    -0.9400   -4.4114    0.0037 N.pl3    1 ZINC000049087983   -0.2900
11     C11    -0.2590   -5.6354   -0.0028 C.ar     1 ZINC000049087983    0.1700
12     C12    -0.9710   -6.8277   -0.0055 C.ar     1 ZINC000049087983   -0.1300
13     C13    -0.2965   -8.0330   -0.0119 C.ar     1 ZINC000049087983   -0.0800
14     C14     1.0862   -8.0532   -0.0155 C.ar     1 ZINC000049087983   -0.1100
15     C15     1.8188   -9.3701   -0.0230 C.3      1 ZINC000049087983   -0.0600
16     H16     1.0979  -10.1877   -0.0245 H        1 ZINC000049087983    0.1000
17     C17     2.6966   -9.4599   -1.2746 C.3      1 ZINC000049087983   -0.1300
18     C18     3.4954  -10.7658   -1.2333 C.3      1 ZINC000049087983   -0.1500
19     C19     4.3177  -10.8138    0.0562 C.3      1 ZINC000049087983   -0.0100
20     N20     3.4199  -10.7508    1.2158 N.4      1 ZINC000049087983   -0.5000
21     H21     2.7542  -11.5073    1.1660 H        1 ZINC000049087983    0.4300
22     H22     3.9607  -10.8352    2.0635 H        1 ZINC000049087983    0.4300
23     C23     2.7024   -9.4703    1.2223 C.3      1 ZINC000049087983   -0.0100
24     C24     1.7980   -6.8676   -0.0129 C.ar     1 ZINC000049087983   -0.0900
25     C25     1.1295   -5.6591   -0.0123 C.ar     1 ZINC000049087983   -0.1000
26     N26    -0.3292   -3.1519    0.0006 N.2      1 ZINC000049087983   -0.2700
27     C27    -1.2609   -2.2235    0.0022 C.ar     1 ZINC000049087983    0.1500
28     H28     0.8172    1.8399    0.0041 H        1 ZINC000049087983    0.4100
29     H29    -0.8627    1.8171    0.0160 H        1 ZINC000049087983    0.4000
30     H30    -2.4960    0.9841    0.0215 H        1 ZINC000049087983    0.1400
31     H31    -4.6059   -0.2344    0.0337 H        1 ZINC000049087983    0.1400
32     H32    -4.7000   -2.6452    0.0319 H        1 ZINC000049087983    0.1300
33     H33    -2.9978   -5.0744    0.0177 H        1 ZINC000049087983    0.1900
34     H34    -2.0508   -6.8126   -0.0023 H        1 ZINC000049087983    0.1400
35     H35    -0.8496   -8.9606   -0.0136 H        1 ZINC000049087983    0.1400
36     H36     2.0661   -9.4462   -2.1637 H        1 ZINC000049087983    0.1000
37     H37     3.3829   -8.6135   -1.3000 H        1 ZINC000049087983    0.0900
38     H38     2.8098  -11.6128   -1.2596 H        1 ZINC000049087983    0.0900
39     H39     4.1638  -10.8110   -2.0931 H        1 ZINC000049087983    0.1100
40     H40     4.8878  -11.7423    0.0888 H        1 ZINC000049087983    0.1300
41     H41     5.0030   -9.9666    0.0814 H        1 ZINC000049087983    0.1300
42     H42     3.4216   -8.6513    1.2226 H        1 ZINC000049087983    0.1300
43     H43     2.0808   -9.4072    2.1155 H        1 ZINC000049087983    0.1400
44     H44     2.8778   -6.8868   -0.0158 H        1 ZINC000049087983    0.1300
45     H45     1.6860   -4.7335   -0.0106 H        1 ZINC000049087983    0.1500
@<TRIPOS>BOND
1     1     2     am
2     1     28    1
3     1     29    1
4     2     3     2
5     2     4     1
6     4     27    ar
7     4     5     ar
8     5     6     ar
9     5     30    1
10    6     7     ar
11    6     31    1
12    7     8     ar
13    7     32    1
14    8     27    ar
15    8     9     2
16    9     10    1
17    9     33    1
18    10    11    1
19    10    26    1
20    11    25    ar
21    11    12    ar
22    12    13    ar
23    12    34    1
24    13    14    ar
25    13    35    1
26    14    15    1
27    14    24    ar
28    15    16    1
29    15    23    1
30    15    17    1
31    17    18    1
32    17    36    1
33    17    37    1
34    18    19    1
35    18    38    1
36    18    39    1
37    19    20    1
38    19    40    1
39    19    41    1
40    20    21    1
41    20    22    1
42    20    23    1
43    23    42    1
44    23    43    1
45    24    25    ar
46    24    44    1
47    25    45    1
48    26    27    2
@<TRIPOS>SUBSTRUCTURE
1   ZINC000049087983 1     RESIDUE    1   A     ZIN   1
