@<TRIPOS>MOLECULE
ZINC000056898810
69    73    1     0     0
SMALL
USER_CHARGES
@<TRIPOS>ATOM
1      C1     -0.6592    1.5852   -0.2347 C.3      1 ZINC000056898810   -0.1700
2      C2     -0.8473    0.0669   -0.2133 C.3      1 ZINC000056898810   -0.0400
3      C3     -2.1902   -0.2756    0.4031 C.3      1 ZINC000056898810   -0.1300
4      C4     -2.2445    0.4090    1.7781 C.3      1 ZINC000056898810    0.1100
5      H5     -3.1859    0.1544    2.2650 H        1 ZINC000056898810    0.0600
6      O6     -2.1822    1.8251    1.5964 O.3      1 ZINC000056898810   -0.5500
7      C7     -1.0882   -0.0278    2.6715 C.3      1 ZINC000056898810   -0.0500
8      H8     -1.1974   -1.0862    2.9080 H        1 ZINC000056898810    0.0900
9      C9      0.2728    0.2018    1.9954 C.3      1 ZINC000056898810   -0.0800
10     H10     0.4170    1.2665    1.8114 H        1 ZINC000056898810    0.1000
11     C11     1.3897   -0.3213    2.9005 C.3      1 ZINC000056898810   -0.1100
12     C12     1.4175    0.4824    4.2046 C.3      1 ZINC000056898810   -0.1000
13     C13     0.0352    0.4193    4.8272 C.2      1 ZINC000056898810   -0.0200
14     C14    -0.0838    0.0472    6.0939 C.2      1 ZINC000056898810   -0.2300
15     C15    -1.4091   -0.0454    6.7256 C.2      1 ZINC000056898810    0.4100
16     O16    -1.5199   -0.3521    7.8980 O.2      1 ZINC000056898810   -0.4600
17     C17    -2.5987    0.2422    5.9064 C.2      1 ZINC000056898810   -0.2300
18     C18    -2.4565    0.6180    4.6449 C.2      1 ZINC000056898810   -0.0600
19     C19    -1.1170    0.7845    3.9701 C.3      1 ZINC000056898810   -0.0100
20     C20    -0.9661    2.2570    3.5830 C.3      1 ZINC000056898810   -0.1400
21     C21     0.2446   -0.5860    0.6763 C.3      1 ZINC000056898810   -0.0800
22     H22     0.0235   -1.6362    0.8667 H        1 ZINC000056898810    0.0800
23     C23     1.4924   -0.4541   -0.2042 C.3      1 ZINC000056898810   -0.1100
24     C24     0.9604   -0.8143   -1.6182 C.3      1 ZINC000056898810   -0.1500
25     C25    -0.5635   -0.5085   -1.5970 C.3      1 ZINC000056898810    0.1100
26     O26    -1.3126   -1.7132   -1.7687 O.3      1 ZINC000056898810   -0.5400
27     C27    -0.9122    0.4828   -2.6772 C.2      1 ZINC000056898810    0.3400
28     O28    -0.0776    1.2585   -3.0772 O.2      1 ZINC000056898810   -0.4100
29     C29    -2.3025    0.5061   -3.2582 C.3      1 ZINC000056898810    0.0200
30     O30    -2.3856    1.5411   -4.2731 O.3      1 ZINC000056898810   -0.3400
31     C31    -3.5708    1.6942   -4.8949 C.2      1 ZINC000056898810    0.5100
32     O32    -4.5092    0.9826   -4.5973 O.2      1 ZINC000056898810   -0.5000
33     C33    -3.7294    2.7276   -5.9385 C.ar     1 ZINC000056898810   -0.1600
34     C34    -2.6514    3.5434   -6.2870 C.ar     1 ZINC000056898810   -0.0400
35     C35    -2.8064    4.5066   -7.2626 C.ar     1 ZINC000056898810   -0.1600
36     C36    -4.0267    4.6652   -7.8947 C.ar     1 ZINC000056898810    0.0100
37     C37    -5.0995    3.8600   -7.5542 C.ar     1 ZINC000056898810   -0.6700
38     S38    -6.6492    4.0707   -8.3657 S.o2     1 ZINC000056898810    2.6900
39     O39    -7.6780    3.6887   -7.4108 O.co2    1 ZINC000056898810   -1.0600
40     O40    -6.7417    5.4745   -8.7354 O.co2    1 ZINC000056898810   -1.0600
41     O41    -6.6347    3.1992   -9.5303 O.co2    1 ZINC000056898810   -1.0600
42     C42    -4.9566    2.8890   -6.5850 C.ar     1 ZINC000056898810    0.0400
43     H43     0.2234    1.8336   -0.8242 H        1 ZINC000056898810    0.0500
44     H44    -1.5370    2.0538   -0.6796 H        1 ZINC000056898810    0.0500
45     H45    -0.5299    1.9497    0.7844 H        1 ZINC000056898810    0.1100
46     H46    -2.9954    0.0975   -0.2297 H        1 ZINC000056898810    0.0700
47     H47    -2.2798   -1.3554    0.5220 H        1 ZINC000056898810    0.0900
48     H48    -2.9051    2.1857    1.0650 H        1 ZINC000056898810    0.3700
49     H49     1.2110   -1.3726    3.1262 H        1 ZINC000056898810    0.0700
50     H50     2.3476   -0.2184    2.3907 H        1 ZINC000056898810    0.0700
51     H51     2.1489    0.0504    4.8876 H        1 ZINC000056898810    0.0800
52     H52     1.6786    1.5192    3.9925 H        1 ZINC000056898810    0.0900
53     H53     0.8000   -0.1905    6.6672 H        1 ZINC000056898810    0.1300
54     H54    -3.5858    0.1464    6.3340 H        1 ZINC000056898810    0.1400
55     H55    -3.3498    0.8147    4.0707 H        1 ZINC000056898810    0.1300
56     H56    -0.6418    2.8297    4.4518 H        1 ZINC000056898810    0.0400
57     H57    -0.2249    2.3499    2.7892 H        1 ZINC000056898810    0.0700
58     H58    -1.9243    2.6404    3.2321 H        1 ZINC000056898810    0.1000
59     H59     1.8725    0.5673   -0.1838 H        1 ZINC000056898810    0.0700
60     H60     2.2620   -1.1594    0.1095 H        1 ZINC000056898810    0.0700
61     H61     1.4475   -0.1937   -2.3704 H        1 ZINC000056898810    0.0800
62     H62     1.1406   -1.8685   -1.8284 H        1 ZINC000056898810    0.0800
63     H63    -1.1493   -2.1614   -2.6099 H        1 ZINC000056898810    0.3800
64     H64    -2.5248   -0.4619   -3.7073 H        1 ZINC000056898810    0.1100
65     H65    -3.0233    0.7139   -2.4674 H        1 ZINC000056898810    0.1100
66     H66    -1.6984    3.4211   -5.7938 H        1 ZINC000056898810    0.1400
67     H67    -1.9733    5.1384   -7.5332 H        1 ZINC000056898810    0.1300
68     H68    -4.1429    5.4212   -8.6572 H        1 ZINC000056898810    0.1400
69     H69    -5.7945    2.2610   -6.3204 H        1 ZINC000056898810    0.1500
@<TRIPOS>BOND
1     1     2     1
2     1     43    1
3     1     44    1
4     1     45    1
5     2     21    1
6     2     25    1
7     2     3     1
8     3     4     1
9     3     46    1
10    3     47    1
11    4     5     1
12    4     6     1
13    4     7     1
14    6     48    1
15    7     8     1
16    7     19    1
17    7     9     1
18    9     10    1
19    9     11    1
20    9     21    1
21    11    12    1
22    11    49    1
23    11    50    1
24    12    13    1
25    12    51    1
26    12    52    1
27    13    19    1
28    13    14    2
29    14    15    1
30    14    53    1
31    15    16    2
32    15    17    1
33    17    18    2
34    17    54    1
35    18    19    1
36    18    55    1
37    19    20    1
38    20    56    1
39    20    57    1
40    20    58    1
41    21    22    1
42    21    23    1
43    23    24    1
44    23    59    1
45    23    60    1
46    24    25    1
47    24    61    1
48    24    62    1
49    25    26    1
50    25    27    1
51    26    63    1
52    27    28    2
53    27    29    1
54    29    30    1
55    29    64    1
56    29    65    1
57    30    31    1
58    31    32    2
59    31    33    1
60    33    42    ar
61    33    34    ar
62    34    35    ar
63    34    66    1
64    35    36    ar
65    35    67    1
66    36    37    ar
67    36    68    1
68    37    38    1
69    37    42    ar
70    38    39    ar
71    38    40    ar
72    38    41    ar
73    42    69    1
@<TRIPOS>SUBSTRUCTURE
1   ZINC000056898810 1     RESIDUE    1   A     ZIN   1
