@<TRIPOS>MOLECULE
ZINC000200544782
59    61    1     0     0
SMALL
USER_CHARGES
@<TRIPOS>ATOM
1      C1      1.1948    1.9394    1.5893 C.2      1 ZINC000200544782   -0.1700
2      C2      0.8544    0.8096    1.0204 C.2      1 ZINC000200544782   -0.1300
3      C3     -0.5345    0.4076    0.5345 C.3      1 ZINC000200544782   -0.1000
4      C4     -0.4234   -1.0590    0.0355 C.3      1 ZINC000200544782   -0.1200
5      C5      0.8009   -1.5787    0.8000 C.3      1 ZINC000200544782   -0.1000
6      H6      0.5425   -1.7937    1.8368 H        1 ZINC000200544782    0.0700
7      C7      1.5122   -2.7638    0.1714 C.3      1 ZINC000200544782   -0.1100
8      H8      1.8187   -2.5161   -0.8449 H        1 ZINC000200544782    0.1400
9      C9      0.5829   -3.9790    0.1531 C.3      1 ZINC000200544782   -0.0200
10     N10     0.3124   -4.4094    1.5313 N.4      1 ZINC000200544782   -0.6400
11     H11    -0.1925   -5.2829    1.5179 H        1 ZINC000200544782    0.4400
12     H12     1.1851   -4.5329    2.0225 H        1 ZINC000200544782    0.4300
13     H13    -0.2411   -3.7081    2.0002 H        1 ZINC000200544782    0.4300
14     C14     2.7498   -3.0624    1.0330 C.3      1 ZINC000200544782   -0.0800
15     H15     2.4266   -3.3433    2.0354 H        1 ZINC000200544782    0.0600
16     C16     3.5220   -4.2281    0.4119 C.3      1 ZINC000200544782   -0.0600
17     C17     2.9099   -5.5509    0.8773 C.3      1 ZINC000200544782   -0.1900
18     C18     3.4420   -4.1378   -1.1133 C.3      1 ZINC000200544782   -0.1100
19     C19     4.2142   -5.3035   -1.7344 C.3      1 ZINC000200544782   -0.1600
20     C20     5.6784   -5.2367   -1.2957 C.3      1 ZINC000200544782    0.1000
21     H21     6.1144   -4.2944   -1.6272 H        1 ZINC000200544782    0.0600
22     O22     6.3996   -6.3255   -1.8758 O.3      1 ZINC000200544782   -0.5700
23     C23     5.7584   -5.3271    0.2295 C.3      1 ZINC000200544782   -0.1100
24     C24     4.9862   -4.1614    0.8507 C.3      1 ZINC000200544782   -0.0800
25     H25     5.4222   -3.2190    0.5191 H        1 ZINC000200544782    0.0900
26     C26     5.0662   -4.2517    2.3759 C.3      1 ZINC000200544782    0.0700
27     O27     6.4211   -4.0727    2.7933 O.3      1 ZINC000200544782   -0.5700
28     C28     3.6710   -1.8500    1.1276 C.3      1 ZINC000200544782   -0.1300
29     C29     2.9174   -0.6104    1.6375 C.3      1 ZINC000200544782   -0.1100
30     C30     1.7519   -0.3507    0.7077 C.3      1 ZINC000200544782   -0.0200
31     C31     2.2565   -0.2484   -0.7330 C.3      1 ZINC000200544782   -0.1500
32     H32     2.2195    2.1074    1.8860 H        1 ZINC000200544782    0.1100
33     H33     0.4515    2.7047    1.7576 H        1 ZINC000200544782    0.1100
34     H34    -1.2495    0.4696    1.3549 H        1 ZINC000200544782    0.0800
35     H35    -0.8465    1.0575   -0.2831 H        1 ZINC000200544782    0.0800
36     H36    -1.3152   -1.6268    0.3010 H        1 ZINC000200544782    0.0700
37     H37    -0.2497   -1.0897   -1.0402 H        1 ZINC000200544782    0.0800
38     H38    -0.3546   -3.7122   -0.3348 H        1 ZINC000200544782    0.1400
39     H39     1.0590   -4.7923   -0.3947 H        1 ZINC000200544782    0.1500
40     H40     1.9105   -5.6572    0.4554 H        1 ZINC000200544782    0.0500
41     H41     3.5355   -6.3784    0.5425 H        1 ZINC000200544782    0.0900
42     H42     2.8477   -5.5595    1.9655 H        1 ZINC000200544782    0.0600
43     H43     2.3988   -4.1854   -1.4259 H        1 ZINC000200544782    0.0700
44     H44     3.8780   -3.1954   -1.4449 H        1 ZINC000200544782    0.0800
45     H45     3.7781   -6.2459   -1.4029 H        1 ZINC000200544782    0.0700
46     H46     4.1572   -5.2392   -2.8211 H        1 ZINC000200544782    0.0700
47     H47     6.3915   -6.3319   -2.8427 H        1 ZINC000200544782    0.3800
48     H48     5.3223   -6.2694    0.5611 H        1 ZINC000200544782    0.0700
49     H49     6.8015   -5.2795    0.5421 H        1 ZINC000200544782    0.0800
50     H50     4.4438   -3.4743    2.8190 H        1 ZINC000200544782    0.0500
51     H51     4.7120   -5.2299    2.7010 H        1 ZINC000200544782    0.0500
52     H52     6.5469   -4.1179    3.7510 H        1 ZINC000200544782    0.3900
53     H53     4.4890   -2.0762    1.8117 H        1 ZINC000200544782    0.0900
54     H54     4.0818   -1.6365    0.1408 H        1 ZINC000200544782    0.0800
55     H55     2.5390   -0.7940    2.6431 H        1 ZINC000200544782    0.0600
56     H56     3.5834    0.2525    1.6427 H        1 ZINC000200544782    0.0700
57     H57     2.8341   -1.1393   -0.9799 H        1 ZINC000200544782    0.0700
58     H58     1.4067   -0.1670   -1.4107 H        1 ZINC000200544782    0.0600
59     H59     2.8883    0.6340   -0.8350 H        1 ZINC000200544782    0.0600
@<TRIPOS>BOND
1     1     2     2
2     1     32    1
3     1     33    1
4     2     30    1
5     2     3     1
6     3     4     1
7     3     34    1
8     3     35    1
9     4     5     1
10    4     36    1
11    4     37    1
12    5     6     1
13    5     30    1
14    5     7     1
15    7     8     1
16    7     9     1
17    7     14    1
18    9     10    1
19    9     38    1
20    9     39    1
21    10    11    1
22    10    12    1
23    10    13    1
24    14    15    1
25    14    16    1
26    14    28    1
27    16    24    1
28    16    17    1
29    16    18    1
30    17    40    1
31    17    41    1
32    17    42    1
33    18    19    1
34    18    43    1
35    18    44    1
36    19    20    1
37    19    45    1
38    19    46    1
39    20    21    1
40    20    22    1
41    20    23    1
42    22    47    1
43    23    24    1
44    23    48    1
45    23    49    1
46    24    25    1
47    24    26    1
48    26    27    1
49    26    50    1
50    26    51    1
51    27    52    1
52    28    29    1
53    28    53    1
54    28    54    1
55    29    30    1
56    29    55    1
57    29    56    1
58    30    31    1
59    31    57    1
60    31    58    1
61    31    59    1
@<TRIPOS>SUBSTRUCTURE
1   ZINC000200544782 1     RESIDUE    1   A     ZIN   1
