@<TRIPOS>MOLECULE
ZINC000019418965
26    28    1     0     0
SMALL
USER_CHARGES
@<TRIPOS>ATOM
1      C1     -0.0166    1.3735    0.0096 C.ar     1 ZINC000019418965   -0.0800
2      C2      1.1682    2.0962    0.0022 C.ar     1 ZINC000019418965   -0.1300
3      C3      2.3737    1.4535   -0.0125 C.ar     1 ZINC000019418965   -0.0700
4      C4      2.4182    0.0577   -0.0202 C.ar     1 ZINC000019418965   -0.1000
5      C5      1.2170   -0.6798   -0.0131 C.ar     1 ZINC000019418965    0.1100
6      C6      0.0021   -0.0041    0.0020 C.ar     1 ZINC000019418965   -0.1300
7      N7      1.5564   -2.0162   -0.0241 N.pl3    1 ZINC000019418965   -0.5700
8      C8      2.9136   -2.1508   -0.0381 C.2      1 ZINC000019418965    0.0200
9      C9      3.4883   -0.9301   -0.0347 C.2      1 ZINC000019418965   -0.1600
10     C10     4.9800   -0.7128   -0.0413 C.3      1 ZINC000019418965   -0.0700
11     C11     5.6477   -2.0452    0.3291 C.3      1 ZINC000019418965   -0.0100
12     N12     5.0835   -3.1224   -0.4949 N.4      1 ZINC000019418965   -0.5000
13     H13     5.0687   -2.8315   -1.4609 H        1 ZINC000019418965    0.4300
14     H14     5.6561   -3.9481   -0.4033 H        1 ZINC000019418965    0.4400
15     C15     3.7132   -3.4327   -0.0585 C.3      1 ZINC000019418965    0.0700
16     H16    -0.9618    1.8958    0.0259 H        1 ZINC000019418965    0.1400
17     H17     1.1371    3.1758    0.0077 H        1 ZINC000019418965    0.1300
18     H18     3.2907    2.0239   -0.0185 H        1 ZINC000019418965    0.1300
19     H19    -0.9251   -0.5579    0.0083 H        1 ZINC000019418965    0.1300
20     H20     0.9238   -2.7515   -0.0218 H        1 ZINC000019418965    0.4200
21     H21     5.3035   -0.4009   -1.0343 H        1 ZINC000019418965    0.1000
22     H22     5.2455    0.0496    0.6911 H        1 ZINC000019418965    0.1200
23     H23     6.7208   -1.9756    0.1508 H        1 ZINC000019418965    0.1400
24     H24     5.4679   -2.2612    1.3822 H        1 ZINC000019418965    0.1300
25     H25     3.7366   -3.8655    0.9417 H        1 ZINC000019418965    0.1500
26     H26     3.2579   -4.1372   -0.7546 H        1 ZINC000019418965    0.1400
@<TRIPOS>BOND
1     1     6     ar
2     1     2     ar
3     1     16    1
4     2     3     ar
5     2     17    1
6     3     4     ar
7     3     18    1
8     4     9     1
9     4     5     ar
10    5     6     ar
11    5     7     1
12    6     19    1
13    7     8     1
14    7     20    1
15    8     15    1
16    8     9     2
17    9     10    1
18    10    11    1
19    10    21    1
20    10    22    1
21    11    12    1
22    11    23    1
23    11    24    1
24    12    13    1
25    12    14    1
26    12    15    1
27    15    25    1
28    15    26    1
@<TRIPOS>SUBSTRUCTURE
1   ZINC000019418965 1     RESIDUE    1   A     ZIN   1
