@<TRIPOS>MOLECULE
ZINC000000004308
  18   19    0    0    0
SMALL
USER_CHARGES
NO_NAME
@<TRIPOS>ATOM
    1 O1        0.0021    -0.0041     0.0020 O.2    1 <0>      -0.5000
    2 C2       -0.0144     1.2086     0.0087 C.2    1 <0>       0.5200
    3 C3       -1.2546     2.0839     0.0319 C.3    1 <0>       0.1000
    4 N4       -0.7846     3.3784    -0.4898 N.am   1 <0>      -0.6400
    5 C5       -1.0650     4.4749    -1.2029 C.2    1 <0>       0.5500
    6 O6       -2.1804     4.8372    -1.5118 O.2    1 <0>      -0.5100
    7 C7        0.2161     5.1984    -1.5676 C.3    1 <0>      -0.1400
    8 C8        1.3434     4.2217    -1.1452 C.3    1 <0>      -0.1400
    9 C9        0.6288     3.4074    -0.0541 C.3    1 <0>       0.3100
   10 H10       0.7262     3.8922     0.9173 H      1 <0>       0.1100
   11 N11       1.0691     2.0183     0.0027 N.am   1 <0>      -0.7300
   12 H12      -2.0276     1.6690    -0.6149 H      1 <0>       0.1200
   13 H13      -1.6257     2.1943     1.0508 H      1 <0>       0.1200
   14 H14       0.2560     5.3848    -2.6408 H      1 <0>       0.1100
   15 H15       0.2958     6.1342    -1.0144 H      1 <0>       0.1200
   16 H16       1.6440     3.5850    -1.9773 H      1 <0>       0.0900
   17 H17       2.1981     4.7610    -0.7368 H      1 <0>       0.1000
   18 H18       1.9924     1.7220     0.0277 H      1 <0>       0.4300
@<TRIPOS>BOND
   1    1    2 2
   2    2   11 am
   3    2    3 1
   4    3    4 1
   5    3   12 1
   6    3   13 1
   7    4    9 1
   8    4    5 am
   9    5    6 2
  10    5    7 1
  11    7    8 1
  12    7   14 1
  13    7   15 1
  14    8    9 1
  15    8   16 1
  16    8   17 1
  17    9   10 1
  18    9   11 1
  19   11   18 1
