@<TRIPOS>MOLECULE
ZINC000072266311
55    58    1     0     0
SMALL
USER_CHARGES
@<TRIPOS>ATOM
1      O1      0.0021   -0.0041    0.0020 O.co2    1 ZINC000072266311   -0.6700
2      C2     -0.0145    1.2150    0.0087 C.2      1 ZINC000072266311    0.5000
3      O3      1.0330    1.8389    0.0021 O.co2    1 ZINC000072266311   -0.6900
4      C4     -1.3296    1.9507    0.0190 C.3      1 ZINC000072266311   -0.0100
5      O5     -2.4031    1.0074    0.0189 O.3      1 ZINC000072266311   -0.2800
6      C6     -3.6658    1.5097    0.0276 C.ar     1 ZINC000072266311    0.1400
7      C7     -3.8676    2.8821    0.0303 C.ar     1 ZINC000072266311   -0.2100
8      C8     -5.1523    3.3903    0.0386 C.ar     1 ZINC000072266311   -0.0800
9      C9     -6.2363    2.5323    0.0449 C.ar     1 ZINC000072266311   -0.1700
10     C10    -6.0378    1.1637    0.0428 C.ar     1 ZINC000072266311   -0.0800
11     C11    -7.2217    0.2313    0.0501 C.3      1 ZINC000072266311    0.1600
12     N12    -7.6145   -0.0700   -1.3287 N.am     1 ZINC000072266311   -0.9800
13     C13    -6.9473   -1.1491   -2.0613 C.3      1 ZINC000072266311    0.1600
14     C14    -7.6124   -2.4621   -1.7378 C.ar     1 ZINC000072266311   -0.1200
15     C15    -7.1660   -3.2168   -0.6686 C.ar     1 ZINC000072266311   -0.0700
16     C16    -7.7739   -4.4203   -0.3693 C.ar     1 ZINC000072266311   -0.1200
17     C17    -8.8343   -4.8722   -1.1432 C.ar     1 ZINC000072266311    0.1600
18     N18    -9.4536   -6.0931   -0.8417 N.pl3    1 ZINC000072266311   -0.3200
19     C19   -10.4869   -6.6487   -1.5141 C.2      1 ZINC000072266311    0.0500
20     C20   -10.7890   -7.8209   -0.9093 C.2      1 ZINC000072266311   -0.2600
21     C21    -9.9121   -7.9882    0.1682 C.2      1 ZINC000072266311    0.0500
22     N22    -9.1078   -6.9565    0.2058 N.2      1 ZINC000072266311   -0.2900
23     C23    -9.2803   -4.1122   -2.2161 C.ar     1 ZINC000072266311   -0.1400
24     C24    -8.6717   -2.9070   -2.5073 C.ar     1 ZINC000072266311   -0.0700
25     S25    -8.8128    0.8091   -2.0592 S.o2     1 ZINC000072266311    2.6900
26     O26    -9.4401   -0.0630   -2.9894 O.2      1 ZINC000072266311   -0.9500
27     O27    -9.5170    1.4708   -1.0174 O.2      1 ZINC000072266311   -0.9500
28     C28    -8.0296    2.0696   -3.0092 C.ar     1 ZINC000072266311   -0.7400
29     C29    -7.7493    3.3034   -2.4427 C.ar     1 ZINC000072266311    0.0300
30     C30    -7.1316    4.2652   -3.2279 C.ar     1 ZINC000072266311   -0.1900
31     C31    -6.8183    3.9639   -4.5396 C.ar     1 ZINC000072266311    0.1500
32     N32    -7.1000    2.7790   -5.0454 N.ar     1 ZINC000072266311   -0.5000
33     C33    -7.6819    1.8389   -4.3269 C.ar     1 ZINC000072266311    0.2000
34     C34    -4.7555    0.6507    0.0281 C.ar     1 ZINC000072266311   -0.1400
35     H35    -1.3917    2.5717    0.9126 H        1 ZINC000072266311    0.0600
36     H36    -1.4001    2.5813   -0.8673 H        1 ZINC000072266311    0.0600
37     H37    -3.0211    3.5528    0.0261 H        1 ZINC000072266311    0.1300
38     H38    -5.3099    4.4587    0.0407 H        1 ZINC000072266311    0.1200
39     H39    -7.2398    2.9315    0.0518 H        1 ZINC000072266311    0.1200
40     H40    -6.9530   -0.6930    0.5616 H        1 ZINC000072266311    0.1000
41     H41    -8.0543    0.7053    0.5697 H        1 ZINC000072266311    0.1100
42     H42    -7.0190   -0.9596   -3.1323 H        1 ZINC000072266311    0.0900
43     H43    -5.8979   -1.1917   -1.7693 H        1 ZINC000072266311    0.1000
44     H44    -6.3409   -2.8649   -0.0671 H        1 ZINC000072266311    0.1400
45     H45    -7.4245   -5.0095    0.4657 H        1 ZINC000072266311    0.1400
46     H46   -10.9822   -6.2318   -2.3786 H        1 ZINC000072266311    0.1800
47     H47   -11.5693   -8.5062   -1.2057 H        1 ZINC000072266311    0.1500
48     H48    -9.8986   -8.8265    0.8490 H        1 ZINC000072266311    0.1900
49     H49   -10.1049   -4.4612   -2.8200 H        1 ZINC000072266311    0.1300
50     H50    -9.0182   -2.3154   -3.3417 H        1 ZINC000072266311    0.1500
51     H51    -8.0061    3.5108   -1.4144 H        1 ZINC000072266311    0.1500
52     H52    -6.8987    5.2375   -2.8195 H        1 ZINC000072266311    0.1500
53     H53    -6.3375    4.7076   -5.1578 H        1 ZINC000072266311    0.1600
54     H54    -7.8971    0.8804   -4.7757 H        1 ZINC000072266311    0.1700
55     H55    -4.6010   -0.4182    0.0261 H        1 ZINC000072266311    0.1300
@<TRIPOS>BOND
1     1     2     ar
2     2     3     ar
3     2     4     1
4     4     5     1
5     4     35    1
6     4     36    1
7     5     6     1
8     6     34    ar
9     6     7     ar
10    7     8     ar
11    7     37    1
12    8     9     ar
13    8     38    1
14    9     10    ar
15    9     39    1
16    10    11    1
17    10    34    ar
18    11    12    1
19    11    40    1
20    11    41    1
21    12    13    1
22    12    25    am
23    13    14    1
24    13    42    1
25    13    43    1
26    14    24    ar
27    14    15    ar
28    15    16    ar
29    15    44    1
30    16    17    ar
31    16    45    1
32    17    18    1
33    17    23    ar
34    18    22    1
35    18    19    1
36    19    20    2
37    19    46    1
38    20    21    1
39    20    47    1
40    21    22    2
41    21    48    1
42    23    24    ar
43    23    49    1
44    24    50    1
45    25    26    2
46    25    27    2
47    25    28    1
48    28    33    ar
49    28    29    ar
50    29    30    ar
51    29    51    1
52    30    31    ar
53    30    52    1
54    31    32    ar
55    31    53    1
56    32    33    ar
57    33    54    1
58    34    55    1
@<TRIPOS>SUBSTRUCTURE
1   ZINC000072266311 1     RESIDUE    1   A     ZIN   1
