@<TRIPOS>MOLECULE
ZINC000003820709
37    37    1     0     0
SMALL
USER_CHARGES
@<TRIPOS>ATOM
1      O1      0.0024   -0.0034    0.0376 O.2      1 ZINC000003820709   -0.6000
2      C2     -0.0140    1.2093    0.0394 C.2      1 ZINC000003820709    0.4500
3      C3      1.2807    1.9804    0.0239 C.3      1 ZINC000003820709   -0.1400
4      C4      2.4569    1.0020    0.0074 C.3      1 ZINC000003820709   -0.1000
5      C5      3.7713    1.7849   -0.0084 C.3      1 ZINC000003820709   -0.1200
6      C6      4.9475    0.8065   -0.0248 C.3      1 ZINC000003820709   -0.1200
7      C7      6.2619    1.5894   -0.0406 C.3      1 ZINC000003820709   -0.1000
8      C8      7.4381    0.6110   -0.0571 C.3      1 ZINC000003820709   -0.1400
9      C9      8.7328    1.3821   -0.0727 C.2      1 ZINC000003820709    0.5100
10     O10     8.7164    2.5948   -0.0708 O.2      1 ZINC000003820709   -0.5200
11     N11     9.9089    0.7241   -0.0887 N.am     1 ZINC000003820709   -0.6700
12     C12    11.1080    1.4368   -0.2019 C.ar     1 ZINC000003820709    0.1000
13     C13    11.2468    2.6857    0.3978 C.ar     1 ZINC000003820709   -0.0800
14     C14    12.4532    3.3524    0.2580 C.ar     1 ZINC000003820709   -0.1500
15     C15    13.4714    2.7613   -0.4662 C.ar     1 ZINC000003820709    0.0800
16     N16    13.3080    1.5766   -1.0223 N.ar     1 ZINC000003820709   -0.4700
17     C17    12.1790    0.9062   -0.9094 C.ar     1 ZINC000003820709    0.0800
18     N18    -1.1902    1.8673    0.0498 N.am     1 ZINC000003820709   -0.5400
19     O19    -2.4067    1.1427    0.0586 O.3      1 ZINC000003820709   -0.6900
20     H20     1.3185    2.6090   -0.8658 H        1 ZINC000003820709    0.0700
21     H21     1.3414    2.6066    0.9140 H        1 ZINC000003820709    0.0700
22     H22     2.4190    0.3734    0.8971 H        1 ZINC000003820709    0.0700
23     H23     2.3962    0.3758   -0.8827 H        1 ZINC000003820709    0.0600
24     H24     3.8091    2.4135   -0.8981 H        1 ZINC000003820709    0.0600
25     H25     3.8320    2.4110    0.8817 H        1 ZINC000003820709    0.0600
26     H26     4.9096    0.1779    0.8649 H        1 ZINC000003820709    0.0600
27     H27     4.8868    0.1803   -0.9150 H        1 ZINC000003820709    0.0600
28     H28     6.2997    2.2179   -0.9303 H        1 ZINC000003820709    0.0700
29     H29     6.3226    2.2155    0.8495 H        1 ZINC000003820709    0.0700
30     H30     7.4003   -0.0176    0.8326 H        1 ZINC000003820709    0.1000
31     H31     7.3774   -0.0152   -0.9472 H        1 ZINC000003820709    0.1000
32     H32     9.9242   -0.2435   -0.0217 H        1 ZINC000003820709    0.4100
33     H33    10.4340    3.1240    0.9579 H        1 ZINC000003820709    0.1500
34     H34    12.5964    4.3231    0.7094 H        1 ZINC000003820709    0.1400
35     H35    14.4137    3.2768   -0.5786 H        1 ZINC000003820709    0.1600
36     H36    12.0826   -0.0616   -1.3789 H        1 ZINC000003820709    0.1600
37     H37    -1.2033    2.8372    0.0513 H        1 ZINC000003820709    0.3600
@<TRIPOS>BOND
1     1     2     2
2     2     3     1
3     2     18    am
4     3     4     1
5     3     20    1
6     3     21    1
7     4     5     1
8     4     22    1
9     4     23    1
10    5     6     1
11    5     24    1
12    5     25    1
13    6     7     1
14    6     26    1
15    6     27    1
16    7     8     1
17    7     28    1
18    7     29    1
19    8     9     1
20    8     30    1
21    8     31    1
22    9     10    2
23    9     11    am
24    11    12    1
25    11    32    1
26    12    17    ar
27    12    13    ar
28    13    14    ar
29    13    33    1
30    14    15    ar
31    14    34    1
32    15    16    ar
33    15    35    1
34    16    17    ar
35    17    36    1
36    18    19    1
37    18    37    1
@<TRIPOS>SUBSTRUCTURE
1   ZINC000003820709 1     RESIDUE    1   A     ZIN   1
