@<TRIPOS>MOLECULE
ZINC000001484406
  20   20    0    0    0
SMALL
USER_CHARGES
NO_NAME
@<TRIPOS>ATOM
    1 N1       -0.0116     1.0048     0.0076 N.4    1 <0>      -0.6100
    2 H2        0.0021    -0.0041     0.0020 H      1 <0>       0.4300
    3 H3        0.9350     1.3541     0.0004 H      1 <0>       0.4100
    4 H4       -0.4996     1.3391    -0.8099 H      1 <0>       0.4300
    5 C5       -0.6992     1.4786     1.2162 C.3    1 <0>      -0.0500
    6 H6       -0.1720     1.1175     2.0992 H      1 <0>       0.1300
    7 C7       -0.7199     3.0084     1.2246 C.3    1 <0>      -0.0200
    8 C8        0.6896     3.5293     1.3378 C.2    1 <0>      -0.3600
    9 C9        1.5203     3.9182     0.3326 C.2    1 <0>       0.1100
   10 N10       2.6734     4.3083     0.9024 N.pl3  1 <0>      -0.4900
   11 O11       2.6373     4.2030     2.1069 O.3    1 <0>      -0.0700
   12 C12       1.4478     3.7311     2.5110 C.2    1 <0>       0.4600
   13 O13       1.0961     3.5130     3.6588 O.2    1 <0>      -0.4600
   14 C14      -2.1130     0.9569     1.2269 C.2    1 <0>       0.4900
   15 O15      -2.8004     1.0794     2.2264 O.co2  1 <0>      -0.6300
   16 O16      -2.5694     0.4125     0.2361 O.co2  1 <0>      -0.6700
   17 H17      -1.1680     3.3708     0.2994 H      1 <0>       0.0900
   18 H18      -1.3062     3.3592     2.0739 H      1 <0>       0.1200
   19 H19       1.2956     3.9136    -0.7238 H      1 <0>       0.2100
   20 H20       3.4414     4.6345     0.4078 H      1 <0>       0.4700
@<TRIPOS>BOND
   1    1    2 1
   2    1    3 1
   3    1    4 1
   4    1    5 1
   5    5    6 1
   6    5    7 1
   7    5   14 1
   8    7    8 1
   9    7   17 1
  10    7   18 1
  11    8   12 1
  12    8    9 2
  13    9   10 1
  14    9   19 1
  15   10   11 1
  16   10   20 1
  17   11   12 1
  18   12   13 2
  19   14   15 ar
  20   14   16 ar
