@<TRIPOS>MOLECULE
ZINC000034851244
53    56    1     0     0
SMALL
USER_CHARGES
@<TRIPOS>ATOM
1      C1      0.0503    1.4789    0.0874 C.3      1 ZINC000034851244    0.1000
2      N2      0.0622    0.0141    0.0708 N.pl3    1 ZINC000034851244   -0.3700
3      C3      0.0620   -0.7641   -1.0303 C.2      1 ZINC000034851244    0.0900
4      C4      0.0755   -2.0642   -0.6169 C.2      1 ZINC000034851244   -0.2300
5      C5      0.0807   -3.2632   -1.4926 C.ar     1 ZINC000034851244    0.0800
6      C6      0.0771   -3.1171   -2.8779 C.ar     1 ZINC000034851244   -0.1500
7      C7      0.0819   -4.2351   -3.6873 C.ar     1 ZINC000034851244    0.0000
8      C8      0.0898   -5.4988   -3.1252 C.ar     1 ZINC000034851244   -0.6900
9      S9      0.0953   -6.9218   -4.1644 S.o2     1 ZINC000034851244    2.6700
10     O10    -0.4419   -7.9858   -3.3907 O.2      1 ZINC000034851244   -0.9300
11     O11    -0.4538   -6.5117   -5.4092 O.2      1 ZINC000034851244   -0.9200
12     N12     1.6786   -7.3092   -4.4567 N.am     1 ZINC000034851244   -0.8000
13     C13     2.4198   -6.8263   -5.4954 C.2      1 ZINC000034851244    0.0000
14     C14     3.6585   -7.3448   -5.4316 C.2      1 ZINC000034851244   -0.1400
15     C15     3.6813   -8.2208   -4.2540 C.2      1 ZINC000034851244   -0.1400
16     C16     4.8154   -9.0131   -3.7636 C.2      1 ZINC000034851244    0.0400
17     C17     5.9972   -8.9800   -4.4195 C.2      1 ZINC000034851244   -0.2400
18     C18     7.0918   -9.7448   -3.9460 C.2      1 ZINC000034851244    0.5500
19     O19     6.9682  -10.4320   -2.9484 O.2      1 ZINC000034851244   -0.5300
20     N20     8.2698   -9.7117   -4.5999 N.am     1 ZINC000034851244   -0.6700
21     C21     9.3840  -10.3743   -4.0694 C.ar     1 ZINC000034851244    0.0700
22     C22     9.4665  -10.6142   -2.7064 C.ar     1 ZINC000034851244   -0.0800
23     C23    10.5676  -11.2681   -2.1848 C.ar     1 ZINC000034851244   -0.1600
24     C24    11.5884  -11.6848   -3.0187 C.ar     1 ZINC000034851244   -0.0900
25     C25    11.5145  -11.4503   -4.3794 C.ar     1 ZINC000034851244   -0.1800
26     C26    10.4115  -10.8000   -4.9119 C.ar     1 ZINC000034851244    0.1900
27     N27    10.3343  -10.5620   -6.2884 N.pl3    1 ZINC000034851244   -0.8800
28     C28     2.4200   -8.1421   -3.6986 C.2      1 ZINC000034851244    0.0500
29     C29     0.0939   -5.6496   -1.7503 C.ar     1 ZINC000034851244    0.0000
30     C30     0.0949   -4.5383   -0.9317 C.ar     1 ZINC000034851244   -0.1400
31     C31     0.0843   -2.0621    0.7915 C.2      1 ZINC000034851244    0.0700
32     N32     0.0818   -0.8194    1.1956 N.2      1 ZINC000034851244   -0.2900
33     H33     1.0750    1.8507    0.0802 H        1 ZINC000034851244    0.0800
34     H34    -0.4762    1.8480   -0.7928 H        1 ZINC000034851244    0.0900
35     H35    -0.4566    1.8280    0.9870 H        1 ZINC000034851244    0.0900
36     H36     0.0527   -0.4204   -2.0541 H        1 ZINC000034851244    0.1800
37     H37     0.0702   -2.1307   -3.3177 H        1 ZINC000034851244    0.1300
38     H38     0.0791   -4.1229   -4.7615 H        1 ZINC000034851244    0.1400
39     H39     2.0675   -6.1373   -6.2488 H        1 ZINC000034851244    0.1900
40     H40     4.4751   -7.1547   -6.1124 H        1 ZINC000034851244    0.1600
41     H41     4.7058   -9.6226   -2.8788 H        1 ZINC000034851244    0.1400
42     H42     6.1068   -8.3705   -5.3043 H        1 ZINC000034851244    0.1300
43     H43     8.3461   -9.2290   -5.4378 H        1 ZINC000034851244    0.4000
44     H44     8.6709  -10.2900   -2.0519 H        1 ZINC000034851244    0.1500
45     H45    10.6305  -11.4534   -1.1227 H        1 ZINC000034851244    0.1200
46     H46    12.4463  -12.1948   -2.6061 H        1 ZINC000034851244    0.1200
47     H47    12.3139  -11.7769   -5.0279 H        1 ZINC000034851244    0.1200
48     H48    11.0529  -10.8520   -6.8718 H        1 ZINC000034851244    0.4000
49     H49     9.5621  -10.1069   -6.6593 H        1 ZINC000034851244    0.3900
50     H50     2.0833   -8.6630   -2.8145 H        1 ZINC000034851244    0.1900
51     H51     0.1000   -6.6386   -1.3165 H        1 ZINC000034851244    0.1400
52     H52     0.0981   -4.6571    0.1417 H        1 ZINC000034851244    0.1400
53     H53     0.0956   -2.9354    1.4268 H        1 ZINC000034851244    0.1900
@<TRIPOS>BOND
1     1     2     1
2     1     33    1
3     1     34    1
4     1     35    1
5     2     32    1
6     2     3     1
7     3     4     2
8     3     36    1
9     4     5     1
10    4     31    1
11    5     30    ar
12    5     6     ar
13    6     7     ar
14    6     37    1
15    7     8     ar
16    7     38    1
17    8     9     1
18    8     29    ar
19    9     10    2
20    9     11    2
21    9     12    am
22    12    28    1
23    12    13    1
24    13    14    2
25    13    39    1
26    14    15    1
27    14    40    1
28    15    16    1
29    15    28    2
30    16    17    2
31    16    41    1
32    17    18    1
33    17    42    1
34    18    19    2
35    18    20    am
36    20    21    1
37    20    43    1
38    21    26    ar
39    21    22    ar
40    22    23    ar
41    22    44    1
42    23    24    ar
43    23    45    1
44    24    25    ar
45    24    46    1
46    25    26    ar
47    25    47    1
48    26    27    1
49    27    48    1
50    27    49    1
51    28    50    1
52    29    30    ar
53    29    51    1
54    30    52    1
55    31    32    2
56    31    53    1
@<TRIPOS>SUBSTRUCTURE
1   ZINC000034851244 1     RESIDUE    1   A     ZIN   1
