@<TRIPOS>MOLECULE
ZINC000033359232
  55   58    0    0    0
SMALL
USER_CHARGES
NO_NAME
@<TRIPOS>ATOM
    1 N1        0.9547    -0.2640     0.3876 N.4    1 <0>      -0.6400
    2 H2        1.0544    -1.2363     0.6379 H      1 <0>       0.4400
    3 H3        1.8601     0.1813     0.4012 H      1 <0>       0.4400
    4 H4        0.5592    -0.1937    -0.5379 H      1 <0>       0.4500
    5 C5        0.0675     0.4012     1.3511 C.3    1 <0>      -0.0100
    6 C6        0.6673     0.2947     2.7546 C.3    1 <0>      -0.1500
    7 C7       -0.2569     0.9874     3.7581 C.3    1 <0>      -0.1600
    8 C8        0.3430     0.8809     5.1616 C.3    1 <0>      -0.0200
    9 N9       -0.6173     1.3991     6.1451 N.4    1 <0>      -0.3800
   10 H10      -1.5064     0.9382     6.0222 H      1 <0>       0.4300
   11 C11      -0.1158     1.1419     7.5017 C.3    1 <0>       0.0800
   12 C12      -1.1597     1.5502     8.5090 C.2    1 <0>       0.1900
   13 N13      -1.3100     2.7535     8.9804 N.2    1 <0>      -0.4400
   14 C14      -2.3405     2.7719     9.8645 C.ar   1 <0>       0.0400
   15 C15      -2.9218     3.7735    10.6459 C.ar   1 <0>      -0.0500
   16 C16      -3.9772     3.4748    11.4607 C.ar   1 <0>      -0.1200
   17 C17      -4.4808     2.1836    11.5219 C.ar   1 <0>      -0.0700
   18 C18      -3.9226     1.1790    10.7599 C.ar   1 <0>      -0.1200
   19 C19      -2.8503     1.4637     9.9261 C.ar   1 <0>       0.0800
   20 N20      -2.0857     0.7155     9.0533 N.pl3  1 <0>      -0.5800
   21 C21      -0.7846     2.8456     5.9510 C.3    1 <0>       0.0800
   22 H22      -1.3181     3.2635     6.8047 H      1 <0>       0.1700
   23 C23       0.5903     3.5020     5.8458 C.3    1 <0>      -0.1400
   24 C24       0.3990     4.9664     5.4342 C.3    1 <0>      -0.1200
   25 C25      -0.0855     5.0001     3.9858 C.3    1 <0>      -0.0900
   26 C26      -1.2665     4.0855     3.8025 C.ar   1 <0>      -0.1000
   27 C27      -2.0621     4.2648     2.6752 C.ar   1 <0>      -0.0700
   28 C28      -3.1501     3.4298     2.4854 C.ar   1 <0>      -0.1400
   29 C29      -3.4072     2.4465     3.4218 C.ar   1 <0>       0.1100
   30 N30      -2.6343     2.3078     4.4771 N.ar   1 <0>      -0.5000
   31 C31      -1.5845     3.0896     4.6970 C.ar   1 <0>       0.0800
   32 H32      -0.0402     1.4516     1.0808 H      1 <0>       0.1300
   33 H33      -0.9106    -0.0798     1.3365 H      1 <0>       0.1400
   34 H34       0.7749    -0.7558     3.0250 H      1 <0>       0.1000
   35 H35       1.6453     0.7757     2.7692 H      1 <0>       0.1000
   36 H36      -0.3645     2.0379     3.4877 H      1 <0>       0.1100
   37 H37      -1.2349     0.5064     3.7435 H      1 <0>       0.1000
   38 H38       0.5634    -0.1631     5.3842 H      1 <0>       0.1400
   39 H39       1.2623     1.4645     5.2090 H      1 <0>       0.1400
   40 H40       0.1012     0.0796     7.6135 H      1 <0>       0.1500
   41 H41       0.7944     1.7181     7.6679 H      1 <0>       0.1600
   42 H42      -2.5375     4.7820    10.6063 H      1 <0>       0.1400
   43 H43      -4.4237     4.2518    12.0636 H      1 <0>       0.1400
   44 H44      -5.3155     1.9636    12.1710 H      1 <0>       0.1400
   45 H45      -4.3180     0.1753    10.8118 H      1 <0>       0.1300
   46 H46      -2.1891    -0.2303     8.8641 H      1 <0>       0.4300
   47 H47       1.0932     3.4557     6.8118 H      1 <0>       0.1100
   48 H48       1.1865     2.9850     5.0939 H      1 <0>       0.0900
   49 H49      -0.3428     5.4356     6.0805 H      1 <0>       0.0800
   50 H50       1.3471     5.4979     5.5167 H      1 <0>       0.1000
   51 H51      -0.3758     6.0184     3.7273 H      1 <0>       0.1000
   52 H52       0.7230     4.6795     3.3287 H      1 <0>       0.0900
   53 H53      -1.8352     5.0423     1.9608 H      1 <0>       0.1500
   54 H54      -3.7869     3.5451     1.6208 H      1 <0>       0.1500
   55 H55      -4.2509     1.7860     3.2860 H      1 <0>       0.1700
@<TRIPOS>BOND
   1    1    2 1
   2    1    3 1
   3    1    4 1
   4    1    5 1
   5    5    6 1
   6    5   32 1
   7    5   33 1
   8    6    7 1
   9    6   34 1
  10    6   35 1
  11    7    8 1
  12    7   36 1
  13    7   37 1
  14    8    9 1
  15    8   38 1
  16    8   39 1
  17    9   10 1
  18    9   11 1
  19    9   21 1
  20   11   12 1
  21   11   40 1
  22   11   41 1
  23   12   20 1
  24   12   13 2
  25   13   14 1
  26   14   19 ar
  27   14   15 ar
  28   15   16 ar
  29   15   42 1
  30   16   17 ar
  31   16   43 1
  32   17   18 ar
  33   17   44 1
  34   18   19 ar
  35   18   45 1
  36   19   20 1
  37   20   46 1
  38   21   22 1
  39   21   31 1
  40   21   23 1
  41   23   24 1
  42   23   47 1
  43   23   48 1
  44   24   25 1
  45   24   49 1
  46   24   50 1
  47   25   26 1
  48   25   51 1
  49   25   52 1
  50   26   31 ar
  51   26   27 ar
  52   27   28 ar
  53   27   53 1
  54   28   29 ar
  55   28   54 1
  56   29   30 ar
  57   29   55 1
  58   30   31 ar
