@<TRIPOS>MOLECULE
ZINC000034007762
49    51    1     0     0
SMALL
USER_CHARGES
@<TRIPOS>ATOM
1      C1     -0.0187    1.5258    0.0104 C.3      1 ZINC000034007762   -0.1600
2      C2      0.0021   -0.0041    0.0020 C.3      1 ZINC000034007762   -0.1300
3      C3      0.7182   -0.4975   -1.2568 C.3      1 ZINC000034007762    0.1500
4      H4      1.7103   -0.0491   -1.3098 H        1 ZINC000034007762    0.1000
5      C5      0.8493   -2.0210   -1.2049 C.3      1 ZINC000034007762   -0.1700
6      N6     -0.0549   -0.1139   -2.4405 N.pl3    1 ZINC000034007762   -0.6700
7      C7      0.5714    0.0303   -3.6509 C.2      1 ZINC000034007762    0.6800
8      N8      1.8708   -0.1804   -3.7588 N.2      1 ZINC000034007762   -0.6000
9      C9      2.4914   -0.0439   -4.9278 C.2      1 ZINC000034007762    0.4000
10     C10     3.9754   -0.2932   -5.0097 C.3      1 ZINC000034007762   -0.0800
11     N11     1.8360    0.3034   -6.0123 N.2      1 ZINC000034007762   -0.5400
12     C12     0.5157    0.5289   -5.9571 C.2      1 ZINC000034007762    0.3300
13     C13    -0.4382    0.9006   -6.9037 C.2      1 ZINC000034007762   -0.2000
14     C14    -0.1947    1.1606   -8.3424 C.ar     1 ZINC000034007762   -0.0800
15     C15    -0.2930    0.1243   -9.2777 C.ar     1 ZINC000034007762   -0.0200
16     C16    -0.0574    0.4158  -10.6081 C.ar     1 ZINC000034007762   -0.1900
17     C17     0.2667    1.7173  -10.9708 C.ar     1 ZINC000034007762    0.3200
18     O18     0.4988    2.0102  -12.2757 O.3      1 ZINC000034007762   -0.3100
19     C19     0.8277    3.3653  -12.5878 C.3      1 ZINC000034007762    0.0400
20     N20     0.3518    2.6750  -10.0624 N.ar     1 ZINC000034007762   -0.5400
21     C21     0.1298    2.4413   -8.7842 C.ar     1 ZINC000034007762    0.1900
22     C22     0.2399    3.5681   -7.7896 C.3      1 ZINC000034007762   -0.1000
23     C23    -1.6707    0.9818   -6.2408 C.2      1 ZINC000034007762    0.1500
24     C24    -2.9858    1.3519   -6.8770 C.3      1 ZINC000034007762   -0.0800
25     N25    -1.4924    0.6824   -4.9775 N.2      1 ZINC000034007762   -0.3100
26     N26    -0.1440    0.3883   -4.7607 N.pl3    1 ZINC000034007762   -0.3800
27     H27     1.0039    1.9031    0.0027 H        1 ZINC000034007762    0.0600
28     H28    -0.5459    1.8868   -0.8726 H        1 ZINC000034007762    0.0500
29     H29    -0.5289    1.8773    0.9072 H        1 ZINC000034007762    0.0600
30     H30     0.5293   -0.3651    0.8851 H        1 ZINC000034007762    0.0900
31     H31    -1.0205   -0.3814    0.0098 H        1 ZINC000034007762    0.0700
32     H32     1.3594   -2.3725   -2.1017 H        1 ZINC000034007762    0.0600
33     H33     1.4245   -2.3064   -0.3242 H        1 ZINC000034007762    0.0700
34     H34    -0.1428   -2.4694   -1.1520 H        1 ZINC000034007762    0.0600
35     H35    -1.0102    0.0381   -2.3676 H        1 ZINC000034007762    0.4200
36     H36     4.3523   -0.5697   -4.0251 H        1 ZINC000034007762    0.0900
37     H37     4.1696   -1.1026   -5.7135 H        1 ZINC000034007762    0.0900
38     H38     4.4777    0.6124   -5.3498 H        1 ZINC000034007762    0.0900
39     H39    -0.5464   -0.8787   -8.9676 H        1 ZINC000034007762    0.1400
40     H40    -0.1242   -0.3593  -11.3572 H        1 ZINC000034007762    0.1400
41     H41     0.0095    4.0174  -12.2823 H        1 ZINC000034007762    0.0600
42     H42     1.7365    3.6499  -12.0576 H        1 ZINC000034007762    0.0600
43     H43     0.9880    3.4622  -13.6616 H        1 ZINC000034007762    0.1000
44     H44    -0.7294    4.0550   -7.6834 H        1 ZINC000034007762    0.0800
45     H45     0.5549    3.1713   -6.8245 H        1 ZINC000034007762    0.0700
46     H46     0.9740    4.2929   -8.1415 H        1 ZINC000034007762    0.0800
47     H47    -3.4805    0.4508   -7.2394 H        1 ZINC000034007762    0.0900
48     H48    -3.6205    1.8433   -6.1396 H        1 ZINC000034007762    0.0800
49     H49    -2.8075    2.0294   -7.7120 H        1 ZINC000034007762    0.0800
@<TRIPOS>BOND
1     1     2     1
2     1     27    1
3     1     28    1
4     1     29    1
5     2     3     1
6     2     30    1
7     2     31    1
8     3     4     1
9     3     5     1
10    3     6     1
11    5     32    1
12    5     33    1
13    5     34    1
14    6     7     1
15    6     35    1
16    7     26    1
17    7     8     2
18    8     9     1
19    9     10    1
20    9     11    2
21    10    36    1
22    10    37    1
23    10    38    1
24    11    12    1
25    12    26    1
26    12    13    2
27    13    14    1
28    13    23    1
29    14    21    ar
30    14    15    ar
31    15    16    ar
32    15    39    1
33    16    17    ar
34    16    40    1
35    17    18    1
36    17    20    ar
37    18    19    1
38    19    41    1
39    19    42    1
40    19    43    1
41    20    21    ar
42    21    22    1
43    22    44    1
44    22    45    1
45    22    46    1
46    23    24    1
47    23    25    2
48    24    47    1
49    24    48    1
50    24    49    1
51    25    26    1
@<TRIPOS>SUBSTRUCTURE
1   ZINC000034007762 1     RESIDUE    1   A     ZIN   1
