@<TRIPOS>MOLECULE
ZINC000001914839
79    83    1     0     0
SMALL
USER_CHARGES
@<TRIPOS>ATOM
1      C1     -0.1521    2.5119   -0.2547 C.3      1 ZINC000001914839   -0.1500
2      C2     -0.2563    1.0023   -0.0287 C.3      1 ZINC000001914839   -0.0600
3      C3      0.4951    0.6249    1.2496 C.3      1 ZINC000001914839   -0.1500
4      C4     -1.7280    0.6076    0.1096 C.3      1 ZINC000001914839   -0.1400
5      C5      0.3599    0.2646   -1.2191 C.3      1 ZINC000001914839   -0.1500
6      C6      1.8095    0.6533   -1.3552 C.2      1 ZINC000001914839    0.4200
7      O7      2.3019    1.4434   -0.5760 O.2      1 ZINC000001914839   -0.4500
8      C8      2.5979    0.0966   -2.3927 C.2      1 ZINC000001914839   -0.2900
9      C9      3.9305    0.3456   -2.6445 C.2      1 ZINC000001914839    0.2300
10     C10     4.8064    1.2752   -1.8445 C.3      1 ZINC000001914839   -0.0500
11     C11     4.7619    2.6747   -2.4613 C.3      1 ZINC000001914839   -0.1200
12     C12     5.2432    2.6081   -3.9121 C.3      1 ZINC000001914839   -0.1300
13     C13     3.3266    3.2031   -2.4238 C.3      1 ZINC000001914839   -0.1200
14     C14     5.6579    3.5981   -1.6766 C.2      1 ZINC000001914839    0.5100
15     O15     6.2748    3.1760   -0.7134 O.co2    1 ZINC000001914839   -0.6900
16     O16     5.7658    4.7673   -2.0050 O.co2    1 ZINC000001914839   -0.6900
17     N17     4.3300   -0.3681   -3.7138 N.pl3    1 ZINC000001914839   -0.4500
18     C18     5.6863   -0.3507   -4.2674 C.3      1 ZINC000001914839    0.1300
19     C19     6.4734   -1.5062   -3.7049 C.ar     1 ZINC000001914839   -0.1100
20     C20     7.1921   -1.3480   -2.5346 C.ar     1 ZINC000001914839   -0.0800
21     C21     7.9142   -2.4073   -2.0182 C.ar     1 ZINC000001914839   -0.1100
22     C22     7.9176   -3.6262   -2.6727 C.ar     1 ZINC000001914839   -0.0300
23     Cl23    8.8239   -4.9574   -2.0244 Cl       1 ZINC000001914839   -0.0700
24     C24     7.1981   -3.7840   -3.8439 C.ar     1 ZINC000001914839   -0.1100
25     C25     6.4719   -2.7255   -4.3563 C.ar     1 ZINC000001914839   -0.0900
26     C26     3.2854   -1.1194   -4.2174 C.ar     1 ZINC000001914839    0.0500
27     C27     3.1820   -2.0024   -5.2873 C.ar     1 ZINC000001914839   -0.0700
28     C28     1.9807   -2.6206   -5.5572 C.ar     1 ZINC000001914839   -0.1900
29     C29     0.8628   -2.3702   -4.7680 C.ar     1 ZINC000001914839    0.1100
30     O30    -0.3163   -2.9873   -5.0468 O.3      1 ZINC000001914839   -0.3100
31     C31    -0.3338   -3.8787   -6.1636 C.3      1 ZINC000001914839    0.1100
32     C32    -1.7139   -4.4641   -6.3174 C.ar     1 ZINC000001914839    0.1600
33     C33    -2.7143   -4.0852   -5.4254 C.ar     1 ZINC000001914839   -0.1500
34     C34    -3.9714   -4.6053   -5.5498 C.ar     1 ZINC000001914839   -0.0600
35     C35    -4.2115   -5.5196   -6.5924 C.ar     1 ZINC000001914839   -0.1000
36     C36    -5.4782   -6.0952   -6.7830 C.ar     1 ZINC000001914839   -0.0900
37     C37    -5.6704   -6.9754   -7.8036 C.ar     1 ZINC000001914839   -0.1200
38     C38    -4.6263   -7.3134   -8.6626 C.ar     1 ZINC000001914839   -0.1000
39     C39    -3.3865   -6.7748   -8.5070 C.ar     1 ZINC000001914839   -0.0900
40     C40    -3.1483   -5.8618   -7.4646 C.ar     1 ZINC000001914839    0.1300
41     N41    -1.9424   -5.3125   -7.2906 N.ar     1 ZINC000001914839   -0.4700
42     C42     0.9481   -1.4956   -3.7002 C.ar     1 ZINC000001914839   -0.1200
43     C43     2.1591   -0.8714   -3.4174 C.ar     1 ZINC000001914839   -0.0200
44     H44     0.8964    2.7930   -0.3532 H        1 ZINC000001914839    0.0900
45     H45    -0.6874    2.7807   -1.1653 H        1 ZINC000001914839    0.0400
46     H46    -0.5911    3.0374    0.5934 H        1 ZINC000001914839    0.0500
47     H47     0.0561    1.1504    2.0977 H        1 ZINC000001914839    0.0500
48     H48     0.4209   -0.4506    1.4106 H        1 ZINC000001914839    0.0400
49     H49     1.5436    0.9061    1.1511 H        1 ZINC000001914839    0.0800
50     H50    -2.2634    0.8765   -0.8011 H        1 ZINC000001914839    0.0500
51     H51    -1.8023   -0.4678    0.2706 H        1 ZINC000001914839    0.0500
52     H52    -2.1670    1.1332    0.9576 H        1 ZINC000001914839    0.0500
53     H53     0.2857   -0.8109   -1.0581 H        1 ZINC000001914839    0.0900
54     H54    -0.1754    0.5334   -2.1297 H        1 ZINC000001914839    0.0900
55     H55     4.4459    1.3194   -0.8168 H        1 ZINC000001914839    0.1100
56     H56     5.8320    0.9062   -1.8543 H        1 ZINC000001914839    0.0700
57     H57     4.6161    1.9139   -4.4714 H        1 ZINC000001914839    0.0400
58     H58     5.1791    3.5989   -4.3619 H        1 ZINC000001914839    0.0600
59     H59     6.2772    2.2642   -3.9365 H        1 ZINC000001914839    0.0400
60     H60     2.9837    3.2505   -1.3902 H        1 ZINC000001914839    0.0700
61     H61     3.2949    4.2002   -2.8632 H        1 ZINC000001914839    0.0500
62     H62     2.6786    2.5352   -2.9913 H        1 ZINC000001914839    0.0400
63     H63     5.6368   -0.4389   -5.3527 H        1 ZINC000001914839    0.1000
64     H64     6.1755    0.5861   -4.0010 H        1 ZINC000001914839    0.1200
65     H65     7.1896   -0.3963   -2.0240 H        1 ZINC000001914839    0.1400
66     H66     8.4759   -2.2835   -1.1041 H        1 ZINC000001914839    0.1400
67     H67     7.2007   -4.7351   -4.3554 H        1 ZINC000001914839    0.1300
68     H68     5.9099   -2.8486   -5.2703 H        1 ZINC000001914839    0.1300
69     H69     4.0436   -2.2032   -5.9067 H        1 ZINC000001914839    0.1200
70     H70     1.9062   -3.3052   -6.3892 H        1 ZINC000001914839    0.1300
71     H71    -0.0679   -3.3325   -7.0686 H        1 ZINC000001914839    0.0900
72     H72     0.3851   -4.6813   -5.9992 H        1 ZINC000001914839    0.0900
73     H73    -2.4963   -3.3812   -4.6359 H        1 ZINC000001914839    0.1500
74     H74    -4.7590   -4.3229   -4.8669 H        1 ZINC000001914839    0.1400
75     H75    -6.2950   -5.8414   -6.1236 H        1 ZINC000001914839    0.1300
76     H76    -6.6448   -7.4179   -7.9493 H        1 ZINC000001914839    0.1300
77     H77    -4.8041   -8.0146   -9.4646 H        1 ZINC000001914839    0.1300
78     H78    -2.5884   -7.0478   -9.1814 H        1 ZINC000001914839    0.1400
79     H79     0.0805   -1.3008   -3.0872 H        1 ZINC000001914839    0.1300
@<TRIPOS>BOND
1     1     2     1
2     1     44    1
3     1     45    1
4     1     46    1
5     2     3     1
6     2     4     1
7     2     5     1
8     3     47    1
9     3     48    1
10    3     49    1
11    4     50    1
12    4     51    1
13    4     52    1
14    5     6     1
15    5     53    1
16    5     54    1
17    6     7     2
18    6     8     1
19    8     43    1
20    8     9     2
21    9     10    1
22    9     17    1
23    10    11    1
24    10    55    1
25    10    56    1
26    11    12    1
27    11    13    1
28    11    14    1
29    12    57    1
30    12    58    1
31    12    59    1
32    13    60    1
33    13    61    1
34    13    62    1
35    14    15    ar
36    14    16    ar
37    17    18    1
38    17    26    1
39    18    19    1
40    18    63    1
41    18    64    1
42    19    25    ar
43    19    20    ar
44    20    21    ar
45    20    65    1
46    21    22    ar
47    21    66    1
48    22    23    1
49    22    24    ar
50    24    25    ar
51    24    67    1
52    25    68    1
53    26    43    ar
54    26    27    ar
55    27    28    ar
56    27    69    1
57    28    29    ar
58    28    70    1
59    29    30    1
60    29    42    ar
61    30    31    1
62    31    32    1
63    31    71    1
64    31    72    1
65    32    41    ar
66    32    33    ar
67    33    34    ar
68    33    73    1
69    34    35    ar
70    34    74    1
71    35    40    ar
72    35    36    ar
73    36    37    ar
74    36    75    1
75    37    38    ar
76    37    76    1
77    38    39    ar
78    38    77    1
79    39    40    ar
80    39    78    1
81    40    41    ar
82    42    43    ar
83    42    79    1
@<TRIPOS>SUBSTRUCTURE
1   ZINC000001914839 1     RESIDUE    1   A     ZIN   1
