@<TRIPOS>MOLECULE
ZINC000034894449
57    60    1     0     0
SMALL
USER_CHARGES
@<TRIPOS>ATOM
1      C1     -0.0005    1.5947   -0.0414 C.3      1 ZINC000034894449   -0.1400
2      C2      0.0026    0.0648   -0.0248 C.3      1 ZINC000034894449   -0.0200
3      C3      0.7074   -0.4495   -1.2535 C.2      1 ZINC000034894449   -0.2600
4      C4      2.0806   -0.5457   -1.4308 C.2      1 ZINC000034894449    0.3400
5      N5      3.1192   -0.2397   -0.6389 N.2      1 ZINC000034894449   -0.5500
6      C6      4.3624   -0.4284   -1.0468 C.2      1 ZINC000034894449    0.4900
7      N7      5.4196   -0.1053   -0.2124 N.pl3    1 ZINC000034894449   -0.5900
8      C8      6.8048   -0.1769   -0.6971 C.3      1 ZINC000034894449    0.1200
9      C9      7.4880    1.1695   -0.4379 C.3      1 ZINC000034894449   -0.1400
10     C10     7.3586    1.5257    1.0448 C.3      1 ZINC000034894449   -0.1200
11     C11     5.8787    1.6563    1.4125 C.3      1 ZINC000034894449   -0.1400
12     C12     5.1769    0.3212    1.1725 C.3      1 ZINC000034894449    0.1600
13     H13     5.5758   -0.4292    1.8550 H        1 ZINC000034894449    0.0700
14     C14     3.6739    0.4821    1.4088 C.3      1 ZINC000034894449   -0.1000
15     C15     3.4295    0.9310    2.8509 C.3      1 ZINC000034894449    0.0700
16     O16     2.0370    1.1908    3.0394 O.3      1 ZINC000034894449   -0.5700
17     C17     4.6140   -0.9559   -2.3234 C.2      1 ZINC000034894449   -0.3700
18     C18     3.5635   -1.2700   -3.1355 C.2      1 ZINC000034894449    0.5000
19     N19     3.7838   -1.7899   -4.3939 N.pl3    1 ZINC000034894449   -0.7200
20     C20     5.1530   -2.0085   -4.8668 C.3      1 ZINC000034894449    0.1700
21     C21     5.1179   -2.5795   -6.2609 C.ar     1 ZINC000034894449   -0.1200
22     C22     5.0757   -3.9513   -6.4566 C.ar     1 ZINC000034894449   -0.0600
23     C23     5.0439   -4.4324   -7.7568 C.ar     1 ZINC000034894449   -0.1200
24     C24     5.0551   -3.5353   -8.8074 C.ar     1 ZINC000034894449    0.0900
25     N25     5.0956   -2.2349   -8.5842 N.ar     1 ZINC000034894449   -0.1200
26     O26     5.1059   -1.3459   -9.6863 O.3      1 ZINC000034894449   -0.5400
27     C27     5.1214   -1.7420   -7.3603 C.ar     1 ZINC000034894449    0.1000
28     N28     2.2853   -1.0619   -2.6831 N.pl3    1 ZINC000034894449   -0.3600
29     N29     1.0307   -1.2774   -3.2647 N.2      1 ZINC000034894449   -0.3400
30     C30     0.1003   -0.9188   -2.4112 C.2      1 ZINC000034894449    0.1100
31     H31     1.0264    1.9600   -0.0509 H        1 ZINC000034894449    0.0500
32     H32    -0.5198    1.9473   -0.9325 H        1 ZINC000034894449    0.0400
33     H33    -0.5103    1.9667    0.8473 H        1 ZINC000034894449    0.0500
34     H34     0.5219   -0.2878    0.8663 H        1 ZINC000034894449    0.0700
35     H35    -1.0244   -0.3005   -0.0153 H        1 ZINC000034894449    0.0600
36     H36     7.3376   -0.9653   -0.1656 H        1 ZINC000034894449    0.0700
37     H37     6.8073   -0.3881   -1.7664 H        1 ZINC000034894449    0.0900
38     H38     8.5426    1.0996   -0.7045 H        1 ZINC000034894449    0.0800
39     H39     7.0103    1.9419   -1.0406 H        1 ZINC000034894449    0.0700
40     H40     7.8147    0.7407    1.6480 H        1 ZINC000034894449    0.0700
41     H41     7.8652    2.4715    1.2367 H        1 ZINC000034894449    0.0700
42     H42     5.7879    1.9328    2.4630 H        1 ZINC000034894449    0.0800
43     H43     5.4162    2.4241    0.7924 H        1 ZINC000034894449    0.0700
44     H44     3.2763    1.2304    0.7230 H        1 ZINC000034894449    0.0900
45     H45     3.1747   -0.4712    1.2354 H        1 ZINC000034894449    0.1000
46     H46     3.7483    0.1447    3.5351 H        1 ZINC000034894449    0.0400
47     H47     3.9987    1.8390    3.0502 H        1 ZINC000034894449    0.0400
48     H48     1.8186    1.5528    3.9090 H        1 ZINC000034894449    0.3800
49     H49     5.6287   -1.1111   -2.6593 H        1 ZINC000034894449    0.1600
50     H50     3.0321   -2.0108   -4.9658 H        1 ZINC000034894449    0.4200
51     H51     5.6900   -1.0599   -4.8761 H        1 ZINC000034894449    0.0900
52     H52     5.6603   -2.7066   -4.2009 H        1 ZINC000034894449    0.1000
53     H53     5.0682   -4.6294   -5.6161 H        1 ZINC000034894449    0.1600
54     H54     5.0111   -5.4953   -7.9458 H        1 ZINC000034894449    0.1700
55     H55     5.0309   -3.9021   -9.8229 H        1 ZINC000034894449    0.1900
56     H56     5.1539   -0.6721   -7.2162 H        1 ZINC000034894449    0.1800
57     H57    -0.9644   -0.9726   -2.5840 H        1 ZINC000034894449    0.1900
@<TRIPOS>BOND
1     1     2     1
2     1     31    1
3     1     32    1
4     1     33    1
5     2     3     1
6     2     34    1
7     2     35    1
8     3     30    1
9     3     4     2
10    4     28    1
11    4     5     1
12    5     6     2
13    6     7     1
14    6     17    1
15    7     12    1
16    7     8     1
17    8     9     1
18    8     36    1
19    8     37    1
20    9     10    1
21    9     38    1
22    9     39    1
23    10    11    1
24    10    40    1
25    10    41    1
26    11    12    1
27    11    42    1
28    11    43    1
29    12    13    1
30    12    14    1
31    14    15    1
32    14    44    1
33    14    45    1
34    15    16    1
35    15    46    1
36    15    47    1
37    16    48    1
38    17    18    2
39    17    49    1
40    18    19    1
41    18    28    1
42    19    20    1
43    19    50    1
44    20    21    1
45    20    51    1
46    20    52    1
47    21    27    ar
48    21    22    ar
49    22    23    ar
50    22    53    1
51    23    24    ar
52    23    54    1
53    24    25    ar
54    24    55    1
55    25    26    1
56    25    27    ar
57    27    56    1
58    28    29    1
59    29    30    2
60    30    57    1
@<TRIPOS>SUBSTRUCTURE
1   ZINC000034894449 1     RESIDUE    1   A     ZIN   1
