@<TRIPOS>MOLECULE
ZINC000137470092
30    31    1     0     0
SMALL
USER_CHARGES
@<TRIPOS>ATOM
1      C1     -0.0178    1.4648    0.0101 C.3      1 ZINC000137470092   -0.0500
2      N2      0.0021   -0.0041    0.0020 N.4      1 ZINC000137470092   -0.3900
3      H3      0.4744   -0.3295   -0.8281 H        1 ZINC000137470092    0.4300
4      C4      0.7126   -0.4907    1.1921 C.3      1 ZINC000137470092   -0.0500
5      C5     -1.3761   -0.5125    0.0124 C.3      1 ZINC000137470092    0.0500
6      C6     -1.3587   -2.0136   -0.1196 C.ar     1 ZINC000137470092    0.0900
7      C7     -1.4145   -2.7963    1.0310 C.ar     1 ZINC000137470092   -0.1600
8      C8     -1.4002   -4.1587    0.9303 C.ar     1 ZINC000137470092   -0.0300
9      C9     -1.3285   -4.7291   -0.3541 C.ar     1 ZINC000137470092   -0.0700
10     C10    -1.3104   -6.1228   -0.5340 C.ar     1 ZINC000137470092   -0.0200
11     Cl11   -1.3771   -7.1785    0.8424 Cl       1 ZINC000137470092   -0.0200
12     C12    -1.2408   -6.6434   -1.7910 C.ar     1 ZINC000137470092   -0.0600
13     C13    -1.1865   -5.8124   -2.9082 C.ar     1 ZINC000137470092   -0.0400
14     Cl14   -1.0984   -6.5133   -4.4940 Cl       1 ZINC000137470092   -0.0100
15     C15    -1.2022   -4.4430   -2.7708 C.ar     1 ZINC000137470092    0.1600
16     O16    -1.1483   -3.6445   -3.8693 O.3      1 ZINC000137470092   -0.4600
17     C17    -1.2743   -3.8740   -1.4825 C.ar     1 ZINC000137470092    0.1200
18     N18    -1.2969   -2.5487   -1.3150 N.ar     1 ZINC000137470092   -0.4300
19     H19     1.0047    1.8421    0.0024 H        1 ZINC000137470092    0.1300
20     H20    -0.5450    1.8259   -0.8730 H        1 ZINC000137470092    0.1300
21     H21    -0.5280    1.8163    0.9069 H        1 ZINC000137470092    0.1200
22     H22     0.7274   -1.5806    1.1861 H        1 ZINC000137470092    0.1200
23     H23     1.7352   -0.1134    1.1844 H        1 ZINC000137470092    0.1300
24     H24     0.2024   -0.1392    2.0889 H        1 ZINC000137470092    0.1300
25     H25    -1.8584   -0.2358    0.9500 H        1 ZINC000137470092    0.1500
26     H26    -1.9290   -0.0808   -0.8218 H        1 ZINC000137470092    0.1500
27     H27    -1.4686   -2.3267    2.0021 H        1 ZINC000137470092    0.1500
28     H28    -1.4425   -4.7808    1.8121 H        1 ZINC000137470092    0.1600
29     H29    -1.2272   -7.7152   -1.9234 H        1 ZINC000137470092    0.1600
30     H30    -2.0148   -3.4188   -4.2344 H        1 ZINC000137470092    0.4000
@<TRIPOS>BOND
1     1     2     1
2     1     19    1
3     1     20    1
4     1     21    1
5     2     3     1
6     2     4     1
7     2     5     1
8     4     22    1
9     4     23    1
10    4     24    1
11    5     6     1
12    5     25    1
13    5     26    1
14    6     18    ar
15    6     7     ar
16    7     8     ar
17    7     27    1
18    8     9     ar
19    8     28    1
20    9     17    ar
21    9     10    ar
22    10    11    1
23    10    12    ar
24    12    13    ar
25    12    29    1
26    13    14    1
27    13    15    ar
28    15    16    1
29    15    17    ar
30    16    30    1
31    17    18    ar
@<TRIPOS>SUBSTRUCTURE
1   ZINC000137470092 1     RESIDUE    1   A     ZIN   1
