@<TRIPOS>MOLECULE
ZINC000001543773
  47   49    0    0    0
SMALL
USER_CHARGES
NO_NAME
@<TRIPOS>ATOM
    1 C1       -0.0292     1.5171     0.0303 C.3    1 <0>      -0.1500
    2 C2        0.0022    -0.0125     0.0246 C.3    1 <0>      -0.0700
    3 C3       -1.4031    -0.5442     0.1402 C.2    1 <0>       0.1200
    4 C4       -2.0906    -0.7293     1.3251 C.2    1 <0>      -0.2100
    5 C5       -1.6042    -0.4519     2.6755 C.2    1 <0>       0.4400
    6 O6       -1.8570     0.6122     3.2060 O.2    1 <0>      -0.4000
    7 C7       -0.7977    -1.4745     3.4023 C.2    1 <0>       0.5000
    8 N8       -0.2638    -1.1817     4.6046 N.am   1 <0>      -0.8300
    9 O9       -0.6223    -2.5706     2.9110 O.2    1 <0>      -0.5100
   10 C10      -3.4149    -1.2625     0.9517 C.ar   1 <0>      -0.1000
   11 C11      -4.5439    -1.6480     1.6761 C.ar   1 <0>       0.1900
   12 O12      -4.5494    -1.5594     3.0319 O.3    1 <0>      -0.2800
   13 C13      -5.7409    -1.9725     3.7042 C.3    1 <0>      -0.0100
   14 C14      -5.5626    -1.8045     5.1911 C.2    1 <0>       0.5000
   15 O15      -4.5127    -1.3712     5.6341 O.co2  1 <0>      -0.6700
   16 O16      -6.4684    -2.1018     5.9511 O.co2  1 <0>      -0.6900
   17 C17      -5.6580    -2.1208     1.0044 C.ar   1 <0>      -0.2500
   18 C18      -5.6519    -2.2105    -0.3784 C.ar   1 <0>      -0.0500
   19 C19      -4.5415    -1.8326    -1.1032 C.ar   1 <0>      -0.1800
   20 C20      -3.4110    -1.3541    -0.4480 C.ar   1 <0>       0.1400
   21 N21      -2.1833    -0.9063    -0.8945 N.pl3  1 <0>      -0.4600
   22 C22      -1.7838    -0.8381    -2.3023 C.3    1 <0>       0.1500
   23 C23      -1.2611    -2.1815    -2.7418 C.ar   1 <0>      -0.1100
   24 C24       0.0613    -2.5157    -2.5176 C.ar   1 <0>      -0.1000
   25 C25       0.5408    -3.7480    -2.9207 C.ar   1 <0>      -0.1200
   26 C26      -0.3024    -4.6463    -3.5477 C.ar   1 <0>      -0.1100
   27 C27      -1.6251    -4.3125    -3.7710 C.ar   1 <0>      -0.1200
   28 C28      -2.1056    -3.0819    -3.3641 C.ar   1 <0>      -0.1000
   29 H29       0.9908     1.9015     0.0361 H      1 <0>       0.0600
   30 H30      -0.5466     1.8733    -0.8605 H      1 <0>       0.0600
   31 H31      -0.5541     1.8665     0.9194 H      1 <0>       0.0700
   32 H32       0.4481    -0.3633    -0.9061 H      1 <0>       0.0800
   33 H33       0.5952    -0.3669     0.8677 H      1 <0>       0.0900
   34 H34      -0.4039    -0.3058     4.9972 H      1 <0>       0.4100
   35 H35       0.2608    -1.8468     5.0773 H      1 <0>       0.4100
   36 H36      -6.5785    -1.3617     3.3673 H      1 <0>       0.0600
   37 H37      -5.9410    -3.0199     3.4783 H      1 <0>       0.0600
   38 H38      -6.5344    -2.4209     1.5596 H      1 <0>       0.1300
   39 H39      -6.5259    -2.5806    -0.8937 H      1 <0>       0.1200
   40 H40      -4.5493    -1.9077    -2.1806 H      1 <0>       0.1200
   41 H41      -2.6456    -0.5664    -2.9119 H      1 <0>       0.1000
   42 H42      -1.0027    -0.0874    -2.4224 H      1 <0>       0.1000
   43 H43       0.7201    -1.8139    -2.0278 H      1 <0>       0.1200
   44 H44       1.5742    -4.0088    -2.7462 H      1 <0>       0.1200
   45 H45       0.0723    -5.6088    -3.8633 H      1 <0>       0.1200
   46 H46      -2.2838    -5.0142    -4.2611 H      1 <0>       0.1200
   47 H47      -3.1390    -2.8210    -3.5386 H      1 <0>       0.1200
@<TRIPOS>BOND
   1    1    2 1
   2    1   29 1
   3    1   30 1
   4    1   31 1
   5    2    3 1
   6    2   32 1
   7    2   33 1
   8    3   21 1
   9    3    4 2
  10    4    5 1
  11    4   10 1
  12    5    6 2
  13    5    7 1
  14    7    8 am
  15    7    9 2
  16    8   34 1
  17    8   35 1
  18   10   20 ar
  19   10   11 ar
  20   11   12 1
  21   11   17 ar
  22   12   13 1
  23   13   14 1
  24   13   36 1
  25   13   37 1
  26   14   15 ar
  27   14   16 ar
  28   17   18 ar
  29   17   38 1
  30   18   19 ar
  31   18   39 1
  32   19   20 ar
  33   19   40 1
  34   20   21 1
  35   21   22 1
  36   22   23 1
  37   22   41 1
  38   22   42 1
  39   23   28 ar
  40   23   24 ar
  41   24   25 ar
  42   24   43 1
  43   25   26 ar
  44   25   44 1
  45   26   27 ar
  46   26   45 1
  47   27   28 ar
  48   27   46 1
  49   28   47 1
