@<TRIPOS>MOLECULE
ZINC000001552633
34    34    1     0     0
SMALL
USER_CHARGES
@<TRIPOS>ATOM
1      O1     -0.3423   -0.8510    1.3667 O.co2    1 ZINC000001552633   -0.6900
2      C2     -0.5807   -0.0826    2.2829 C.2      1 ZINC000001552633    0.5000
3      O3      0.2249    0.0561    3.1875 O.co2    1 ZINC000001552633   -0.7000
4      C4     -1.8683    0.7004    2.2939 C.3      1 ZINC000001552633   -0.2000
5      C5     -2.6899    0.3483    1.0522 C.3      1 ZINC000001552633    0.1400
6      N6     -3.9417    1.1094    1.0630 N.am     1 ZINC000001552633   -0.7200
7      C7     -4.8297    0.9602    0.0602 C.2      1 ZINC000001552633    0.5200
8      O8     -4.5926    0.1959   -0.8511 O.2      1 ZINC000001552633   -0.5400
9      C9     -6.1173    1.7432    0.0712 C.3      1 ZINC000001552633   -0.0800
10     H10    -6.1350    2.4011    0.9401 H        1 ZINC000001552633    0.1000
11     C11    -6.2156    2.5812   -1.2051 C.3      1 ZINC000001552633   -0.0500
12     S12    -7.6829    3.6443   -1.1189 S.3      1 ZINC000001552633   -0.2400
13     C13    -7.3013    0.7766    0.1391 C.3      1 ZINC000001552633   -0.0700
14     C14    -7.2767    0.0438    1.4557 C.ar     1 ZINC000001552633   -0.0900
15     C15    -6.6458   -1.1824    1.5525 C.ar     1 ZINC000001552633   -0.1100
16     C16    -6.6232   -1.8546    2.7602 C.ar     1 ZINC000001552633   -0.1200
17     C17    -7.2311   -1.3005    3.8712 C.ar     1 ZINC000001552633   -0.1200
18     C18    -7.8611   -0.0739    3.7746 C.ar     1 ZINC000001552633   -0.1200
19     C19    -7.8801    0.6003    2.5680 C.ar     1 ZINC000001552633   -0.1200
20     H20    -2.4377    0.4506    3.1892 H        1 ZINC000001552633    0.0600
21     H21    -1.6448    1.7672    2.2913 H        1 ZINC000001552633    0.0600
22     H22    -2.1205    0.5980    0.1569 H        1 ZINC000001552633    0.0700
23     H23    -2.9134   -0.7186    1.0549 H        1 ZINC000001552633    0.0700
24     H24    -4.1313    1.7207    1.7918 H        1 ZINC000001552633    0.4000
25     H25    -5.3237    3.2002   -1.3029 H        1 ZINC000001552633    0.0900
26     H26    -6.2958    1.9205   -2.0683 H        1 ZINC000001552633    0.1000
27     H27    -7.6421    4.3114   -2.2861 H        1 ZINC000001552633    0.0900
28     H28    -8.2327    1.3363    0.0522 H        1 ZINC000001552633    0.0900
29     H29    -7.2314    0.0584   -0.6778 H        1 ZINC000001552633    0.0800
30     H30    -6.1709   -1.6154    0.6845 H        1 ZINC000001552633    0.1200
31     H31    -6.1309   -2.8130    2.8356 H        1 ZINC000001552633    0.1200
32     H32    -7.2140   -1.8260    4.8145 H        1 ZINC000001552633    0.1200
33     H33    -8.3363    0.3589    4.6425 H        1 ZINC000001552633    0.1200
34     H34    -8.3723    1.5587    2.4925 H        1 ZINC000001552633    0.1200
@<TRIPOS>BOND
1     1     2     ar
2     2     3     ar
3     2     4     1
4     4     5     1
5     4     20    1
6     4     21    1
7     5     6     1
8     5     22    1
9     5     23    1
10    6     7     am
11    6     24    1
12    7     8     2
13    7     9     1
14    9     10    1
15    9     11    1
16    9     13    1
17    11    12    1
18    11    25    1
19    11    26    1
20    12    27    1
21    13    14    1
22    13    28    1
23    13    29    1
24    14    19    ar
25    14    15    ar
26    15    16    ar
27    15    30    1
28    16    17    ar
29    16    31    1
30    17    18    ar
31    17    32    1
32    18    19    ar
33    18    33    1
34    19    34    1
@<TRIPOS>SUBSTRUCTURE
1   ZINC000001552633 1     RESIDUE    1   A     ZIN   1
