@<TRIPOS>MOLECULE
ZINC000006718496
  70   74    0    0    0
SMALL
USER_CHARGES
NO_NAME
@<TRIPOS>ATOM
    1 C1        1.7959     1.1950     0.1468 C.3    1 <0>      -0.1500
    2 C2        0.7401     0.0975    -0.0004 C.3    1 <0>      -0.1300
    3 C3        0.6500    -0.3303    -1.4666 C.3    1 <0>      -0.1000
    4 H4        1.6391    -0.6192    -1.8222 H      1 <0>       0.0800
    5 C5        0.1266     0.8363    -2.3069 C.3    1 <0>      -0.1600
    6 C6       -0.3049    -1.5189    -1.5934 C.3    1 <0>       0.1300
    7 H7       -1.3171    -1.1901    -1.3579 H      1 <0>       0.1200
    8 C8        0.1044    -2.5833    -0.6203 C.2    1 <0>       0.5300
    9 O9       -0.2099    -2.4581     0.5444 O.2    1 <0>      -0.5200
   10 N10       0.8009    -3.6648    -0.9833 N.am   1 <0>      -0.7100
   11 C11       1.2269    -3.9063    -2.3551 C.3    1 <0>       0.1400
   12 H12       1.1056    -4.9648    -2.5854 H      1 <0>       0.1200
   13 C13       2.7031    -3.5293    -2.4950 C.3    1 <0>      -0.0900
   14 C14       3.5795    -4.3871    -1.5577 C.3    1 <0>      -0.0700
   15 C15       3.9978    -5.5809    -2.3890 C.ar   1 <0>      -0.1100
   16 C16       4.5102    -6.8078    -2.0030 C.ar   1 <0>      -0.1100
   17 C17       4.8251    -7.7598    -2.9533 C.ar   1 <0>      -0.1200
   18 C18       4.6285    -7.4874    -4.2940 C.ar   1 <0>      -0.1200
   19 C19       4.1174    -6.2637    -4.6811 C.ar   1 <0>      -0.1100
   20 C20       3.8012    -5.3084    -3.7302 C.ar   1 <0>      -0.0900
   21 C21       3.2374    -3.9129    -3.8913 C.3    1 <0>      -0.0800
   22 C22       0.4208    -3.0972    -3.3261 C.2    1 <0>       0.5300
   23 O23       0.3958    -3.4405    -4.4890 O.2    1 <0>      -0.4600
   24 N24      -0.2707    -2.0143    -2.9627 N.am   1 <0>      -0.5900
   25 C25      -1.0298    -1.2915    -3.9863 C.3    1 <0>       0.2200
   26 H26      -1.5112    -0.4233    -3.5362 H      1 <0>       0.1200
   27 C27      -0.0952    -0.8380    -5.0780 C.2    1 <0>       0.5200
   28 O28       1.0236    -1.3007    -5.1496 O.2    1 <0>      -0.4900
   29 N29      -0.5027     0.0818    -5.9749 N.am   1 <0>      -0.6200
   30 C30      -1.8068     0.7493    -5.8362 C.3    1 <0>       0.0600
   31 C31      -1.5896     2.2627    -5.9475 C.3    1 <0>       0.0500
   32 O32      -0.8549     2.5463    -7.1406 O.3    1 <0>      -0.3700
   33 C33       0.4560     1.9767    -7.1701 C.3    1 <0>       0.0500
   34 C34       0.3460     0.4528    -7.1184 C.3    1 <0>       0.0800
   35 C35      -2.0795    -2.2019    -4.5696 C.2    1 <0>      -0.0200
   36 C36      -3.2395    -1.8186    -5.1281 C.2    1 <0>      -0.0700
   37 O37      -3.8802    -2.9377    -5.5191 O.3    1 <0>      -0.2000
   38 C38      -3.1084    -3.9842    -5.1966 C.2    1 <0>       0.1900
   39 C39      -3.4402    -5.4316    -5.4533 C.3    1 <0>      -0.0600
   40 N40      -2.0212    -3.5440    -4.6302 N.2    1 <0>      -0.4400
   41 H41       2.7744     0.7960    -0.1204 H      1 <0>       0.0500
   42 H42       1.5500     2.0266    -0.5135 H      1 <0>       0.0600
   43 H43       1.8155     1.5442     1.1791 H      1 <0>       0.0600
   44 H44       1.0196    -0.7600     0.6117 H      1 <0>       0.0800
   45 H45      -0.2274     0.4778     0.3272 H      1 <0>       0.0700
   46 H46       0.7423     1.7178    -2.1281 H      1 <0>       0.0700
   47 H47       0.1697     0.5712    -3.3633 H      1 <0>       0.0500
   48 H48      -0.9050     1.0509    -2.0280 H      1 <0>       0.0600
   49 H49       1.0329    -4.3169    -0.3038 H      1 <0>       0.4100
   50 H50       2.8498    -2.4665    -2.3025 H      1 <0>       0.0900
   51 H51       4.4558    -3.8231    -1.2381 H      1 <0>       0.0900
   52 H52       3.0019    -4.7124    -0.6925 H      1 <0>       0.0700
   53 H53       4.6644    -7.0213    -0.9556 H      1 <0>       0.1200
   54 H54       5.2250    -8.7158    -2.6490 H      1 <0>       0.1200
   55 H55       4.8745    -8.2303    -5.0382 H      1 <0>       0.1200
   56 H56       3.9641    -6.0516    -5.7289 H      1 <0>       0.1200
   57 H57       2.4262    -3.9144    -4.6194 H      1 <0>       0.1100
   58 H58       4.0217    -3.2213    -4.1991 H      1 <0>       0.0800
   59 H59      -2.4763     0.4153    -6.6289 H      1 <0>       0.0800
   60 H60      -2.2397     0.5110    -4.8647 H      1 <0>       0.0900
   61 H61      -2.5550     2.7672    -5.9858 H      1 <0>       0.1100
   62 H62      -1.0282     2.6145    -5.0819 H      1 <0>       0.0600
   63 H63       0.9623     2.2755    -8.0880 H      1 <0>       0.1100
   64 H64       1.0249     2.3275    -6.3090 H      1 <0>       0.0600
   65 H65       1.3378     0.0170    -6.9980 H      1 <0>       0.1000
   66 H66      -0.1073     0.0860    -8.0392 H      1 <0>       0.0800
   67 H67      -3.5925    -0.8043    -5.2421 H      1 <0>       0.2100
   68 H68      -4.4108    -5.5003    -5.9446 H      1 <0>       0.0900
   69 H69      -2.6764    -5.8712    -6.0948 H      1 <0>       0.1000
   70 H70      -3.4734    -5.9703    -4.5063 H      1 <0>       0.1000
@<TRIPOS>BOND
   1    1    2 1
   2    1   41 1
   3    1   42 1
   4    1   43 1
   5    2    3 1
   6    2   44 1
   7    2   45 1
   8    3    4 1
   9    3    5 1
  10    3    6 1
  11    5   46 1
  12    5   47 1
  13    5   48 1
  14    6    7 1
  15    6   24 1
  16    6    8 1
  17    8    9 2
  18    8   10 am
  19   10   11 1
  20   10   49 1
  21   11   12 1
  22   11   13 1
  23   11   22 1
  24   13   21 1
  25   13   14 1
  26   13   50 1
  27   14   15 1
  28   14   51 1
  29   14   52 1
  30   15   20 ar
  31   15   16 ar
  32   16   17 ar
  33   16   53 1
  34   17   18 ar
  35   17   54 1
  36   18   19 ar
  37   18   55 1
  38   19   20 ar
  39   19   56 1
  40   20   21 1
  41   21   57 1
  42   21   58 1
  43   22   23 2
  44   22   24 am
  45   24   25 1
  46   25   26 1
  47   25   27 1
  48   25   35 1
  49   27   28 2
  50   27   29 am
  51   29   34 1
  52   29   30 1
  53   30   31 1
  54   30   59 1
  55   30   60 1
  56   31   32 1
  57   31   61 1
  58   31   62 1
  59   32   33 1
  60   33   34 1
  61   33   63 1
  62   33   64 1
  63   34   65 1
  64   34   66 1
  65   35   40 1
  66   35   36 2
  67   36   37 1
  68   36   67 1
  69   37   38 1
  70   38   39 1
  71   38   40 2
  72   39   68 1
  73   39   69 1
  74   39   70 1
