@<TRIPOS>MOLECULE
ZINC000038476960
28    29    1     0     0
SMALL
USER_CHARGES
@<TRIPOS>ATOM
1      C1     -0.0173    1.4248    0.0099 C.3      1 ZINC000038476960    0.0400
2      O2      0.0021   -0.0041    0.0020 O.3      1 ZINC000038476960   -0.2800
3      C3      0.6051   -0.6064   -1.0545 C.ar     1 ZINC000038476960    0.2400
4      N4      1.1462    0.1241   -2.0148 N.ar     1 ZINC000038476960   -0.4800
5      C5      1.7345   -0.4657   -3.0445 C.ar     1 ZINC000038476960   -0.0500
6      C6      1.7855   -1.8416   -3.1211 C.ar     1 ZINC000038476960    0.0700
7      N7      1.2467   -2.5833   -2.1655 N.ar     1 ZINC000038476960   -0.5500
8      C8      0.6615   -2.0034   -1.1286 C.ar     1 ZINC000038476960    0.4100
9      N9      0.0941   -2.7798   -0.1224 N.pl3    1 ZINC000038476960   -1.0400
10     S10     0.1499   -4.4319   -0.2204 S.o2     1 ZINC000038476960    2.6200
11     O11    -0.6583   -4.7954   -1.3313 O.2      1 ZINC000038476960   -1.0100
12     O12     1.5187   -4.7949   -0.1032 O.2      1 ZINC000038476960   -1.0000
13     C13    -0.6576   -5.0669    1.2112 C.ar     1 ZINC000038476960   -0.6100
14     C14    -1.8263   -5.7928    1.0805 C.ar     1 ZINC000038476960   -0.0200
15     C15    -2.4603   -6.2919    2.2033 C.ar     1 ZINC000038476960   -0.1300
16     C16    -1.9261   -6.0653    3.4576 C.ar     1 ZINC000038476960   -0.0600
17     C17    -0.7562   -5.3388    3.5903 C.ar     1 ZINC000038476960   -0.0600
18     Cl18   -0.0847   -5.0539    5.1656 Cl       1 ZINC000038476960   -0.0500
19     C19    -0.1186   -4.8436    2.4656 C.ar     1 ZINC000038476960    0.0600
20     Cl20    1.3498   -3.9323    2.6303 Cl       1 ZINC000038476960   -0.0100
21     H21     1.0053    1.8021    0.0021 H        1 ZINC000038476960    0.0500
22     H22    -0.5445    1.7859   -0.8732 H        1 ZINC000038476960    0.0500
23     H23    -0.5275    1.7763    0.9067 H        1 ZINC000038476960    0.0800
24     H24     2.1756    0.1334   -3.8274 H        1 ZINC000038476960    0.1500
25     H25     2.2665   -2.3161   -3.9638 H        1 ZINC000038476960    0.1500
26     H26    -2.2448   -5.9702    0.1008 H        1 ZINC000038476960    0.1500
27     H27    -3.3738   -6.8588    2.1002 H        1 ZINC000038476960    0.1400
28     H28    -2.4220   -6.4551    4.3343 H        1 ZINC000038476960    0.1400
@<TRIPOS>BOND
1     1     2     1
2     1     21    1
3     1     22    1
4     1     23    1
5     2     3     1
6     3     8     ar
7     3     4     ar
8     4     5     ar
9     5     6     ar
10    5     24    1
11    6     7     ar
12    6     25    1
13    7     8     ar
14    8     9     1
15    9     10    1
16    10    11    2
17    10    12    2
18    10    13    1
19    13    19    ar
20    13    14    ar
21    14    15    ar
22    14    26    1
23    15    16    ar
24    15    27    1
25    16    17    ar
26    16    28    1
27    17    18    1
28    17    19    ar
29    19    20    1
@<TRIPOS>SUBSTRUCTURE
1   ZINC000038476960 1     RESIDUE    1   A     ZIN   1
