@<TRIPOS>MOLECULE
ZINC000011726773
  30   30    0    0    0
SMALL
USER_CHARGES
NO_NAME
@<TRIPOS>ATOM
    1 C1       -0.0187     1.5258     0.0104 C.3    1 <0>      -0.1500
    2 C2        0.0021    -0.0041     0.0020 C.3    1 <0>      -0.1400
    3 C3        0.7182    -0.4975    -1.2568 C.3    1 <0>       0.1400
    4 H4        0.2444    -0.0644    -2.1377 H      1 <0>       0.1200
    5 C5        0.6316    -2.0003    -1.3275 C.2    1 <0>       0.5100
    6 N6       -0.5721    -2.6043    -1.3798 N.am   1 <0>      -0.8500
    7 O7        1.6452    -2.6663    -1.3373 O.2    1 <0>      -0.5200
    8 N8        2.1249    -0.0911    -1.2094 N.am   1 <0>      -0.6100
    9 C9        2.7713     0.7728    -2.2043 C.3    1 <0>       0.1100
   10 C10       4.0707     1.2721    -1.5345 C.3    1 <0>      -0.0600
   11 H11       3.9092     2.2262    -1.0327 H      1 <0>       0.1100
   12 C12       5.1894     1.3767    -2.5389 C.2    1 <0>      -0.2000
   13 C13       5.7698     2.5377    -2.7592 C.2    1 <0>       0.2300
   14 F14       5.3626     3.6353    -2.0850 F      1 <0>      -0.1200
   15 F15       6.7726     2.6315    -3.6596 F      1 <0>      -0.1200
   16 C16       4.3492     0.1481    -0.5098 C.3    1 <0>      -0.1400
   17 C17       2.9880    -0.4568    -0.2459 C.2    1 <0>       0.5300
   18 O18       2.7167    -1.1735     0.6941 O.2    1 <0>      -0.5100
   19 H19       1.0039     1.9031     0.0027 H      1 <0>       0.0600
   20 H20      -0.5459     1.8868    -0.8726 H      1 <0>       0.0600
   21 H21      -0.5289     1.8773     0.9072 H      1 <0>       0.0600
   22 H22       0.5293    -0.3651     0.8851 H      1 <0>       0.0900
   23 H23      -1.0205    -0.3814     0.0098 H      1 <0>       0.0800
   24 H24      -1.3827    -2.0716    -1.3720 H      1 <0>       0.4000
   25 H25      -0.6278    -3.5716    -1.4254 H      1 <0>       0.4000
   26 H26       3.0053     0.2030    -3.1035 H      1 <0>       0.0800
   27 H27       2.1249     1.6158    -2.4486 H      1 <0>       0.0900
   28 H28       5.5149     0.4993    -3.0779 H      1 <0>       0.1600
   29 H29       5.0255    -0.5947    -0.9328 H      1 <0>       0.1100
   30 H30       4.7636     0.5635     0.4088 H      1 <0>       0.1100
@<TRIPOS>BOND
   1    1    2 1
   2    1   19 1
   3    1   20 1
   4    1   21 1
   5    2    3 1
   6    2   22 1
   7    2   23 1
   8    3    4 1
   9    3    5 1
  10    3    8 1
  11    5    6 am
  12    5    7 2
  13    6   24 1
  14    6   25 1
  15    8   17 am
  16    8    9 1
  17    9   10 1
  18    9   26 1
  19    9   27 1
  20   10   11 1
  21   10   12 1
  22   10   16 1
  23   12   13 2
  24   12   28 1
  25   13   14 1
  26   13   15 1
  27   16   17 1
  28   16   29 1
  29   16   30 1
  30   17   18 2
