@<TRIPOS>MOLECULE
ZINC000005974560
47    50    1     0     0
SMALL
USER_CHARGES
@<TRIPOS>ATOM
1      O1     -7.8961    8.8627   -5.0661 O.2      1 ZINC000005974560   -0.1500
2      N2     -8.3395    8.0302   -4.2955 N.pl3    1 ZINC000005974560    0.0600
3      O3     -9.5396    7.9594   -4.1000 O.2      1 ZINC000005974560   -0.1200
4      C4     -7.4198    7.1044   -3.5966 C.2      1 ZINC000005974560    0.0600
5      C5     -6.0791    7.0787   -3.7244 C.2      1 ZINC000005974560    0.0800
6      N6     -5.6256    6.0797   -2.9097 N.pl3    1 ZINC000005974560   -0.4800
7      C7     -4.2467    5.6403   -2.6789 C.3      1 ZINC000005974560    0.1000
8      C8     -4.2271    4.8004   -1.3934 C.3      1 ZINC000005974560    0.0500
9      H9     -4.3482    5.4540   -0.5295 H        1 ZINC000005974560    0.0900
10     O10    -2.9818    4.1062   -1.2957 O.3      1 ZINC000005974560   -0.3600
11     C11    -2.5534    3.8670    0.0464 C.3      1 ZINC000005974560    0.1100
12     C12    -1.2372    3.1333    0.0303 C.ar     1 ZINC000005974560   -0.1400
13     C13    -1.2178    1.7508    0.0173 C.ar     1 ZINC000005974560   -0.0500
14     C14    -0.0126    1.0758    0.0080 C.ar     1 ZINC000005974560   -0.1500
15     C15     1.1790    1.7863    0.0004 C.ar     1 ZINC000005974560    0.1400
16     O16     2.3659    1.1247   -0.0150 O.3      1 ZINC000005974560   -0.3100
17     C17     3.5525    1.9209   -0.0220 C.3      1 ZINC000005974560    0.1000
18     C18     4.7612    1.0211   -0.0390 C.ar     1 ZINC000005974560   -0.1000
19     C19     5.3307    0.6060    1.1503 C.ar     1 ZINC000005974560   -0.1000
20     C20     6.4368   -0.2229    1.1348 C.ar     1 ZINC000005974560   -0.1200
21     C21     6.9789   -0.6295   -0.0701 C.ar     1 ZINC000005974560   -0.1100
22     C22     6.4126   -0.2103   -1.2594 C.ar     1 ZINC000005974560   -0.1200
23     C23     5.3039    0.6152   -1.2438 C.ar     1 ZINC000005974560   -0.1000
24     C24     1.1568    3.1735    0.0081 C.ar     1 ZINC000005974560   -0.2100
25     C25    -0.0511    3.8437    0.0233 C.ar     1 ZINC000005974560   -0.0500
26     C26    -5.3759    3.7873   -1.4351 C.3      1 ZINC000005974560    0.0300
27     O27    -6.6281    4.4878   -1.4282 O.3      1 ZINC000005974560   -0.2500
28     C28    -6.7141    5.5210   -2.3066 C.2      1 ZINC000005974560    0.4300
29     N29    -7.7803    6.1440   -2.7252 N.2      1 ZINC000005974560   -0.4300
30     H30    -5.4788    7.7232   -4.3495 H        1 ZINC000005974560    0.2200
31     H31    -3.5978    6.5083   -2.5621 H        1 ZINC000005974560    0.1200
32     H32    -3.9059    5.0359   -3.5195 H        1 ZINC000005974560    0.1200
33     H33    -3.2994    3.2638    0.5638 H        1 ZINC000005974560    0.0700
34     H34    -2.4327    4.8185    0.5643 H        1 ZINC000005974560    0.0700
35     H35    -2.1457    1.1981    0.0183 H        1 ZINC000005974560    0.1300
36     H36     0.0021   -0.0041    0.0020 H        1 ZINC000005974560    0.1300
37     H37     3.5592    2.5551   -0.9085 H        1 ZINC000005974560    0.0700
38     H38     3.5766    2.5449    0.8714 H        1 ZINC000005974560    0.0700
39     H39     4.9093    0.9267    2.0916 H        1 ZINC000005974560    0.1200
40     H40     6.8790   -0.5508    2.0639 H        1 ZINC000005974560    0.1300
41     H41     7.8447   -1.2750   -0.0822 H        1 ZINC000005974560    0.1300
42     H42     6.8361   -0.5279   -2.2007 H        1 ZINC000005974560    0.1300
43     H43     4.8614    0.9427   -2.1730 H        1 ZINC000005974560    0.1200
44     H44     2.0830    3.7288    0.0019 H        1 ZINC000005974560    0.1300
45     H45    -0.0689    4.9236    0.0293 H        1 ZINC000005974560    0.1300
46     H46    -5.2996    3.1881   -2.3425 H        1 ZINC000005974560    0.0900
47     H47    -5.3185    3.1362   -0.5629 H        1 ZINC000005974560    0.1400
@<TRIPOS>BOND
1     1     2     2
2     2     3     2
3     2     4     1
4     4     29    1
5     4     5     2
6     5     6     1
7     5     30    1
8     6     28    1
9     6     7     1
10    7     8     1
11    7     31    1
12    7     32    1
13    8     9     1
14    8     10    1
15    8     26    1
16    10    11    1
17    11    12    1
18    11    33    1
19    11    34    1
20    12    25    ar
21    12    13    ar
22    13    14    ar
23    13    35    1
24    14    15    ar
25    14    36    1
26    15    16    1
27    15    24    ar
28    16    17    1
29    17    18    1
30    17    37    1
31    17    38    1
32    18    23    ar
33    18    19    ar
34    19    20    ar
35    19    39    1
36    20    21    ar
37    20    40    1
38    21    22    ar
39    21    41    1
40    22    23    ar
41    22    42    1
42    23    43    1
43    24    25    ar
44    24    44    1
45    25    45    1
46    26    27    1
47    26    46    1
48    26    47    1
49    27    28    1
50    28    29    2
@<TRIPOS>SUBSTRUCTURE
1   ZINC000005974560 1     RESIDUE    1   A     ZIN   1
