@<TRIPOS>MOLECULE
ZINC000043177324
54    54    1     0     0
SMALL
USER_CHARGES
@<TRIPOS>ATOM
1      O1      0.0021   -0.0041    0.0020 O.co2    1 ZINC000043177324   -0.7000
2      C2     -0.0145    1.2150    0.0087 C.2      1 ZINC000043177324    0.4900
3      O3      1.0330    1.8389    0.0021 O.co2    1 ZINC000043177324   -0.7200
4      C4     -1.3296    1.9507    0.0190 C.3      1 ZINC000043177324   -0.1800
5      C5     -2.4790    0.9408    0.0189 C.3      1 ZINC000043177324   -0.0800
6      C6     -3.8142    1.6877    0.0293 C.3      1 ZINC000043177324    0.0900
7      H7     -3.8475    2.3840   -0.8086 H        1 ZINC000043177324    0.0700
8      N8     -3.9495    2.4287    1.2858 N.am     1 ZINC000043177324   -0.7100
9      C9     -4.7391    3.5194    1.3433 C.2      1 ZINC000043177324    0.7100
10     O10    -5.3392    3.8884    0.3523 O.2      1 ZINC000043177324   -0.6000
11     N11    -4.8635    4.2011    2.4992 N.am     1 ZINC000043177324   -0.7300
12     C12    -5.7219    5.3867    2.5617 C.3      1 ZINC000043177324    0.1000
13     H13    -6.5875    5.2431    1.9150 H        1 ZINC000043177324    0.0800
14     C14    -6.1912    5.6013    4.0020 C.3      1 ZINC000043177324   -0.1000
15     C15    -7.0831    4.4330    4.4271 C.3      1 ZINC000043177324   -0.1200
16     C16    -7.5525    4.6476    5.8674 C.3      1 ZINC000043177324   -0.1400
17     C17    -8.4444    3.4793    6.2925 C.3      1 ZINC000043177324   -0.0100
18     N18    -8.8951    3.6853    7.6754 N.4      1 ZINC000043177324   -0.5100
19     H19    -8.0937    3.7362    8.2863 H        1 ZINC000043177324    0.4300
20     H20    -9.4179    4.5463    7.7340 H        1 ZINC000043177324    0.4200
21     C21    -9.7514    2.5637    8.0835 C.3      1 ZINC000043177324    0.0400
22     C22   -10.2138    2.7749    9.5022 C.ar     1 ZINC000043177324   -0.1400
23     C23    -9.4606    2.2881   10.5542 C.ar     1 ZINC000043177324   -0.0900
24     C24    -9.8844    2.4817   11.8556 C.ar     1 ZINC000043177324   -0.0800
25     C25   -11.0620    3.1626   12.1051 C.ar     1 ZINC000043177324   -0.0800
26     I26   -11.7044    3.4569   14.0773 I        1 ZINC000043177324   -0.0200
27     C27   -11.8153    3.6495   11.0524 C.ar     1 ZINC000043177324   -0.0800
28     C28   -11.3881    3.4605    9.7515 C.ar     1 ZINC000043177324   -0.0900
29     C29    -4.9456    6.5936    2.1013 C.2      1 ZINC000043177324    0.4900
30     O30    -5.5240    7.5199    1.5590 O.co2    1 ZINC000043177324   -0.7100
31     O31    -3.7393    6.6438    2.2711 O.co2    1 ZINC000043177324   -0.6800
32     C32    -4.9442    0.6983   -0.0945 C.2      1 ZINC000043177324    0.5000
33     O33    -5.4412    0.2121    0.9070 O.co2    1 ZINC000043177324   -0.7100
34     O34    -5.3614    0.3841   -1.1963 O.co2    1 ZINC000043177324   -0.7100
35     H35    -1.3917    2.5717    0.9126 H        1 ZINC000043177324    0.0600
36     H36    -1.4001    2.5813   -0.8673 H        1 ZINC000043177324    0.0500
37     H37    -2.4169    0.3198   -0.8748 H        1 ZINC000043177324    0.0700
38     H38    -2.4085    0.3101    0.9052 H        1 ZINC000043177324    0.0600
39     H39    -3.4707    2.1343    2.0764 H        1 ZINC000043177324    0.3800
40     H40    -4.3848    3.9068    3.2898 H        1 ZINC000043177324    0.3800
41     H41    -5.3255    5.6562    4.6619 H        1 ZINC000043177324    0.0600
42     H42    -6.7560    6.5314    4.0654 H        1 ZINC000043177324    0.0700
43     H43    -7.9489    4.3781    3.7672 H        1 ZINC000043177324    0.0700
44     H44    -6.5183    3.5029    4.3637 H        1 ZINC000043177324    0.0800
45     H45    -6.6867    4.7025    6.5273 H        1 ZINC000043177324    0.0800
46     H46    -8.1173    5.5777    5.9308 H        1 ZINC000043177324    0.0800
47     H47    -9.3102    3.4244    5.6326 H        1 ZINC000043177324    0.1300
48     H48    -7.8796    2.5492    6.2291 H        1 ZINC000043177324    0.1400
49     H49   -10.6172    2.5087    7.4236 H        1 ZINC000043177324    0.1400
50     H50    -9.1867    1.6335    8.0201 H        1 ZINC000043177324    0.1400
51     H51    -8.5412    1.7561   10.3593 H        1 ZINC000043177324    0.1400
52     H52    -9.2962    2.1011   12.6774 H        1 ZINC000043177324    0.1400
53     H53   -12.7351    4.1810   11.2469 H        1 ZINC000043177324    0.1400
54     H54   -11.9762    3.8407    8.9294 H        1 ZINC000043177324    0.1400
@<TRIPOS>BOND
1     1     2     ar
2     2     3     ar
3     2     4     1
4     4     5     1
5     4     35    1
6     4     36    1
7     5     6     1
8     5     37    1
9     5     38    1
10    6     7     1
11    6     8     1
12    6     32    1
13    8     9     am
14    8     39    1
15    9     10    2
16    9     11    am
17    11    12    1
18    11    40    1
19    12    13    1
20    12    14    1
21    12    29    1
22    14    15    1
23    14    41    1
24    14    42    1
25    15    16    1
26    15    43    1
27    15    44    1
28    16    17    1
29    16    45    1
30    16    46    1
31    17    18    1
32    17    47    1
33    17    48    1
34    18    19    1
35    18    20    1
36    18    21    1
37    21    22    1
38    21    49    1
39    21    50    1
40    22    28    ar
41    22    23    ar
42    23    24    ar
43    23    51    1
44    24    25    ar
45    24    52    1
46    25    26    1
47    25    27    ar
48    27    28    ar
49    27    53    1
50    28    54    1
51    29    30    ar
52    29    31    ar
53    32    33    ar
54    32    34    ar
@<TRIPOS>SUBSTRUCTURE
1   ZINC000043177324 1     RESIDUE    1   A     ZIN   1
