@<TRIPOS>MOLECULE
ZINC000034885047
54    57    1     0     0
SMALL
USER_CHARGES
@<TRIPOS>ATOM
1      C1      0.1880   -8.2350   -1.0316 C.3      1 ZINC000034885047   -0.1000
2      C2      0.1566   -6.7607   -0.7206 C.2      1 ZINC000034885047    0.1000
3      C3      0.1195   -5.7567   -1.6259 C.2      1 ZINC000034885047   -0.2700
4      C4      0.0995   -4.5420   -0.9214 C.2      1 ZINC000034885047    0.3000
5      N5      0.0596   -3.2622   -1.4891 N.pl3    1 ZINC000034885047   -0.6100
6      C6      0.1466   -3.1108   -2.8653 C.ar     1 ZINC000034885047    0.4700
7      C7      0.2272   -1.8408   -3.4314 C.ar     1 ZINC000034885047   -0.3000
8      C8      0.3130   -1.7354   -4.8179 C.ar     1 ZINC000034885047    0.3800
9      N9      0.3954   -0.4911   -5.4236 N.3      1 ZINC000034885047   -0.4700
10     C10    -0.7398    0.3588   -5.0376 C.3      1 ZINC000034885047    0.0300
11     C11    -0.5805    1.7395   -5.6779 C.3      1 ZINC000034885047    0.0000
12     N12    -0.5267    1.5985   -7.1390 N.4      1 ZINC000034885047   -0.3900
13     H13    -1.3753    1.1614   -7.4660 H        1 ZINC000034885047    0.4200
14     C14    -0.3915    2.9257   -7.7541 C.3      1 ZINC000034885047   -0.0500
15     C15     0.6263    0.7677   -7.5104 C.3      1 ZINC000034885047   -0.0100
16     C16     0.4769   -0.6211   -6.8853 C.3      1 ZINC000034885047    0.0400
17     N17     0.3153   -2.8433   -5.5528 N.ar     1 ZINC000034885047   -0.5800
18     C18     0.2371   -4.0397   -4.9796 C.ar     1 ZINC000034885047    0.4300
19     C19     0.2430   -5.2437   -5.8274 C.2      1 ZINC000034885047   -0.1300
20     C20     0.0538   -6.4541   -5.2763 C.2      1 ZINC000034885047   -0.0200
21     C21    -0.0510   -7.6467   -6.1356 C.ar     1 ZINC000034885047   -0.0800
22     C22     0.0517   -7.5231   -7.5239 C.ar     1 ZINC000034885047   -0.1000
23     C23    -0.0469   -8.6437   -8.3216 C.ar     1 ZINC000034885047   -0.1200
24     C24    -0.2475   -9.8882   -7.7507 C.ar     1 ZINC000034885047   -0.1000
25     C25    -0.3502  -10.0184   -6.3768 C.ar     1 ZINC000034885047   -0.1200
26     C26    -0.2478   -8.9075   -5.5659 C.ar     1 ZINC000034885047   -0.0900
27     N27     0.1596   -4.1767   -3.6605 N.ar     1 ZINC000034885047   -0.5600
28     N28     0.1240   -4.8158    0.3618 N.2      1 ZINC000034885047   -0.3200
29     N29     0.1548   -6.2082    0.5108 N.pl3    1 ZINC000034885047   -0.4600
30     H30    -0.8318   -8.6142   -1.0970 H        1 ZINC000034885047    0.0900
31     H31     0.6969   -8.3951   -1.9821 H        1 ZINC000034885047    0.0900
32     H32     0.7215   -8.7619   -0.2405 H        1 ZINC000034885047    0.0800
33     H33     0.1077   -5.8691   -2.6999 H        1 ZINC000034885047    0.1800
34     H34    -0.0288   -2.4817   -0.9200 H        1 ZINC000034885047    0.4300
35     H35     0.2228   -0.9578   -2.8096 H        1 ZINC000034885047    0.1500
36     H36    -1.6685   -0.0966   -5.3815 H        1 ZINC000034885047    0.0700
37     H37    -0.7648    0.4618   -3.9528 H        1 ZINC000034885047    0.1300
38     H38    -1.4288    2.3669   -5.4045 H        1 ZINC000034885047    0.1400
39     H39     0.3415    2.2003   -5.3232 H        1 ZINC000034885047    0.1400
40     H40     0.5249    3.3983   -7.4006 H        1 ZINC000034885047    0.1200
41     H41    -0.3516    2.8213   -8.8383 H        1 ZINC000034885047    0.1300
42     H42    -1.2475    3.5422   -7.4797 H        1 ZINC000034885047    0.1200
43     H43     0.6726    0.6746   -8.5954 H        1 ZINC000034885047    0.1400
44     H44     1.5420    1.2334   -7.1463 H        1 ZINC000034885047    0.1400
45     H45     1.3396   -1.2331   -7.1484 H        1 ZINC000034885047    0.1400
46     H46    -0.4317   -1.0926   -7.2597 H        1 ZINC000034885047    0.0800
47     H47     0.3994   -5.1537   -6.8922 H        1 ZINC000034885047    0.1400
48     H48    -0.0215   -6.5532   -4.2035 H        1 ZINC000034885047    0.1400
49     H49     0.2076   -6.5523   -7.9709 H        1 ZINC000034885047    0.1300
50     H50     0.0323   -8.5498   -9.3946 H        1 ZINC000034885047    0.1300
51     H51    -0.3247  -10.7622   -8.3805 H        1 ZINC000034885047    0.1300
52     H52    -0.5071  -10.9928   -5.9383 H        1 ZINC000034885047    0.1300
53     H53    -0.3282   -9.0105   -4.4939 H        1 ZINC000034885047    0.1300
54     H54     0.1768   -6.6909    1.3519 H        1 ZINC000034885047    0.4400
@<TRIPOS>BOND
1     1     2     1
2     1     30    1
3     1     31    1
4     1     32    1
5     2     29    1
6     2     3     2
7     3     4     1
8     3     33    1
9     4     5     1
10    4     28    2
11    5     6     1
12    5     34    1
13    6     27    ar
14    6     7     ar
15    7     8     ar
16    7     35    1
17    8     9     1
18    8     17    ar
19    9     16    1
20    9     10    1
21    10    11    1
22    10    36    1
23    10    37    1
24    11    12    1
25    11    38    1
26    11    39    1
27    12    13    1
28    12    14    1
29    12    15    1
30    14    40    1
31    14    41    1
32    14    42    1
33    15    16    1
34    15    43    1
35    15    44    1
36    16    45    1
37    16    46    1
38    17    18    ar
39    18    19    1
40    18    27    ar
41    19    20    2
42    19    47    1
43    20    21    1
44    20    48    1
45    21    26    ar
46    21    22    ar
47    22    23    ar
48    22    49    1
49    23    24    ar
50    23    50    1
51    24    25    ar
52    24    51    1
53    25    26    ar
54    25    52    1
55    26    53    1
56    28    29    1
57    29    54    1
@<TRIPOS>SUBSTRUCTURE
1   ZINC000034885047 1     RESIDUE    1   A     ZIN   1
