@<TRIPOS>MOLECULE
ZINC000000022137
35    37    1     0     0
SMALL
USER_CHARGES
@<TRIPOS>ATOM
1      O1      0.0021   -0.0041    0.0020 O.2      1 ZINC000000022137   -0.5100
2      C2     -0.0144    1.2131    0.0087 C.2      1 ZINC000000022137    0.6600
3      N3     -1.1333    1.9436    0.0291 N.2      1 ZINC000000022137   -0.6000
4      C4     -0.8915    3.2303    0.0323 C.2      1 ZINC000000022137    0.4400
5      N5     -1.8027    4.2275    0.0517 N.pl3    1 ZINC000000022137   -0.5400
6      C6     -1.3745    5.6330    0.0472 C.3      1 ZINC000000022137    0.1100
7      C7     -2.0755    6.3583   -1.1058 C.3      1 ZINC000000022137   -0.1400
8      C8     -3.5882    6.1626   -0.9816 C.3      1 ZINC000000022137   -0.1200
9      C9     -3.9208    4.6717   -1.0755 C.3      1 ZINC000000022137   -0.1400
10     C10    -3.2408    3.9273    0.0716 C.3      1 ZINC000000022137    0.1100
11     C11     0.6170    3.3752    0.0108 C.3      1 ZINC000000022137    0.0800
12     N12     1.0930    1.9799    0.0023 N.am     1 ZINC000000022137   -0.5900
13     C13     2.4219    1.5421   -0.0174 C.ar     1 ZINC000000022137    0.2000
14     C14     3.4586    2.4661   -0.0253 C.ar     1 ZINC000000022137   -0.1500
15     C15     4.7693    2.0313   -0.0442 C.ar     1 ZINC000000022137   -0.0800
16     C16     5.0500    0.6763   -0.0552 C.ar     1 ZINC000000022137   -0.0600
17     Cl17    6.6987    0.1332   -0.0789 Cl       1 ZINC000000022137   -0.0700
18     C18     4.0189   -0.2465   -0.0469 C.ar     1 ZINC000000022137   -0.0800
19     C19     2.7065    0.1828   -0.0232 C.ar     1 ZINC000000022137   -0.1400
20     H20    -1.6471    6.1011    0.9930 H        1 ZINC000000022137    0.0900
21     H21    -0.2945    5.6855   -0.0910 H        1 ZINC000000022137    0.0900
22     H22    -1.8415    7.4220   -1.0622 H        1 ZINC000000022137    0.0900
23     H23    -1.7324    5.9484   -2.0557 H        1 ZINC000000022137    0.0700
24     H24    -3.9269    6.5504   -0.0209 H        1 ZINC000000022137    0.0700
25     H25    -4.0910    6.6982   -1.7868 H        1 ZINC000000022137    0.0700
26     H26    -5.0003    4.5349   -1.0105 H        1 ZINC000000022137    0.0800
27     H27    -3.5603    4.2777   -2.0257 H        1 ZINC000000022137    0.0700
28     H28    -3.3931    2.8546   -0.0477 H        1 ZINC000000022137    0.1100
29     H29    -3.6634    4.2550    1.0213 H        1 ZINC000000022137    0.0800
30     H30     0.9399    3.9006   -0.8879 H        1 ZINC000000022137    0.1200
31     H31     0.9663    3.8911    0.9052 H        1 ZINC000000022137    0.1200
32     H32     3.2400    3.5237   -0.0170 H        1 ZINC000000022137    0.1300
33     H33     5.5759    2.7495   -0.0507 H        1 ZINC000000022137    0.1400
34     H34     4.2407   -1.3035   -0.0552 H        1 ZINC000000022137    0.1400
35     H35     1.9021   -0.5378   -0.0163 H        1 ZINC000000022137    0.1600
@<TRIPOS>BOND
1     1     2     2
2     2     12    am
3     2     3     1
4     3     4     2
5     4     5     1
6     4     11    1
7     5     10    1
8     5     6     1
9     6     7     1
10    6     20    1
11    6     21    1
12    7     8     1
13    7     22    1
14    7     23    1
15    8     9     1
16    8     24    1
17    8     25    1
18    9     10    1
19    9     26    1
20    9     27    1
21    10    28    1
22    10    29    1
23    11    12    1
24    11    30    1
25    11    31    1
26    12    13    1
27    13    19    ar
28    13    14    ar
29    14    15    ar
30    14    32    1
31    15    16    ar
32    15    33    1
33    16    17    1
34    16    18    ar
35    18    19    ar
36    18    34    1
37    19    35    1
@<TRIPOS>SUBSTRUCTURE
1   ZINC000000022137 1     RESIDUE    1   A     ZIN   1
