@<TRIPOS>MOLECULE
ZINC000034005963
43    44    1     0     0
SMALL
USER_CHARGES
@<TRIPOS>ATOM
1      C1     -0.0173    1.4248    0.0099 C.3      1 ZINC000034005963    0.0300
2      O2      0.0021   -0.0041    0.0020 O.3      1 ZINC000034005963   -0.3200
3      C3      0.6257   -0.6183    1.0414 C.ar     1 ZINC000034005963    0.1300
4      C4      1.2032    0.1543    2.0534 C.ar     1 ZINC000034005963   -0.1900
5      C5      1.8343   -0.4314    3.1064 C.ar     1 ZINC000034005963   -0.0600
6      C6      1.9088   -1.8329    3.1825 C.ar     1 ZINC000034005963   -0.0800
7      C7      2.5526   -2.4710    4.2564 C.ar     1 ZINC000034005963   -0.0800
8      C8      2.6059   -3.8303    4.2985 C.ar     1 ZINC000034005963   -0.0900
9      C9      3.2968   -4.5105    5.4522 C.3      1 ZINC000034005963   -0.0400
10     H10     3.6837   -3.7577    6.1389 H        1 ZINC000034005963    0.1200
11     C11     4.4533   -5.3615    4.9240 C.3      1 ZINC000034005963   -0.1400
12     C12     2.3135   -5.3933    6.1767 C.2      1 ZINC000034005963    0.4600
13     O13     1.1692   -5.4630    5.7953 O.2      1 ZINC000034005963   -0.4900
14     O14     2.7091   -6.1023    7.2457 O.3      1 ZINC000034005963   -0.3500
15     C15     1.7085   -6.9311    7.8940 C.3      1 ZINC000034005963    0.0800
16     C16     2.3406   -7.6577    9.0828 C.3      1 ZINC000034005963   -0.6300
17     S17     1.0907   -8.6931    9.8927 S.o2     1 ZINC000034005963    2.4300
18     C18     2.0426   -9.4429   11.2426 C.3      1 ZINC000034005963   -0.6500
19     O19     0.0971   -7.8470   10.4550 O.2      1 ZINC000034005963   -0.9300
20     O20     0.6990   -9.7190    8.9908 O.2      1 ZINC000034005963   -0.9300
21     C21     2.0307   -4.6027    3.2910 C.ar     1 ZINC000034005963   -0.0700
22     C22     1.3990   -4.0202    2.2358 C.ar     1 ZINC000034005963   -0.1100
23     C23     1.3236   -2.6185    2.1577 C.ar     1 ZINC000034005963   -0.0100
24     C24     0.6754   -1.9827    1.0866 C.ar     1 ZINC000034005963   -0.1600
25     H25     1.0053    1.8021    0.0021 H        1 ZINC000034005963    0.0600
26     H26    -0.5445    1.7859   -0.8732 H        1 ZINC000034005963    0.1000
27     H27    -0.5275    1.7763    0.9067 H        1 ZINC000034005963    0.0600
28     H28     1.1478    1.2315    1.9981 H        1 ZINC000034005963    0.1300
29     H29     2.2765    0.1779    3.8807 H        1 ZINC000034005963    0.1300
30     H30     3.0032   -1.8856    5.0443 H        1 ZINC000034005963    0.1300
31     H31     5.1645   -4.7230    4.3999 H        1 ZINC000034005963    0.0800
32     H32     4.9531   -5.8535    5.7584 H        1 ZINC000034005963    0.0700
33     H33     4.0664   -6.1143    4.2372 H        1 ZINC000034005963    0.0600
34     H34     0.8893   -6.3038    8.2454 H        1 ZINC000034005963    0.0900
35     H35     1.3263   -7.6629    7.1823 H        1 ZINC000034005963    0.0900
36     H36     3.1599   -8.2850    8.7314 H        1 ZINC000034005963    0.1400
37     H37     2.7229   -6.9259    9.7945 H        1 ZINC000034005963    0.1400
38     H38     2.4336   -8.6586   11.8908 H        1 ZINC000034005963    0.1300
39     H39     1.3957  -10.1029   11.8205 H        1 ZINC000034005963    0.1400
40     H40     2.8706  -10.0177   10.8277 H        1 ZINC000034005963    0.1300
41     H41     2.0874   -5.6797    3.3484 H        1 ZINC000034005963    0.1200
42     H42     0.9578   -4.6314    1.4624 H        1 ZINC000034005963    0.1300
43     H43     0.2217   -2.5690    0.3011 H        1 ZINC000034005963    0.1400
@<TRIPOS>BOND
1     1     2     1
2     1     25    1
3     1     26    1
4     1     27    1
5     2     3     1
6     3     24    ar
7     3     4     ar
8     4     5     ar
9     4     28    1
10    5     6     ar
11    5     29    1
12    6     23    ar
13    6     7     ar
14    7     8     ar
15    7     30    1
16    8     9     1
17    8     21    ar
18    9     10    1
19    9     11    1
20    9     12    1
21    11    31    1
22    11    32    1
23    11    33    1
24    12    13    2
25    12    14    1
26    14    15    1
27    15    16    1
28    15    34    1
29    15    35    1
30    16    17    1
31    16    36    1
32    16    37    1
33    17    18    1
34    17    19    2
35    17    20    2
36    18    38    1
37    18    39    1
38    18    40    1
39    21    22    ar
40    21    41    1
41    22    23    ar
42    22    42    1
43    23    24    ar
44    24    43    1
@<TRIPOS>SUBSTRUCTURE
1   ZINC000034005963 1     RESIDUE    1   A     ZIN   1
