@<TRIPOS>MOLECULE
ZINC000030726283
  38   40    0    0    0
SMALL
USER_CHARGES
NO_NAME
@<TRIPOS>ATOM
    1 C1       -0.0142     1.3285     0.0055 C.2    1 <0>      -0.0600
    2 C2        0.0034    -0.0022    -0.0028 C.2    1 <0>      -0.2300
    3 C3       -1.1542    -0.9074    -0.0054 C.2    1 <0>       0.5000
    4 O4       -2.3074    -0.5365     0.0930 O.2    1 <0>      -0.4600
    5 O5       -0.7875    -2.1910    -0.1293 O.3    1 <0>      -0.3200
    6 C6        0.6506    -2.2917    -0.3566 C.3    1 <0>       0.1000
    7 H7        0.8003    -2.4625    -1.4393 H      1 <0>       0.1100
    8 C8        1.2340    -3.4576     0.4068 C.3    1 <0>      -0.0100
    9 H9        1.7110    -4.2199    -0.2473 H      1 <0>       0.1300
   10 O10       0.4190    -3.9940     1.4570 O.3    1 <0>      -0.3400
   11 C11       1.6910    -3.4771     1.8580 C.3    1 <0>       0.0500
   12 C12       2.7350    -4.5410     2.2549 C.3    1 <0>      -0.1400
   13 C13       1.7160    -2.2256     2.7232 C.3    1 <0>      -0.1100
   14 C14       3.1745    -1.7436     2.8855 C.3    1 <0>      -0.0900
   15 C15       3.3707    -0.6779     1.8375 C.2    1 <0>      -0.1700
   16 C16       3.8533    -0.9627     0.6641 C.2    1 <0>      -0.1200
   17 C17       4.5218    -2.2643     0.3380 C.3    1 <0>      -0.1200
   18 C18       3.5424     0.0030    -0.4647 C.3    1 <0>      -0.0900
   19 C19       2.2088    -0.4342    -1.0847 C.3    1 <0>      -0.1000
   20 C20       1.2322    -0.9118    -0.0183 C.3    1 <0>      -0.1100
   21 H21       1.6518    -0.9143     0.9737 H      1 <0>       0.1400
   22 H22       0.9139     1.8808     0.0013 H      1 <0>       0.1300
   23 H23      -0.9566     1.8561     0.0118 H      1 <0>       0.1200
   24 H24       2.3542    -5.5327     2.0106 H      1 <0>       0.0700
   25 H25       3.6612    -4.3628     1.7085 H      1 <0>       0.0800
   26 H26       2.9275    -4.4794     3.3260 H      1 <0>       0.0800
   27 H27       1.1252    -1.4429     2.2474 H      1 <0>       0.0800
   28 H28       1.2969    -2.4529     3.7034 H      1 <0>       0.0900
   29 H29       3.3239    -1.3247     3.8807 H      1 <0>       0.0800
   30 H30       3.8650    -2.5697     2.7160 H      1 <0>       0.0900
   31 H31       3.1042     0.3473     2.0737 H      1 <0>       0.1100
   32 H32       3.7669    -3.0030     0.0689 H      1 <0>       0.0700
   33 H33       5.2055    -2.1219    -0.4989 H      1 <0>       0.0700
   34 H34       5.0791    -2.6142     1.2070 H      1 <0>       0.0700
   35 H35       3.4545     1.0161    -0.0724 H      1 <0>       0.0700
   36 H36       4.3315    -0.0378    -1.2155 H      1 <0>       0.0800
   37 H37       1.7694     0.4086    -1.6184 H      1 <0>       0.0800
   38 H38       2.3912    -1.2459    -1.7890 H      1 <0>       0.0700
@<TRIPOS>BOND
   1    1    2 2
   2    1   22 1
   3    1   23 1
   4    2   20 1
   5    2    3 1
   6    3    4 2
   7    3    5 1
   8    5    6 1
   9    6    7 1
  10    6   20 1
  11    6    8 1
  12    8    9 1
  13    8   11 1
  14    8   10 1
  15   10   11 1
  16   11   12 1
  17   11   13 1
  18   12   24 1
  19   12   25 1
  20   12   26 1
  21   13   14 1
  22   13   27 1
  23   13   28 1
  24   14   15 1
  25   14   29 1
  26   14   30 1
  27   15   16 2
  28   15   31 1
  29   16   17 1
  30   16   18 1
  31   17   32 1
  32   17   33 1
  33   17   34 1
  34   18   19 1
  35   18   35 1
  36   18   36 1
  37   19   20 1
  38   19   37 1
  39   19   38 1
  40   20   21 1
