@<TRIPOS>MOLECULE
ZINC000001545034
  57   61    0    0    0
SMALL
USER_CHARGES
NO_NAME
@<TRIPOS>ATOM
    1 O1        0.0021    -0.0041     0.0020 O.2    1 <0>      -0.4800
    2 C2       -0.0144     1.2081     0.0087 C.2    1 <0>       0.5300
    3 C3       -1.2600     2.0645     0.0318 C.3    1 <0>      -0.1200
    4 H4       -1.9066     1.8538     0.8836 H      1 <0>       0.1300
    5 C5       -1.9880     1.9113    -1.3376 C.3    1 <0>      -0.0800
    6 H6       -2.1587     0.8885    -1.6735 H      1 <0>       0.1100
    7 C7       -3.2584     2.8059    -1.2082 C.3    1 <0>      -0.1200
    8 C8       -2.7184     4.2543    -1.2171 C.3    1 <0>      -0.1200
    9 C9       -1.1729     4.0981    -1.3518 C.3    1 <0>      -0.0800
   10 H10      -0.6360     4.9751    -1.7134 H      1 <0>       0.1100
   11 C11      -1.0751     2.7978    -2.2556 C.3    1 <0>      -0.1400
   12 C12      -0.6977     3.5144     0.0334 C.3    1 <0>      -0.1300
   13 H13      -1.0378     4.1055     0.8837 H      1 <0>       0.1300
   14 C14       0.8044     3.3480    -0.0083 C.2    1 <0>       0.5400
   15 O15       1.6092     4.2545    -0.0243 O.2    1 <0>      -0.4600
   16 N16       1.0671     1.9957     0.0026 N.am   1 <0>      -0.5800
   17 C17       2.4274     1.4527    -0.0289 C.3    1 <0>       0.1000
   18 C18       2.9421     1.2833     1.4020 C.3    1 <0>      -0.1300
   19 C19       4.3628     0.7162     1.3691 C.3    1 <0>      -0.1200
   20 C20       4.8775     0.5468     2.7999 C.3    1 <0>       0.0600
   21 N21       6.2415     0.0023     2.7684 N.3    1 <0>      -0.5400
   22 C22       6.3396    -1.1173     1.8225 C.3    1 <0>       0.0300
   23 C23       7.8068    -1.5373     1.6837 C.3    1 <0>       0.1300
   24 N24       8.3442    -1.8080     3.0257 N.pl3  1 <0>      -0.5800
   25 C25       9.0045    -2.9929     3.3009 C.ar   1 <0>       0.5700
   26 N26       9.1554    -3.8883     2.3360 N.ar   1 <0>      -0.5700
   27 C27       9.7817    -5.0305     2.5654 C.ar   1 <0>       0.1900
   28 C28      10.2824    -5.2844     3.8327 C.ar   1 <0>      -0.3000
   29 C29      10.1071    -4.3261     4.8187 C.ar   1 <0>       0.1900
   30 N30       9.4755    -3.2025     4.5214 N.ar   1 <0>      -0.5700
   31 C31       8.1619    -0.7860     4.0676 C.3    1 <0>       0.1300
   32 C32       6.6807    -0.3956     4.1125 C.3    1 <0>       0.0400
   33 H33      -3.9253     2.6437    -2.0549 H      1 <0>       0.0700
   34 H34      -3.7752     2.5988    -0.2711 H      1 <0>       0.0700
   35 H35      -3.1203     4.8044    -2.0680 H      1 <0>       0.0700
   36 H36      -2.9694     4.7592    -0.2843 H      1 <0>       0.0700
   37 H37      -0.0536     2.4236    -2.3241 H      1 <0>       0.0700
   38 H38      -1.5165     2.9504    -3.2404 H      1 <0>       0.0900
   39 H39       2.4206     0.4846    -0.5296 H      1 <0>       0.0900
   40 H40       3.0795     2.1376    -0.5709 H      1 <0>       0.0900
   41 H41       2.9489     2.2515     1.9027 H      1 <0>       0.0700
   42 H42       2.2900     0.5985     1.9440 H      1 <0>       0.0700
   43 H43       4.3560    -0.2519     0.8684 H      1 <0>       0.0700
   44 H44       5.0149     1.4011     0.8271 H      1 <0>       0.0800
   45 H45       4.8842     1.5150     3.3006 H      1 <0>       0.0800
   46 H46       4.2253    -0.1380     3.3420 H      1 <0>       0.0300
   47 H47       5.7539    -1.9587     2.1928 H      1 <0>       0.0400
   48 H48       5.9567    -0.8068     0.8504 H      1 <0>       0.1000
   49 H49       7.8737    -2.4383     1.0739 H      1 <0>       0.1000
   50 H50       8.3754    -0.7329     1.2170 H      1 <0>       0.0700
   51 H51       9.9013    -5.7566     1.7750 H      1 <0>       0.1700
   52 H52      10.7976    -6.2090     4.0474 H      1 <0>       0.1400
   53 H53      10.4848    -4.4932     5.8165 H      1 <0>       0.1700
   54 H54       8.4634    -1.1902     5.0339 H      1 <0>       0.1000
   55 H55       8.7645     0.0907     3.8300 H      1 <0>       0.0700
   56 H56       6.5451     0.4383     4.8012 H      1 <0>       0.0900
   57 H57       6.0902    -1.2470     4.4509 H      1 <0>       0.0400
@<TRIPOS>BOND
   1    1    2 2
   2    2   16 am
   3    2    3 1
   4    3    4 1
   5    3   12 1
   6    3    5 1
   7    5    6 1
   8    5   11 1
   9    5    7 1
  10    7    8 1
  11    7   33 1
  12    7   34 1
  13    8    9 1
  14    8   35 1
  15    8   36 1
  16    9   10 1
  17    9   11 1
  18    9   12 1
  19   11   37 1
  20   11   38 1
  21   12   13 1
  22   12   14 1
  23   14   15 2
  24   14   16 am
  25   16   17 1
  26   17   18 1
  27   17   39 1
  28   17   40 1
  29   18   19 1
  30   18   41 1
  31   18   42 1
  32   19   20 1
  33   19   43 1
  34   19   44 1
  35   20   21 1
  36   20   45 1
  37   20   46 1
  38   21   32 1
  39   21   22 1
  40   22   23 1
  41   22   47 1
  42   22   48 1
  43   23   24 1
  44   23   49 1
  45   23   50 1
  46   24   25 1
  47   24   31 1
  48   25   30 ar
  49   25   26 ar
  50   26   27 ar
  51   27   28 ar
  52   27   51 1
  53   28   29 ar
  54   28   52 1
  55   29   30 ar
  56   29   53 1
  57   31   32 1
  58   31   54 1
  59   31   55 1
  60   32   56 1
  61   32   57 1
