@<TRIPOS>MOLECULE
ZINC000001906617
  53   54    0    0    0
SMALL
USER_CHARGES
NO_NAME
@<TRIPOS>ATOM
    1 C1       -0.7201     1.1827    -1.6002 C.3    1 <0>       0.0200
    2 O2       -0.9502    -0.2164    -1.7784 O.3    1 <0>      -0.3200
    3 C3       -1.4784    -0.8938    -0.7254 C.ar   1 <0>       0.1300
    4 C4       -1.7746    -0.2247     0.4531 C.ar   1 <0>      -0.2000
    5 C5       -2.3120    -0.9157     1.5221 C.ar   1 <0>      -0.0700
    6 C6       -2.5542    -2.2728     1.4181 C.ar   1 <0>      -0.1400
    7 C7       -2.2594    -2.9422     0.2445 C.ar   1 <0>      -0.0300
    8 C8       -2.5242    -4.4217     0.1348 C.3    1 <0>      -0.0200
    9 C9       -1.9024    -4.9580    -1.1562 C.3    1 <0>      -0.1100
   10 C10      -0.3790    -4.8424    -1.0749 C.3    1 <0>      -0.1700
   11 C11       0.2360    -5.2560    -2.4135 C.3    1 <0>      -0.0100
   12 N12       1.6987    -5.1450    -2.3354 N.4    1 <0>      -0.3900
   13 H13       2.0359    -5.6862    -1.5534 H      1 <0>       0.4300
   14 C14       2.2954    -5.6547    -3.5772 C.3    1 <0>      -0.0500
   15 C15       2.0739    -3.7363    -2.1540 C.3    1 <0>      -0.0500
   16 C16      -1.9198    -5.1302     1.3182 C.2    1 <0>       0.5300
   17 O17      -0.9185    -4.6802     1.8326 O.2    1 <0>      -0.4800
   18 N18      -2.4681    -6.2494     1.8144 N.am   1 <0>      -0.6800
   19 C19      -3.5809    -6.7969     1.3032 C.2    1 <0>       0.5200
   20 O20      -4.0320    -7.8042     1.8044 O.2    1 <0>      -0.4800
   21 C21      -4.2808    -6.1842     0.1189 C.3    1 <0>      -0.1400
   22 C22      -4.0360    -4.6714     0.1173 C.3    1 <0>      -0.0500
   23 C23      -4.6744    -4.0464     1.3594 C.3    1 <0>      -0.1700
   24 C24      -4.6443    -4.0539    -1.1435 C.3    1 <0>      -0.1500
   25 C25      -1.7278    -2.2548    -0.8291 C.ar   1 <0>      -0.1600
   26 H26      -0.2976     1.6007    -2.5139 H      1 <0>       0.1000
   27 H27      -1.6634     1.6803    -1.3753 H      1 <0>       0.0600
   28 H28      -0.0237     1.3342    -0.7755 H      1 <0>       0.0600
   29 H29      -1.5849     0.8353     0.5350 H      1 <0>       0.1300
   30 H30      -2.5427    -0.3952     2.4398 H      1 <0>       0.1300
   31 H31      -2.9739    -2.8111     2.2550 H      1 <0>       0.1300
   32 H32      -2.1810    -6.0037    -1.2865 H      1 <0>       0.0900
   33 H33      -2.2662    -4.3768    -2.0035 H      1 <0>       0.1100
   34 H34      -0.1042    -3.8115    -0.8519 H      1 <0>       0.1100
   35 H35      -0.0065    -5.4964    -0.2864 H      1 <0>       0.0900
   36 H36      -0.0388    -6.2869    -2.6365 H      1 <0>       0.1300
   37 H37      -0.1364    -4.6020    -3.2019 H      1 <0>       0.1300
   38 H38       1.9312    -5.0700    -4.4220 H      1 <0>       0.1200
   39 H39       3.3808    -5.5723    -3.5193 H      1 <0>       0.1200
   40 H40       2.0170    -6.6999    -3.7118 H      1 <0>       0.1200
   41 H41       1.7097    -3.1517    -2.9988 H      1 <0>       0.1200
   42 H42       1.6312    -3.3582    -1.2326 H      1 <0>       0.1200
   43 H43       3.1593    -3.6540    -2.0961 H      1 <0>       0.1200
   44 H44      -2.0430    -6.6798     2.5726 H      1 <0>       0.4200
   45 H45      -3.8879    -6.6177    -0.8008 H      1 <0>       0.1200
   46 H46      -5.3509    -6.3800     0.1869 H      1 <0>       0.1200
   47 H47      -4.1445    -4.3850     2.2497 H      1 <0>       0.0500
   48 H48      -4.6137    -2.9602     1.2916 H      1 <0>       0.0800
   49 H49      -5.7198    -4.3487     1.4218 H      1 <0>       0.0800
   50 H50      -5.7284    -4.1632    -1.1149 H      1 <0>       0.0700
   51 H51      -4.3869    -2.9957    -1.1902 H      1 <0>       0.0700
   52 H52      -4.2508    -4.5627    -2.0234 H      1 <0>       0.0600
   53 H53      -1.4981    -2.7780    -1.7456 H      1 <0>       0.1300
@<TRIPOS>BOND
   1    1    2 1
   2    1   26 1
   3    1   27 1
   4    1   28 1
   5    2    3 1
   6    3   25 ar
   7    3    4 ar
   8    4    5 ar
   9    4   29 1
  10    5    6 ar
  11    5   30 1
  12    6    7 ar
  13    6   31 1
  14    7    8 1
  15    7   25 ar
  16    8   22 1
  17    8    9 1
  18    8   16 1
  19    9   10 1
  20    9   32 1
  21    9   33 1
  22   10   11 1
  23   10   34 1
  24   10   35 1
  25   11   12 1
  26   11   36 1
  27   11   37 1
  28   12   13 1
  29   12   14 1
  30   12   15 1
  31   14   38 1
  32   14   39 1
  33   14   40 1
  34   15   41 1
  35   15   42 1
  36   15   43 1
  37   16   17 2
  38   16   18 am
  39   18   19 am
  40   18   44 1
  41   19   20 2
  42   19   21 1
  43   21   22 1
  44   21   45 1
  45   21   46 1
  46   22   23 1
  47   22   24 1
  48   23   47 1
  49   23   48 1
  50   23   49 1
  51   24   50 1
  52   24   51 1
  53   24   52 1
  54   25   53 1
