@<TRIPOS>MOLECULE
ZINC000167574450
53    56    1     0     0
SMALL
USER_CHARGES
@<TRIPOS>ATOM
1      O1     -0.0173    1.4248    0.0099 O.3      1 ZINC000167574450   -0.4900
2      C2      0.0021   -0.0041    0.0020 C.3      1 ZINC000167574450    0.1700
3      C3     -1.4333   -0.5336    0.0129 C.3      1 ZINC000167574450    0.1200
4      N4     -2.1054   -0.1483   -1.2305 N.pl3    1 ZINC000167574450   -0.3000
5      C5     -2.7195   -0.9754   -2.0968 C.2      1 ZINC000167574450    0.1500
6      N6     -3.1842   -0.2265   -3.0669 N.2      1 ZINC000167574450   -0.3000
7      N7     -2.8718    0.9968   -2.8099 N.2      1 ZINC000167574450   -0.0800
8      N8     -2.2248    1.0482   -1.6981 N.2      1 ZINC000167574450   -0.0600
9      C9      0.7074   -0.4901   -1.2379 C.ar     1 ZINC000167574450   -0.2000
10     C10     1.2166    0.4201   -2.1444 C.ar     1 ZINC000167574450   -0.0300
11     C11     1.8642   -0.0242   -3.2819 C.ar     1 ZINC000167574450   -0.1600
12     C12     2.0035   -1.3820   -3.5141 C.ar     1 ZINC000167574450    0.1500
13     F13     2.6369   -1.8160   -4.6257 F        1 ZINC000167574450   -0.1200
14     C14     1.4938   -2.2948   -2.6066 C.ar     1 ZINC000167574450   -0.1900
15     C15     0.8502   -1.8487   -1.4654 C.ar     1 ZINC000167574450    0.1500
16     F16     0.3523   -2.7383   -0.5789 F        1 ZINC000167574450   -0.1200
17     C17     0.7421   -0.5109    1.2415 C.3      1 ZINC000167574450    0.3300
18     F18     0.7610   -1.9098    1.2339 F        1 ZINC000167574450   -0.1700
19     F19     2.0546   -0.0267    1.2316 F        1 ZINC000167574450   -0.1700
20     C20     0.0367   -0.0249    2.4814 C.ar     1 ZINC000167574450    0.0400
21     C21     0.5381   -0.3609    3.7255 C.ar     1 ZINC000167574450   -0.1200
22     C22    -0.1129    0.0882    4.8619 C.ar     1 ZINC000167574450   -0.0700
23     C23    -1.2604    0.8697    4.7031 C.ar     1 ZINC000167574450   -0.0500
24     C24    -1.9965    1.3775    5.8870 C.ar     1 ZINC000167574450   -0.0900
25     C25    -1.5425    1.0817    7.1712 C.ar     1 ZINC000167574450   -0.0600
26     C26    -2.2284    1.5555    8.2697 C.ar     1 ZINC000167574450   -0.1400
27     C27    -3.3704    2.3261    8.0975 C.ar     1 ZINC000167574450    0.1400
28     O28    -4.0441    2.7915    9.1817 O.3      1 ZINC000167574450   -0.3000
29     C29    -5.2108    3.5781    8.9321 C.3      1 ZINC000167574450    0.0100
30     C30    -5.8299    4.0088   10.2632 C.3      1 ZINC000167574450    0.4700
31     F31    -4.9021    4.7670   10.9854 F        1 ZINC000167574450   -0.1700
32     F32    -6.9720    4.7789   10.0188 F        1 ZINC000167574450   -0.1700
33     F33    -6.1817    2.8745   11.0026 F        1 ZINC000167574450   -0.1700
34     C34    -3.8249    2.6224    6.8196 C.ar     1 ZINC000167574450   -0.2000
35     C35    -3.1399    2.1561    5.7172 C.ar     1 ZINC000167574450   -0.0600
36     C36    -1.7020    1.1647    3.4147 C.ar     1 ZINC000167574450    0.1100
37     N37    -1.0463    0.7189    2.3629 N.ar     1 ZINC000167574450   -0.4300
38     H38     0.8606    1.8301    0.0037 H        1 ZINC000167574450    0.3800
39     H39    -1.4190   -1.6203    0.0965 H        1 ZINC000167574450    0.1300
40     H40    -1.9701   -0.1109    0.8621 H        1 ZINC000167574450    0.1500
41     H41    -2.8110   -2.0480   -2.0098 H        1 ZINC000167574450    0.2300
42     H42     1.1081    1.4794   -1.9643 H        1 ZINC000167574450    0.1500
43     H43     2.2615    0.6880   -3.9900 H        1 ZINC000167574450    0.1500
44     H44     1.6019   -3.3541   -2.7869 H        1 ZINC000167574450    0.1600
45     H45     1.4277   -0.9673    3.8098 H        1 ZINC000167574450    0.1500
46     H46     0.2565   -0.1594    5.8460 H        1 ZINC000167574450    0.1500
47     H47    -0.6546    0.4817    7.3058 H        1 ZINC000167574450    0.1400
48     H48    -1.8772    1.3266    9.2650 H        1 ZINC000167574450    0.1400
49     H49    -4.9366    4.4619    8.3560 H        1 ZINC000167574450    0.1100
50     H50    -5.9337    2.9874    8.3694 H        1 ZINC000167574450    0.1100
51     H51    -4.7138    3.2217    6.6887 H        1 ZINC000167574450    0.1400
52     H52    -3.4940    2.3869    4.7234 H        1 ZINC000167574450    0.1400
53     H53    -2.5875    1.7676    3.2774 H        1 ZINC000167574450    0.1700
@<TRIPOS>BOND
1     1     2     1
2     1     38    1
3     2     3     1
4     2     9     1
5     2     17    1
6     3     4     1
7     3     39    1
8     3     40    1
9     4     8     1
10    4     5     1
11    5     6     2
12    5     41    1
13    6     7     1
14    7     8     2
15    9     15    ar
16    9     10    ar
17    10    11    ar
18    10    42    1
19    11    12    ar
20    11    43    1
21    12    13    1
22    12    14    ar
23    14    15    ar
24    14    44    1
25    15    16    1
26    17    18    1
27    17    19    1
28    17    20    1
29    20    37    ar
30    20    21    ar
31    21    22    ar
32    21    45    1
33    22    23    ar
34    22    46    1
35    23    24    1
36    23    36    ar
37    24    35    ar
38    24    25    ar
39    25    26    ar
40    25    47    1
41    26    27    ar
42    26    48    1
43    27    28    1
44    27    34    ar
45    28    29    1
46    29    30    1
47    29    49    1
48    29    50    1
49    30    31    1
50    30    32    1
51    30    33    1
52    34    35    ar
53    34    51    1
54    35    52    1
55    36    37    ar
56    36    53    1
@<TRIPOS>SUBSTRUCTURE
1   ZINC000167574450 1     RESIDUE    1   A     ZIN   1
