@<TRIPOS>MOLECULE
ZINC000001489691
  39   41    0    0    0
SMALL
USER_CHARGES
NO_NAME
@<TRIPOS>ATOM
    1 O1       -1.6897     0.2058    -2.5423 O.2    1 <0>      -0.4800
    2 C2       -1.8063     1.4133    -2.4565 C.2    1 <0>       0.5700
    3 N3       -1.6038     2.1886    -3.5402 N.am   1 <0>      -0.6000
    4 O4       -1.2552     1.5972    -4.7786 O.3    1 <0>      -0.1300
    5 C5       -1.0711     2.5364    -5.8398 C.3    1 <0>       0.0600
    6 C6       -0.6994     1.7900    -7.1226 C.3    1 <0>      -0.1600
    7 C7       -1.6749     1.8763    -8.2981 C.3    1 <0>      -0.1700
    8 C8       -0.3446     2.6300    -8.3512 C.3    1 <0>      -0.1700
    9 C9       -2.1750     2.0282    -1.1694 C.ar   1 <0>      -0.1100
   10 C10      -2.1964     3.4195    -1.0359 C.ar   1 <0>      -0.0600
   11 C11      -2.5415     3.9900     0.1686 C.ar   1 <0>      -0.1200
   12 C12      -2.8689     3.1901     1.2554 C.ar   1 <0>       0.1100
   13 F13      -3.2059     3.7611     2.4325 F      1 <0>      -0.1100
   14 C14      -2.8523     1.8110     1.1389 C.ar   1 <0>       0.0700
   15 F15      -3.1721     1.0396     2.2009 F      1 <0>      -0.1100
   16 C16      -2.5122     1.2198    -0.0719 C.ar   1 <0>       0.2000
   17 N17      -2.4949    -0.1656    -0.1929 N.pl3  1 <0>      -0.6800
   18 C18      -3.6133    -0.8375    -0.6949 C.ar   1 <0>       0.2600
   19 C19      -4.6938    -0.1182    -1.1881 C.ar   1 <0>      -0.1800
   20 C20      -5.7977    -0.7849    -1.6835 C.ar   1 <0>      -0.0300
   21 C21      -5.8280    -2.1676    -1.6888 C.ar   1 <0>      -0.1400
   22 I22      -7.5044    -3.1735    -2.4419 I      1 <0>      -0.0300
   23 C23      -4.7534    -2.8881    -1.1982 C.ar   1 <0>      -0.0300
   24 C24      -3.6439    -2.2276    -0.7066 C.ar   1 <0>      -0.0900
   25 Cl25     -2.2956    -3.1318    -0.0917 Cl     1 <0>      -0.0600
   26 H26      -1.6968     3.1517    -3.4717 H      1 <0>       0.4000
   27 H27      -1.9954     3.0921    -5.9976 H      1 <0>       0.0700
   28 H28      -0.2711     3.2288    -5.5775 H      1 <0>       0.0700
   29 H29      -0.1620     0.8521    -6.9819 H      1 <0>       0.1200
   30 H30      -1.7797     0.9950    -8.9309 H      1 <0>       0.1000
   31 H31      -2.5816     2.4648    -8.1575 H      1 <0>       0.1000
   32 H32      -0.3759     3.7144    -8.2455 H      1 <0>       0.1000
   33 H33       0.4260     2.2447    -9.0189 H      1 <0>       0.1000
   34 H34      -1.9421     4.0468    -1.8775 H      1 <0>       0.1500
   35 H35      -2.5572     5.0652     0.2689 H      1 <0>       0.1600
   36 H36      -1.7067    -0.6656     0.0711 H      1 <0>       0.4200
   37 H37      -4.6714     0.9616    -1.1841 H      1 <0>       0.1300
   38 H38      -6.6383    -0.2256    -2.0668 H      1 <0>       0.1400
   39 H39      -4.7800    -3.9678    -1.2037 H      1 <0>       0.1400
@<TRIPOS>BOND
   1    1    2 2
   2    2    3 am
   3    2    9 1
   4    3    4 1
   5    3   26 1
   6    4    5 1
   7    5    6 1
   8    5   27 1
   9    5   28 1
  10    6    8 1
  11    6    7 1
  12    6   29 1
  13    7    8 1
  14    7   30 1
  15    7   31 1
  16    8   32 1
  17    8   33 1
  18    9   16 ar
  19    9   10 ar
  20   10   11 ar
  21   10   34 1
  22   11   12 ar
  23   11   35 1
  24   12   13 1
  25   12   14 ar
  26   14   15 1
  27   14   16 ar
  28   16   17 1
  29   17   18 1
  30   17   36 1
  31   18   24 ar
  32   18   19 ar
  33   19   20 ar
  34   19   37 1
  35   20   21 ar
  36   20   38 1
  37   21   22 1
  38   21   23 ar
  39   23   24 ar
  40   23   39 1
  41   24   25 1
