@<TRIPOS>MOLECULE
ZINC000034984673
66    69    1     0     0
SMALL
USER_CHARGES
@<TRIPOS>ATOM
1      C1      1.0758    1.8529    2.5034 C.3      1 ZINC000034984673   -0.1700
2      C2      0.8366    0.7008    1.5255 C.3      1 ZINC000034984673    0.0600
3      C3      1.1367   -0.6288    2.2204 C.3      1 ZINC000034984673   -0.1800
4      C4     -0.6223    0.7176    1.0647 C.3      1 ZINC000034984673   -0.1500
5      C5     -1.5418    0.5568    2.2769 C.3      1 ZINC000034984673   -0.1000
6      C6     -2.9893    0.4109    1.8033 C.3      1 ZINC000034984673    0.0200
7      C7     -3.0807   -0.7160    0.8069 C.2      1 ZINC000034984673    0.5300
8      N8     -2.7290   -1.9657    1.1688 N.am     1 ZINC000034984673   -0.8500
9      O9     -3.4706   -0.4983   -0.3207 O.2      1 ZINC000034984673   -0.5200
10     C10    -3.8764    0.1106    2.9839 C.ar     1 ZINC000034984673   -0.0900
11     C11    -3.3580    0.1472    4.2649 C.ar     1 ZINC000034984673   -0.1200
12     C12    -4.1717   -0.1282    5.3479 C.ar     1 ZINC000034984673   -0.1100
13     C13    -5.5038   -0.4398    5.1500 C.ar     1 ZINC000034984673   -0.1100
14     C14    -6.0224   -0.4756    3.8691 C.ar     1 ZINC000034984673   -0.1100
15     C15    -5.2098   -0.1959    2.7864 C.ar     1 ZINC000034984673   -0.1000
16     C16    -3.4367    1.6944    1.1525 C.ar     1 ZINC000034984673   -0.0800
17     C17    -2.9501    2.0438   -0.0933 C.ar     1 ZINC000034984673   -0.0900
18     C18    -3.3604    3.2212   -0.6903 C.ar     1 ZINC000034984673   -0.1300
19     C19    -4.2577    4.0489   -0.0417 C.ar     1 ZINC000034984673   -0.1100
20     C20    -4.7450    3.6990    1.2037 C.ar     1 ZINC000034984673   -0.1200
21     C21    -4.3379    2.5196    1.7988 C.ar     1 ZINC000034984673   -0.1000
22     N22     1.7195    0.8552    0.3616 N.4      1 ZINC000034984673   -0.4000
23     H23     1.5104    1.6775   -0.1845 H        1 ZINC000034984673    0.4400
24     C24     1.8419   -0.3711   -0.4485 C.3      1 ZINC000034984673    0.0000
25     C25     3.3253   -0.0276   -0.6436 C.3      1 ZINC000034984673    0.0400
26     O26     3.5863    0.8259   -1.7596 O.3      1 ZINC000034984673   -0.2900
27     C27     4.8428    0.7986   -2.2766 C.ar     1 ZINC000034984673    0.1200
28     C28     5.1793    1.6391   -3.3281 C.ar     1 ZINC000034984673   -0.1500
29     C29     6.4568    1.6114   -3.8547 C.ar     1 ZINC000034984673   -0.0600
30     C30     7.4016    0.7472   -3.3359 C.ar     1 ZINC000034984673   -0.1600
31     C31     7.0699   -0.0954   -2.2841 C.ar     1 ZINC000034984673    0.1500
32     O32     7.9996   -0.9456   -1.7746 O.3      1 ZINC000034984673   -0.5000
33     C33     5.7911   -0.0652   -1.7502 C.ar     1 ZINC000034984673   -0.2300
34     C34     3.1509    0.7170    0.6888 C.3      1 ZINC000034984673   -0.0200
35     H35     2.1053    1.8189    2.8600 H        1 ZINC000034984673    0.0800
36     H36     0.8977    2.8018    1.9976 H        1 ZINC000034984673    0.0800
37     H37     0.3950    1.7587    3.3494 H        1 ZINC000034984673    0.1100
38     H38     0.6159   -0.6643    3.1773 H        1 ZINC000034984673    0.1100
39     H39     0.7979   -1.4521    1.5916 H        1 ZINC000034984673    0.0900
40     H40     2.2102   -0.7172    2.3876 H        1 ZINC000034984673    0.0800
41     H41    -0.8361    1.6648    0.5696 H        1 ZINC000034984673    0.1000
42     H42    -0.7927   -0.1032    0.3680 H        1 ZINC000034984673    0.0900
43     H43    -1.2517   -0.3318    2.8377 H        1 ZINC000034984673    0.0900
44     H44    -1.4558    1.4347    2.9172 H        1 ZINC000034984673    0.1000
45     H45    -2.4171   -2.1398    2.0706 H        1 ZINC000034984673    0.4000
46     H46    -2.7878   -2.6910    0.5274 H        1 ZINC000034984673    0.4100
47     H47    -2.3172    0.3907    4.4195 H        1 ZINC000034984673    0.1300
48     H48    -3.7665   -0.1003    6.3487 H        1 ZINC000034984673    0.1300
49     H49    -6.1394   -0.6558    5.9961 H        1 ZINC000034984673    0.1300
50     H50    -7.0631   -0.7194    3.7145 H        1 ZINC000034984673    0.1300
51     H51    -5.6149   -0.2238    1.7857 H        1 ZINC000034984673    0.1200
52     H52    -2.2490    1.3972   -0.6001 H        1 ZINC000034984673    0.1200
53     H53    -2.9797    3.4945   -1.6633 H        1 ZINC000034984673    0.1200
54     H54    -4.5777    4.9690   -0.5078 H        1 ZINC000034984673    0.1200
55     H55    -5.4457    4.3458    1.7106 H        1 ZINC000034984673    0.1300
56     H56    -4.7186    2.2462    2.7718 H        1 ZINC000034984673    0.1300
57     H57     1.6794   -1.2860    0.1214 H        1 ZINC000034984673    0.1700
58     H58     1.2640   -0.3409   -1.3722 H        1 ZINC000034984673    0.1500
59     H59     3.9929   -0.8878   -0.5943 H        1 ZINC000034984673    0.1500
60     H60     4.4423    2.3152   -3.7356 H        1 ZINC000034984673    0.1400
61     H61     6.7167    2.2661   -4.6733 H        1 ZINC000034984673    0.1400
62     H62     8.3992    0.7272   -3.7493 H        1 ZINC000034984673    0.1400
63     H63     8.5201   -0.5712   -1.0507 H        1 ZINC000034984673    0.4000
64     H64     5.5310   -0.7201   -0.9318 H        1 ZINC000034984673    0.1400
65     H65     3.6823    1.6678    0.7277 H        1 ZINC000034984673    0.1400
66     H66     3.3377    0.0928    1.5627 H        1 ZINC000034984673    0.1700
@<TRIPOS>BOND
1     1     2     1
2     1     35    1
3     1     36    1
4     1     37    1
5     2     3     1
6     2     4     1
7     2     22    1
8     3     38    1
9     3     39    1
10    3     40    1
11    4     5     1
12    4     41    1
13    4     42    1
14    5     6     1
15    5     43    1
16    5     44    1
17    6     7     1
18    6     10    1
19    6     16    1
20    7     8     am
21    7     9     2
22    8     45    1
23    8     46    1
24    10    15    ar
25    10    11    ar
26    11    12    ar
27    11    47    1
28    12    13    ar
29    12    48    1
30    13    14    ar
31    13    49    1
32    14    15    ar
33    14    50    1
34    15    51    1
35    16    21    ar
36    16    17    ar
37    17    18    ar
38    17    52    1
39    18    19    ar
40    18    53    1
41    19    20    ar
42    19    54    1
43    20    21    ar
44    20    55    1
45    21    56    1
46    22    23    1
47    22    34    1
48    22    24    1
49    24    25    1
50    24    57    1
51    24    58    1
52    25    26    1
53    25    34    1
54    25    59    1
55    26    27    1
56    27    33    ar
57    27    28    ar
58    28    29    ar
59    28    60    1
60    29    30    ar
61    29    61    1
62    30    31    ar
63    30    62    1
64    31    32    1
65    31    33    ar
66    32    63    1
67    33    64    1
68    34    65    1
69    34    66    1
@<TRIPOS>SUBSTRUCTURE
1   ZINC000034984673 1     RESIDUE    1   A     ZIN   1
