@<TRIPOS>MOLECULE
ZINC000072267022
81    86    1     0     0
SMALL
USER_CHARGES
@<TRIPOS>ATOM
1      C1     -1.3988    1.2622    1.0593 C.3      1 ZINC000072267022    0.0200
2      O2     -1.2620   -0.1470    0.8657 O.3      1 ZINC000072267022   -0.2800
3      C3     -0.6658   -0.5557   -0.2816 C.ar     1 ZINC000072267022    0.1600
4      C4     -0.2127    0.3803   -1.2068 C.ar     1 ZINC000072267022   -0.2000
5      C5      0.3936   -0.0310   -2.3764 C.ar     1 ZINC000072267022   -0.0700
6      C6      0.5611   -1.3796   -2.6475 C.ar     1 ZINC000072267022   -0.1100
7      C7      0.1172   -2.3310   -1.7368 C.ar     1 ZINC000072267022   -0.0800
8      C8     -0.4978   -1.9186   -0.5390 C.ar     1 ZINC000072267022   -0.1400
9      C9     -0.9681   -2.9295    0.4275 C.2      1 ZINC000072267022    0.4400
10     O10    -1.7146   -2.6135    1.3343 O.2      1 ZINC000072267022   -0.4200
11     C11    -0.5226   -4.3278    0.2805 C.ar     1 ZINC000072267022   -0.2800
12     C12    -0.6972   -5.2454    1.3122 C.ar     1 ZINC000072267022    0.3200
13     O13    -1.2838   -4.8528    2.4702 O.3      1 ZINC000072267022   -0.6500
14     C14    -0.2714   -6.5729    1.1626 C.ar     1 ZINC000072267022   -0.1900
15     C15     0.3212   -6.9780   -0.0064 C.ar     1 ZINC000072267022   -0.0200
16     C16     0.7916   -8.3924   -0.2298 C.3      1 ZINC000072267022   -0.0900
17     C17     0.9257   -9.1318    1.0994 C.3      1 ZINC000072267022    0.1100
18     O18     1.1638  -10.5197    0.8566 O.3      1 ZINC000072267022   -0.5400
19     C19     2.0694   -8.5512    1.8905 C.2      1 ZINC000072267022    0.3100
20     O20     2.4253   -7.4144    1.6918 O.2      1 ZINC000072267022   -0.3800
21     C21     2.7690   -9.3891    2.9295 C.3      1 ZINC000072267022    0.0300
22     O22     3.8097   -8.6220    3.5382 O.3      1 ZINC000072267022   -0.5500
23     C23    -0.3831   -8.9608    1.8800 C.3      1 ZINC000072267022   -0.1200
24     C24    -0.4886   -7.5046    2.3272 C.3      1 ZINC000072267022    0.1800
25     H25     0.2648   -7.3077    3.0900 H        1 ZINC000072267022    0.0600
26     O26    -1.7870   -7.2741    2.8776 O.3      1 ZINC000072267022   -0.3500
27     C27    -1.8477   -7.4065    4.2991 C.3      1 ZINC000072267022    0.2500
28     H28    -1.0192   -6.8608    4.7507 H        1 ZINC000072267022    0.1200
29     C29    -3.1735   -6.8355    4.8090 C.3      1 ZINC000072267022   -0.1500
30     C30    -4.3308   -7.6456    4.2169 C.3      1 ZINC000072267022    0.0100
31     H31    -4.3309   -7.5418    3.1318 H        1 ZINC000072267022    0.1600
32     N32    -5.6040   -7.1515    4.7580 N.4      1 ZINC000072267022   -0.6400
33     H33    -5.7116   -6.1753    4.5263 H        1 ZINC000072267022    0.4400
34     H34    -6.3663   -7.6780    4.3583 H        1 ZINC000072267022    0.4300
35     H35    -5.6085   -7.2616    5.7609 H        1 ZINC000072267022    0.4300
36     C36    -4.1510   -9.1202    4.5905 C.3      1 ZINC000072267022    0.0400
37     H37    -4.9401   -9.7123    4.1269 H        1 ZINC000072267022    0.1000
38     O38    -4.2174   -9.2645    6.0106 O.3      1 ZINC000072267022   -0.3500
39     C39    -5.4624   -9.7814    6.4847 C.3      1 ZINC000072267022    0.0900
40     C40    -5.4685   -9.7731    7.9917 C.ar     1 ZINC000072267022   -0.1000
41     C41    -5.0045  -10.8716    8.6908 C.ar     1 ZINC000072267022   -0.0900
42     C42    -5.0102  -10.8641   10.0731 C.ar     1 ZINC000072267022   -0.1200
43     C43    -5.4794   -9.7577   10.7563 C.ar     1 ZINC000072267022   -0.1000
44     C44    -5.9425   -8.6588   10.0572 C.ar     1 ZINC000072267022   -0.1200
45     C45    -5.9329   -8.6647    8.6749 C.ar     1 ZINC000072267022   -0.1100
46     C46    -2.7875   -9.6030    4.0891 C.3      1 ZINC000072267022    0.0900
47     H47    -2.7535   -9.5307    3.0020 H        1 ZINC000072267022    0.0900
48     C48    -2.5749  -11.0584    4.5105 C.3      1 ZINC000072267022   -0.1500
49     O49    -1.7578   -8.7881    4.6533 O.3      1 ZINC000072267022   -0.3700
50     C50     0.5075   -6.0649   -1.0537 C.ar     1 ZINC000072267022    0.0200
51     O51     1.0967   -6.4720   -2.2052 O.3      1 ZINC000072267022   -0.4800
52     C52     0.0913   -4.7431   -0.9199 C.ar     1 ZINC000072267022   -0.0900
53     C53     0.2902   -3.7741   -2.0115 C.2      1 ZINC000072267022    0.4400
54     O54     0.5889   -4.1556   -3.1266 O.2      1 ZINC000072267022   -0.4300
55     H55    -0.4125    1.7263    1.0603 H        1 ZINC000072267022    0.0600
56     H56    -1.9977    1.6835    0.2518 H        1 ZINC000072267022    0.0500
57     H57    -1.8906    1.4518    2.0134 H        1 ZINC000072267022    0.1000
58     H58    -0.3367    1.4346   -1.0084 H        1 ZINC000072267022    0.1400
59     H59     0.7402    0.7048   -3.0870 H        1 ZINC000072267022    0.1300
60     H60     1.0361   -1.6911   -3.5661 H        1 ZINC000072267022    0.1400
61     H61     0.0722   -8.9148   -0.8604 H        1 ZINC000072267022    0.0900
62     H62     1.7599   -8.3740   -0.7300 H        1 ZINC000072267022    0.0900
63     H63     1.9684  -10.6982    0.3507 H        1 ZINC000072267022    0.3800
64     H64     2.0522   -9.6973    3.6906 H        1 ZINC000072267022    0.0800
65     H65     3.1980  -10.2719    2.4556 H        1 ZINC000072267022    0.0800
66     H66     4.3037   -9.0995    4.2188 H        1 ZINC000072267022    0.3800
67     H67    -1.2284   -9.2103    1.2388 H        1 ZINC000072267022    0.0900
68     H68    -0.3781   -9.6136    2.7528 H        1 ZINC000072267022    0.0800
69     H69    -3.2032   -6.8993    5.8967 H        1 ZINC000072267022    0.1000
70     H70    -3.2635   -5.7936    4.5017 H        1 ZINC000072267022    0.1200
71     H71    -6.2782   -9.1603    6.1147 H        1 ZINC000072267022    0.0400
72     H72    -5.5919  -10.8026    6.1265 H        1 ZINC000072267022    0.0800
73     H73    -4.6380  -11.7360    8.1570 H        1 ZINC000072267022    0.1300
74     H74    -4.6483  -11.7226   10.6193 H        1 ZINC000072267022    0.1300
75     H75    -5.4844   -9.7521   11.8363 H        1 ZINC000072267022    0.1300
76     H76    -6.3094   -7.7946   10.5910 H        1 ZINC000072267022    0.1300
77     H77    -6.2947   -7.8061    8.1287 H        1 ZINC000072267022    0.1100
78     H78    -3.3123  -11.6911    4.0164 H        1 ZINC000072267022    0.0700
79     H79    -1.5726  -11.3769    4.2242 H        1 ZINC000072267022    0.0800
80     H80    -2.6885  -11.1440    5.5912 H        1 ZINC000072267022    0.0700
81     H81     0.4764   -6.8055   -2.8679 H        1 ZINC000072267022    0.3700
@<TRIPOS>BOND
1     1     2     1
2     1     55    1
3     1     56    1
4     1     57    1
5     2     3     1
6     3     8     ar
7     3     4     ar
8     4     5     ar
9     4     58    1
10    5     6     ar
11    5     59    1
12    6     7     ar
13    6     60    1
14    7     53    1
15    7     8     ar
16    8     9     1
17    9     10    2
18    9     11    1
19    11    52    ar
20    11    12    ar
21    12    13    1
22    12    14    ar
23    14    24    1
24    14    15    ar
25    15    16    1
26    15    50    ar
27    16    17    1
28    16    61    1
29    16    62    1
30    17    18    1
31    17    19    1
32    17    23    1
33    18    63    1
34    19    20    2
35    19    21    1
36    21    22    1
37    21    64    1
38    21    65    1
39    22    66    1
40    23    24    1
41    23    67    1
42    23    68    1
43    24    25    1
44    24    26    1
45    26    27    1
46    27    28    1
47    27    49    1
48    27    29    1
49    29    30    1
50    29    69    1
51    29    70    1
52    30    31    1
53    30    32    1
54    30    36    1
55    32    33    1
56    32    34    1
57    32    35    1
58    36    37    1
59    36    38    1
60    36    46    1
61    38    39    1
62    39    40    1
63    39    71    1
64    39    72    1
65    40    45    ar
66    40    41    ar
67    41    42    ar
68    41    73    1
69    42    43    ar
70    42    74    1
71    43    44    ar
72    43    75    1
73    44    45    ar
74    44    76    1
75    45    77    1
76    46    47    1
77    46    48    1
78    46    49    1
79    48    78    1
80    48    79    1
81    48    80    1
82    50    51    1
83    50    52    ar
84    51    81    1
85    52    53    1
86    53    54    2
@<TRIPOS>SUBSTRUCTURE
1   ZINC000072267022 1     RESIDUE    1   A     ZIN   1
