@<TRIPOS>MOLECULE
ZINC000005811797
  42   42    0    0    0
SMALL
USER_CHARGES
NO_NAME
@<TRIPOS>ATOM
    1 C1       -2.3352    -1.2245     4.3691 C.3    1 <0>      -0.1500
    2 C2       -3.2826    -1.9059     3.3796 C.3    1 <0>       0.0800
    3 C3       -4.6744    -1.2808     3.4931 C.3    1 <0>      -0.1700
    4 O4       -2.7810    -1.7284     2.0286 O.3    1 <0>      -0.3100
    5 C5       -3.0653    -2.6990     1.1379 C.2    1 <0>       0.5000
    6 S6       -3.9802    -4.0630     1.6211 S.2    1 <0>      -0.5700
    7 N7       -2.6295    -2.5959    -0.1332 N.am   1 <0>      -0.5900
    8 C8       -2.8622    -3.6368    -1.0395 C.ar   1 <0>       0.1000
    9 C9       -1.8517    -4.0466    -1.9010 C.ar   1 <0>      -0.0900
   10 C10      -2.0757    -5.0737    -2.7985 C.ar   1 <0>      -0.1100
   11 C11      -3.3057    -5.6999    -2.8452 C.ar   1 <0>       0.0000
   12 Cl12     -3.5816    -6.9893    -3.9744 Cl     1 <0>      -0.0500
   13 C13      -4.3282    -5.2951    -1.9826 C.ar   1 <0>      -0.0900
   14 C14      -5.6444    -5.9619    -2.0295 C.2    1 <0>       0.1500
   15 N15      -6.7053    -5.3262    -1.6510 N.2    1 <0>      -0.3100
   16 O16      -6.5885    -4.0526    -1.0432 O.3    1 <0>      -0.2200
   17 C17      -7.8277    -3.5154    -0.5766 C.3    1 <0>       0.1200
   18 C18      -8.3779    -4.4007     0.5434 C.3    1 <0>      -0.1700
   19 C19      -7.6010    -2.0996    -0.0428 C.3    1 <0>      -0.1400
   20 C20      -8.8311    -3.4707    -1.7308 C.3    1 <0>      -0.1700
   21 C21      -4.0988    -4.2621    -1.0734 C.ar   1 <0>      -0.0300
   22 H22      -2.7118    -1.3578     5.3832 H      1 <0>       0.0900
   23 H23      -1.3436    -1.6699     4.2882 H      1 <0>       0.0700
   24 H24      -2.2753    -0.1604     4.1407 H      1 <0>       0.0700
   25 H25      -3.3425    -2.9701     3.6081 H      1 <0>       0.1200
   26 H26      -5.3494    -1.7663     2.7882 H      1 <0>       0.0700
   27 H27      -5.0510    -1.4141     4.5073 H      1 <0>       0.0800
   28 H28      -4.6145    -0.2167     3.2647 H      1 <0>       0.0600
   29 H29      -2.1545    -1.8002    -0.4200 H      1 <0>       0.4200
   30 H30      -0.8878    -3.5605    -1.8693 H      1 <0>       0.1400
   31 H31      -1.2863    -5.3873    -3.4655 H      1 <0>       0.1500
   32 H32      -5.7215    -6.9806    -2.3799 H      1 <0>       0.1900
   33 H33      -7.6631    -4.4326     1.3657 H      1 <0>       0.0600
   34 H34      -9.3231    -3.9910     0.8993 H      1 <0>       0.0600
   35 H35      -8.5394    -5.4094     0.1631 H      1 <0>       0.0600
   36 H36      -7.2091    -1.4688    -0.8407 H      1 <0>       0.0600
   37 H37      -8.5463    -1.6898     0.3132 H      1 <0>       0.0800
   38 H38      -6.8862    -2.1314     0.7795 H      1 <0>       0.0600
   39 H39      -8.9926    -4.4793    -2.1111 H      1 <0>       0.0700
   40 H40      -9.7763    -3.0609    -1.3749 H      1 <0>       0.0600
   41 H41      -8.4391    -2.8399    -2.5287 H      1 <0>       0.0600
   42 H42      -4.8847    -3.9451    -0.4040 H      1 <0>       0.1900
@<TRIPOS>BOND
   1    1    2 1
   2    1   22 1
   3    1   23 1
   4    1   24 1
   5    2    3 1
   6    2    4 1
   7    2   25 1
   8    3   26 1
   9    3   27 1
  10    3   28 1
  11    4    5 1
  12    5    6 2
  13    5    7 am
  14    7    8 1
  15    7   29 1
  16    8   21 ar
  17    8    9 ar
  18    9   10 ar
  19    9   30 1
  20   10   11 ar
  21   10   31 1
  22   11   12 1
  23   11   13 ar
  24   13   14 1
  25   13   21 ar
  26   14   15 2
  27   14   32 1
  28   15   16 1
  29   16   17 1
  30   17   18 1
  31   17   19 1
  32   17   20 1
  33   18   33 1
  34   18   34 1
  35   18   35 1
  36   19   36 1
  37   19   37 1
  38   19   38 1
  39   20   39 1
  40   20   40 1
  41   20   41 1
  42   21   42 1
