@<TRIPOS>MOLECULE
ZINC000058631551
38    40    1     0     0
SMALL
USER_CHARGES
@<TRIPOS>ATOM
1      C1     -0.0184    1.5028    0.0103 C.3      1 ZINC000058631551   -0.0900
2      C2      0.0021   -0.0041    0.0020 C.2      1 ZINC000058631551    0.0900
3      C3      0.0079   -0.7942   -1.0955 C.2      1 ZINC000058631551   -0.2600
4      C4      0.0285   -2.1305   -0.6642 C.2      1 ZINC000058631551    0.3100
5      N5      0.0407   -3.2616   -1.4902 N.pl3    1 ZINC000058631551   -0.6100
6      C6      0.0326   -3.1134   -2.8688 C.ar     1 ZINC000058631551    0.5000
7      N7      0.0188   -1.9027   -3.4169 N.ar     1 ZINC000058631551   -0.5900
8      C8      0.0110   -1.7581   -4.7336 C.ar     1 ZINC000058631551    0.6100
9      N9     -0.0029   -0.4827   -5.2723 N.pl3    1 ZINC000058631551   -0.6800
10     C10    -0.0117   -0.3017   -6.7260 C.3      1 ZINC000058631551    0.2300
11     H11     0.5824   -1.0869   -7.1935 H        1 ZINC000058631551    0.1200
12     C12    -1.4507   -0.3761   -7.2405 C.3      1 ZINC000058631551   -0.1600
13     C13     0.5752    1.0435   -7.0682 C.ar     1 ZINC000058631551    0.3000
14     N14     0.2053    2.0998   -6.3724 N.ar     1 ZINC000058631551   -0.4900
15     C15     0.6986    3.2973   -6.6431 C.ar     1 ZINC000058631551    0.1300
16     C16     1.6169    3.4309   -7.6756 C.ar     1 ZINC000058631551    0.0000
17     F17     2.1434    4.6368   -7.9821 F        1 ZINC000058631551   -0.1100
18     C18     1.9811    2.2946   -8.3850 C.ar     1 ZINC000058631551    0.1300
19     N19     1.4482    1.1302   -8.0516 N.ar     1 ZINC000058631551   -0.4800
20     N20     0.0166   -2.8027   -5.5478 N.ar     1 ZINC000058631551   -0.5800
21     C21     0.0304   -4.0391   -5.0702 C.ar     1 ZINC000058631551    0.2400
22     C22     0.0447   -4.2350   -3.7027 C.ar     1 ZINC000058631551   -0.2500
23     Cl23    0.0635   -5.8375   -3.0353 Cl       1 ZINC000058631551   -0.0500
24     N24     0.0347   -2.1341    0.6481 N.2      1 ZINC000058631551   -0.3200
25     N25     0.0237   -0.8044    1.0886 N.pl3    1 ZINC000058631551   -0.4700
26     H26     1.0042    1.8801    0.0026 H        1 ZINC000058631551    0.0800
27     H27    -0.5455    1.8639   -0.8728 H        1 ZINC000058631551    0.0900
28     H28    -0.5286    1.8543    0.9071 H        1 ZINC000058631551    0.0700
29     H29    -0.0022   -0.4574   -2.1216 H        1 ZINC000058631551    0.1800
30     H30     0.0549   -4.1485   -1.0978 H        1 ZINC000058631551    0.4300
31     H31    -0.0068    0.2909   -4.6871 H        1 ZINC000058631551    0.4200
32     H32    -1.4572   -0.2413   -8.3221 H        1 ZINC000058631551    0.0700
33     H33    -1.8752   -1.3490   -6.9930 H        1 ZINC000058631551    0.0800
34     H34    -2.0448    0.4092   -6.7730 H        1 ZINC000058631551    0.0700
35     H35     0.3909    4.1588   -6.0691 H        1 ZINC000058631551    0.1900
36     H36     2.6924    2.3594   -9.1951 H        1 ZINC000058631551    0.1900
37     H37     0.0345   -4.8841   -5.7428 H        1 ZINC000058631551    0.1800
38     H38     0.0252   -0.5104    2.0129 H        1 ZINC000058631551    0.4400
@<TRIPOS>BOND
1     1     2     1
2     1     26    1
3     1     27    1
4     1     28    1
5     2     25    1
6     2     3     2
7     3     4     1
8     3     29    1
9     4     5     1
10    4     24    2
11    5     6     1
12    5     30    1
13    6     22    ar
14    6     7     ar
15    7     8     ar
16    8     9     1
17    8     20    ar
18    9     10    1
19    9     31    1
20    10    11    1
21    10    12    1
22    10    13    1
23    12    32    1
24    12    33    1
25    12    34    1
26    13    19    ar
27    13    14    ar
28    14    15    ar
29    15    16    ar
30    15    35    1
31    16    17    1
32    16    18    ar
33    18    19    ar
34    18    36    1
35    20    21    ar
36    21    22    ar
37    21    37    1
38    22    23    1
39    24    25    1
40    25    38    1
@<TRIPOS>SUBSTRUCTURE
1   ZINC000058631551 1     RESIDUE    1   A     ZIN   1
