@<TRIPOS>MOLECULE
ZINC000001999423
  52   55    0    0    0
SMALL
USER_CHARGES
NO_NAME
@<TRIPOS>ATOM
    1 O1        0.0021    -0.0041     0.0020 O.2    1 <0>      -0.5000
    2 C2       -0.0144     1.2081     0.0087 C.2    1 <0>       0.5200
    3 C3       -1.3373     1.9288     0.0314 C.3    1 <0>      -0.1300
    4 C4       -1.1616     3.2797     0.7233 C.3    1 <0>      -0.0700
    5 C5       -2.4720     4.0769     0.6688 C.3    1 <0>      -0.1100
    6 C6       -2.8942     4.3245     2.1329 C.3    1 <0>      -0.1300
    7 C7       -1.5721     4.2173     2.9333 C.3    1 <0>      -0.1200
    8 C8       -0.8252     3.0681     2.2100 C.3    1 <0>      -0.1200
    9 C9       -0.0402     4.0629     0.0422 C.3    1 <0>      -0.1300
   10 C10       1.2090     3.2209     0.0192 C.2    1 <0>       0.5200
   11 O11       2.2925     3.7647     0.0221 O.2    1 <0>      -0.4900
   12 N12       1.1454     1.8815     0.0012 N.am   1 <0>      -0.5600
   13 C13       2.3969     1.1210    -0.0398 C.3    1 <0>       0.0900
   14 C14       2.8671     0.8353     1.3878 C.3    1 <0>       0.0500
   15 N15       4.1220     0.0727     1.3467 N.3    1 <0>      -0.6800
   16 C16       4.6046    -0.2205     2.7028 C.3    1 <0>       0.0700
   17 C17       5.9101    -1.0139     2.6191 C.3    1 <0>       0.0600
   18 H18       5.7597    -1.9060     2.0113 H      1 <0>       0.0800
   19 C19       6.3611    -1.4183     4.0292 C.3    1 <0>       0.0300
   20 O20       7.5895    -2.1452     3.9157 O.3    1 <0>      -0.3100
   21 C21       8.5425    -1.6122     3.1032 C.ar   1 <0>       0.0400
   22 C22       9.8551    -2.0437     3.2196 C.ar   1 <0>      -0.1100
   23 C23      10.8335    -1.5141     2.3991 C.ar   1 <0>      -0.1200
   24 C24      10.5063    -0.5540     1.4604 C.ar   1 <0>      -0.1100
   25 C25       9.1999    -0.1183     1.3402 C.ar   1 <0>      -0.1100
   26 C26       8.2140    -0.6439     2.1614 C.ar   1 <0>       0.0500
   27 O27       6.9334    -0.1995     2.0363 O.3    1 <0>      -0.2900
   28 H28      -1.6844     2.0851    -0.9899 H      1 <0>       0.1100
   29 H29      -2.0677     1.3321     0.5778 H      1 <0>       0.1200
   30 H30      -2.3105     5.0275     0.1604 H      1 <0>       0.0800
   31 H31      -3.2388     3.5010     0.1508 H      1 <0>       0.0800
   32 H32      -3.3267     5.3190     2.2422 H      1 <0>       0.0700
   33 H33      -3.6011     3.5620     2.4601 H      1 <0>       0.0700
   34 H34      -1.0057     5.1464     2.8694 H      1 <0>       0.0700
   35 H35      -1.7701     3.9552     3.9726 H      1 <0>       0.0700
   36 H36      -1.1926     2.1000     2.5505 H      1 <0>       0.0700
   37 H37       0.2495     3.1487     2.3735 H      1 <0>       0.0600
   38 H38      -0.3341     4.3063    -0.9788 H      1 <0>       0.1100
   39 H39       0.1503     4.9821     0.5961 H      1 <0>       0.1200
   40 H40       2.2328     0.1793    -0.5637 H      1 <0>       0.0900
   41 H41       3.1571     1.7005    -0.5636 H      1 <0>       0.1100
   42 H42       3.0312     1.7770     1.9116 H      1 <0>       0.0800
   43 H43       2.1069     0.2558     1.9116 H      1 <0>       0.0400
   44 H44       4.0126    -0.7751     0.8106 H      1 <0>       0.3500
   45 H45       4.7807     0.7138     3.2357 H      1 <0>       0.0900
   46 H46       3.8564    -0.8073     3.2357 H      1 <0>       0.0600
   47 H47       6.5167    -0.5260     4.6354 H      1 <0>       0.0800
   48 H48       5.6019    -2.0494     4.4911 H      1 <0>       0.1200
   49 H49      10.1133    -2.7940     3.9522 H      1 <0>       0.1300
   50 H50      11.8553    -1.8515     2.4916 H      1 <0>       0.1300
   51 H51      11.2727    -0.1430     0.8199 H      1 <0>       0.1300
   52 H52       8.9468     0.6321     0.6057 H      1 <0>       0.1400
@<TRIPOS>BOND
   1    1    2 2
   2    2   12 am
   3    2    3 1
   4    3    4 1
   5    3   28 1
   6    3   29 1
   7    4    8 1
   8    4    5 1
   9    4    9 1
  10    5    6 1
  11    5   30 1
  12    5   31 1
  13    6    7 1
  14    6   32 1
  15    6   33 1
  16    7    8 1
  17    7   34 1
  18    7   35 1
  19    8   36 1
  20    8   37 1
  21    9   10 1
  22    9   38 1
  23    9   39 1
  24   10   11 2
  25   10   12 am
  26   12   13 1
  27   13   14 1
  28   13   40 1
  29   13   41 1
  30   14   15 1
  31   14   42 1
  32   14   43 1
  33   15   16 1
  34   15   44 1
  35   16   17 1
  36   16   45 1
  37   16   46 1
  38   17   18 1
  39   17   27 1
  40   17   19 1
  41   19   20 1
  42   19   47 1
  43   19   48 1
  44   20   21 1
  45   21   26 ar
  46   21   22 ar
  47   22   23 ar
  48   22   49 1
  49   23   24 ar
  50   23   50 1
  51   24   25 ar
  52   24   51 1
  53   25   26 ar
  54   25   52 1
  55   26   27 1
