@<TRIPOS>MOLECULE
ZINC000095749871
67    71    1     0     0
SMALL
USER_CHARGES
@<TRIPOS>ATOM
1      C1     -0.0028    1.3946    0.9871 C.3      1 ZINC000095749871    0.0200
2      O2      0.0760   -0.0225    0.8211 O.3      1 ZINC000095749871   -0.2800
3      C3     -1.0764   -0.7236    0.9595 C.ar     1 ZINC000095749871    0.1600
4      C4     -2.2677   -0.0628    1.2448 C.ar     1 ZINC000095749871   -0.2000
5      C5     -3.4429   -0.7722    1.3878 C.ar     1 ZINC000095749871   -0.0800
6      C6     -3.4556   -2.1509    1.2493 C.ar     1 ZINC000095749871   -0.1100
7      C7     -2.2775   -2.8306    0.9632 C.ar     1 ZINC000095749871   -0.0800
8      C8     -1.0757   -2.1129    0.8109 C.ar     1 ZINC000095749871   -0.1400
9      C9      0.1744   -2.8354    0.5066 C.2      1 ZINC000095749871    0.4300
10     O10     1.2499   -2.2784    0.6179 O.2      1 ZINC000095749871   -0.4200
11     C11     0.1041   -4.2413    0.0664 C.ar     1 ZINC000095749871   -0.2900
12     C12     1.2088   -4.8678   -0.5027 C.ar     1 ZINC000095749871    0.3200
13     O13     2.3674   -4.1800   -0.6571 O.3      1 ZINC000095749871   -0.6300
14     C14     1.1325   -6.2051   -0.9172 C.ar     1 ZINC000095749871   -0.1800
15     C15    -0.0353   -6.9079   -0.7628 C.ar     1 ZINC000095749871   -0.0200
16     C16    -0.1761   -8.3492   -1.1805 C.3      1 ZINC000095749871   -0.0900
17     C17     0.9371   -8.7403   -2.1498 C.3      1 ZINC000095749871    0.1000
18     O18     0.9131  -10.1527   -2.3662 O.3      1 ZINC000095749871   -0.5400
19     C19     0.7446   -8.0224   -3.4607 C.2      1 ZINC000095749871    0.3200
20     C20     1.3156   -8.6030   -4.7288 C.3      1 ZINC000095749871   -0.2000
21     O21     0.1328   -6.9818   -3.4951 O.2      1 ZINC000095749871   -0.4100
22     C22     2.2799   -8.3352   -1.5300 C.3      1 ZINC000095749871   -0.1200
23     C23     2.3687   -6.8108   -1.5310 C.3      1 ZINC000095749871    0.1700
24     H24     2.4700   -6.4577   -2.5572 H        1 ZINC000095749871    0.0700
25     O25     3.5139   -6.4054   -0.7785 O.3      1 ZINC000095749871   -0.3100
26     C26     4.7001   -6.2550   -1.5610 C.3      1 ZINC000095749871    0.2600
27     H27     4.8549   -7.1509   -2.1623 H        1 ZINC000095749871    0.0500
28     C28     5.9006   -6.0487   -0.6337 C.3      1 ZINC000095749871   -0.1700
29     C29     7.1579   -5.8284   -1.4805 C.3      1 ZINC000095749871    0.0400
30     H30     7.3585   -6.7201   -2.0743 H        1 ZINC000095749871    0.1500
31     N31     8.3020   -5.5567   -0.6000 N.4      1 ZINC000095749871   -0.6300
32     H32     8.4459   -6.3423    0.0166 H        1 ZINC000095749871    0.4400
33     H33     9.1295   -5.4117   -1.1588 H        1 ZINC000095749871    0.4400
34     H34     8.1164   -4.7294   -0.0529 H        1 ZINC000095749871    0.4400
35     C35     6.9303   -4.6334   -2.4113 C.3      1 ZINC000095749871    0.0500
36     H36     6.7788   -3.7323   -1.8170 H        1 ZINC000095749871    0.1000
37     O37     8.0700   -4.4622   -3.2562 O.3      1 ZINC000095749871   -0.5700
38     C38     5.6899   -4.8943   -3.2699 C.3      1 ZINC000095749871    0.0700
39     H39     5.8578   -5.7723   -3.8937 H        1 ZINC000095749871    0.0700
40     C40     5.4210   -3.6796   -4.1604 C.3      1 ZINC000095749871   -0.1500
41     O41     4.5633   -5.1218   -2.4207 O.3      1 ZINC000095749871   -0.3500
42     C42    -1.1582   -6.2900   -0.1946 C.ar     1 ZINC000095749871    0.0200
43     O43    -2.3101   -6.9904   -0.0479 O.3      1 ZINC000095749871   -0.4800
44     C44    -1.0986   -4.9626    0.2206 C.ar     1 ZINC000095749871   -0.0900
45     C45    -2.2754   -4.3020    0.8112 C.2      1 ZINC000095749871    0.4400
46     O46    -3.2327   -4.9583    1.1735 O.2      1 ZINC000095749871   -0.4400
47     H47     0.9862    1.8320    0.8508 H        1 ZINC000095749871    0.1000
48     H48    -0.6885    1.8094    0.2483 H        1 ZINC000095749871    0.0500
49     H49    -0.3663    1.6234    1.9890 H        1 ZINC000095749871    0.0500
50     H50    -2.2725    1.0116    1.3552 H        1 ZINC000095749871    0.1300
51     H51    -4.3607   -0.2482    1.6099 H        1 ZINC000095749871    0.1300
52     H52    -4.3803   -2.6970    1.3639 H        1 ZINC000095749871    0.1400
53     H53    -0.1236   -8.9859   -0.2974 H        1 ZINC000095749871    0.0900
54     H54    -1.1415   -8.4896   -1.6668 H        1 ZINC000095749871    0.0800
55     H55     0.0836  -10.4791   -2.7408 H        1 ZINC000095749871    0.3800
56     H56     1.8297   -9.5369   -4.5014 H        1 ZINC000095749871    0.0900
57     H57     0.5087   -8.7952   -5.4359 H        1 ZINC000095749871    0.0900
58     H58     2.0215   -7.8969   -5.1660 H        1 ZINC000095749871    0.0900
59     H59     2.3388   -8.7059   -0.5067 H        1 ZINC000095749871    0.0900
60     H60     3.0969   -8.7511   -2.1195 H        1 ZINC000095749871    0.0700
61     H61     5.7284   -5.1763   -0.0035 H        1 ZINC000095749871    0.1200
62     H62     6.0332   -6.9311   -0.0076 H        1 ZINC000095749871    0.1100
63     H63     7.9946   -3.7214   -3.8731 H        1 ZINC000095749871    0.4100
64     H64     6.3085   -3.4607   -4.7542 H        1 ZINC000095749871    0.0700
65     H65     4.5835   -3.8940   -4.8243 H        1 ZINC000095749871    0.0800
66     H66     5.1794   -2.8186   -3.5372 H        1 ZINC000095749871    0.0800
67     H67    -2.3827   -7.4557    0.7967 H        1 ZINC000095749871    0.3700
@<TRIPOS>BOND
1     1     2     1
2     1     47    1
3     1     48    1
4     1     49    1
5     2     3     1
6     3     8     ar
7     3     4     ar
8     4     5     ar
9     4     50    1
10    5     6     ar
11    5     51    1
12    6     7     ar
13    6     52    1
14    7     45    1
15    7     8     ar
16    8     9     1
17    9     10    2
18    9     11    1
19    11    44    ar
20    11    12    ar
21    12    13    1
22    12    14    ar
23    14    23    1
24    14    15    ar
25    15    16    1
26    15    42    ar
27    16    17    1
28    16    53    1
29    16    54    1
30    17    18    1
31    17    19    1
32    17    22    1
33    18    55    1
34    19    20    1
35    19    21    2
36    20    56    1
37    20    57    1
38    20    58    1
39    22    23    1
40    22    59    1
41    22    60    1
42    23    24    1
43    23    25    1
44    25    26    1
45    26    27    1
46    26    41    1
47    26    28    1
48    28    29    1
49    28    61    1
50    28    62    1
51    29    30    1
52    29    31    1
53    29    35    1
54    31    32    1
55    31    33    1
56    31    34    1
57    35    36    1
58    35    37    1
59    35    38    1
60    37    63    1
61    38    39    1
62    38    40    1
63    38    41    1
64    40    64    1
65    40    65    1
66    40    66    1
67    42    43    1
68    42    44    ar
69    43    67    1
70    44    45    1
71    45    46    2
@<TRIPOS>SUBSTRUCTURE
1   ZINC000095749871 1     RESIDUE    1   A     ZIN   1
