@<TRIPOS>MOLECULE
ZINC000000000542
32    33    1     0     0
SMALL
USER_CHARGES
@<TRIPOS>ATOM
1      C1     -0.1508    1.4783    0.0619 C.3      1 ZINC000000000542   -0.1500
2      C2      0.1700   -0.0110   -0.0791 C.3      1 ZINC000000000542    0.1700
3      H3      0.7715   -0.1699   -0.9741 H        1 ZINC000000000542    0.1200
4      C4     -1.1347   -0.8056   -0.1933 C.3      1 ZINC000000000542   -0.6300
5      S5     -0.7396   -2.5750   -0.3083 S.o2     1 ZINC000000000542    2.4200
6      O6     -1.9433   -3.3189   -0.1778 O.2      1 ZINC000000000542   -0.9200
7      O7      0.0865   -2.7833   -1.4457 O.2      1 ZINC000000000542   -0.9200
8      C8      0.2587   -2.8178    1.1899 C.3      1 ZINC000000000542   -0.6300
9      C9      1.4304   -1.8312    1.1721 C.3      1 ZINC000000000542    0.0700
10     N10     0.9161   -0.4628    1.0965 N.pl3    1 ZINC000000000542   -0.4400
11     N11     1.1223    0.3525    2.0747 N.2      1 ZINC000000000542   -0.1200
12     C12     1.6833   -0.0911    3.2118 C.2      1 ZINC000000000542   -0.0600
13     C13     2.0290    0.8009    4.2027 C.2      1 ZINC000000000542    0.1700
14     C14     2.6548    0.4773    5.4993 C.2      1 ZINC000000000542   -0.2000
15     C15     2.8098    1.6679    6.1464 C.2      1 ZINC000000000542   -0.0400
16     C16     2.3153    2.6725    5.3142 C.2      1 ZINC000000000542    0.0000
17     N17     2.2984    4.1150    5.6451 N.pl3    1 ZINC000000000542    0.0400
18     O18     2.7747    4.5314    6.8001 O.2      1 ZINC000000000542   -0.1800
19     O19     1.8069    4.9823    4.7844 O.2      1 ZINC000000000542   -0.1800
20     O20     1.8656    2.1444    4.1729 O.3      1 ZINC000000000542   -0.1200
21     H21     0.7775    2.0438    0.1429 H        1 ZINC000000000542    0.0800
22     H22    -0.7061    1.8149   -0.8136 H        1 ZINC000000000542    0.0800
23     H23    -0.7523    1.6373    0.9569 H        1 ZINC000000000542    0.0700
24     H24    -1.7499   -0.6256    0.6883 H        1 ZINC000000000542    0.1400
25     H25    -1.6749   -0.4935   -1.0871 H        1 ZINC000000000542    0.1600
26     H26    -0.3565   -2.6377    2.0715 H        1 ZINC000000000542    0.1400
27     H27     0.6412   -3.8382    1.2122 H        1 ZINC000000000542    0.1600
28     H28     2.0180   -1.9486    2.0827 H        1 ZINC000000000542    0.1200
29     H29     2.0604   -2.0310    0.3053 H        1 ZINC000000000542    0.1200
30     H30     1.8633   -1.1471    3.3490 H        1 ZINC000000000542    0.1700
31     H31     2.9326   -0.5014    5.8617 H        1 ZINC000000000542    0.1900
32     H32     3.2383    1.8079    7.1278 H        1 ZINC000000000542    0.1800
@<TRIPOS>BOND
1     1     2     1
2     1     21    1
3     1     22    1
4     1     23    1
5     2     3     1
6     2     10    1
7     2     4     1
8     4     5     1
9     4     24    1
10    4     25    1
11    5     6     2
12    5     7     2
13    5     8     1
14    8     9     1
15    8     26    1
16    8     27    1
17    9     10    1
18    9     28    1
19    9     29    1
20    10    11    1
21    11    12    2
22    12    13    1
23    12    30    1
24    13    20    1
25    13    14    2
26    14    15    1
27    14    31    1
28    15    16    2
29    15    32    1
30    16    17    1
31    16    20    1
32    17    18    2
33    17    19    2
@<TRIPOS>SUBSTRUCTURE
1   ZINC000000000542 1     RESIDUE    1   A     ZIN   1
