@<TRIPOS>MOLECULE
ZINC000001078595
  28   29    0    0    0
SMALL
USER_CHARGES
NO_NAME
@<TRIPOS>ATOM
    1 O1        0.0021    -0.0041     0.0020 O.2    1 <0>      -0.4800
    2 C2       -0.0144     1.2129     0.0087 C.2    1 <0>       0.5200
    3 C3       -1.2883     1.9376     0.0309 C.2    1 <0>       0.0600
    4 N4       -1.2751     3.2416     0.0376 N.2    1 <0>      -0.1700
    5 N5       -0.0543     3.9266     0.0236 N.am   1 <0>      -0.4300
    6 C6       -0.0474     5.3916     0.0312 C.3    1 <0>       0.3400
    7 H7        0.9396     5.7710    -0.2331 H      1 <0>       0.1400
    8 O8       -0.4571     5.8952     1.3208 O.3    1 <0>      -0.3500
    9 C9       -0.9117     7.2440     1.1195 C.3    1 <0>       0.0900
   10 H10      -0.0900     7.9407     1.2853 H      1 <0>       0.1000
   11 C11      -2.0596     7.5552     2.0820 C.3    1 <0>       0.0800
   12 O12      -1.5694     7.5539     3.4243 O.3    1 <0>      -0.5600
   13 C13      -1.4021     7.3494    -0.3375 C.3    1 <0>       0.0500
   14 H14      -2.4687     7.5726    -0.3659 H      1 <0>       0.0900
   15 O15      -0.6642     8.3497    -1.0425 O.3    1 <0>      -0.5400
   16 C16      -1.1230     5.9475    -0.9365 C.3    1 <0>       0.0400
   17 H17      -2.0202     5.3290    -0.9135 H      1 <0>       0.1000
   18 O18      -0.6138     6.0538    -2.2675 O.3    1 <0>      -0.5400
   19 C19       1.1122     3.2577     0.0037 C.2    1 <0>       0.6900
   20 O20       2.1580     3.8779    -0.0073 O.2    1 <0>      -0.5200
   21 N21       1.1396     1.9117     0.0014 N.am   1 <0>      -0.6600
   22 H22      -2.2245     1.3993     0.0412 H      1 <0>       0.2300
   23 H23      -2.4746     8.5355     1.8476 H      1 <0>       0.0700
   24 H24      -2.8363     6.7975     1.9781 H      1 <0>       0.0600
   25 H25      -2.2446     7.7444     4.0898 H      1 <0>       0.3900
   26 H26      -0.9317     8.4584    -1.9654 H      1 <0>       0.3900
   27 H27      -1.2213     6.4788    -2.8883 H      1 <0>       0.3900
   28 H28       1.9894     1.4441    -0.0127 H      1 <0>       0.4400
@<TRIPOS>BOND
   1    1    2 2
   2    2   21 am
   3    2    3 1
   4    3    4 2
   5    3   22 1
   6    4    5 1
   7    5    6 1
   8    5   19 am
   9    6    7 1
  10    6   16 1
  11    6    8 1
  12    8    9 1
  13    9   10 1
  14    9   11 1
  15    9   13 1
  16   11   12 1
  17   11   23 1
  18   11   24 1
  19   12   25 1
  20   13   14 1
  21   13   15 1
  22   13   16 1
  23   15   26 1
  24   16   17 1
  25   16   18 1
  26   18   27 1
  27   19   20 2
  28   19   21 am
  29   21   28 1
