@<TRIPOS>MOLECULE
ZINC000005353311
  51   52    0    0    0
SMALL
USER_CHARGES
NO_NAME
@<TRIPOS>ATOM
    1 C1       -0.0173     1.4248     0.0099 C.3    1 <0>       0.0300
    2 O2        0.0021    -0.0041     0.0020 O.3    1 <0>      -0.2700
    3 C3        0.6045    -0.6058    -1.0535 C.2    1 <0>       0.3600
    4 N4        1.1748    -0.0076    -2.0628 N.2    1 <0>      -0.4100
    5 O5        1.6192    -0.8277    -2.8381 O.3    1 <0>       0.1000
    6 C6        1.3701    -2.0615    -2.3888 C.2    1 <0>       0.2000
    7 C7        1.7572    -3.3544    -3.0593 C.3    1 <0>       0.1600
    8 O8        0.7078    -3.7691    -3.9361 O.3    1 <0>      -0.3000
    9 C9        0.8991    -4.9266    -4.6238 C.ar   1 <0>       0.1100
   10 C10       2.0682    -5.6499    -4.4539 C.ar   1 <0>      -0.1700
   11 C11       2.2610    -6.8270    -5.1536 C.ar   1 <0>      -0.1000
   12 C12       1.2894    -7.2843    -6.0236 C.ar   1 <0>      -0.1100
   13 C13       0.1202    -6.5669    -6.1983 C.ar   1 <0>      -0.1700
   14 C14      -0.0819    -5.3902    -5.4958 C.ar   1 <0>       0.1000
   15 O15      -1.2312    -4.6835    -5.6663 O.3    1 <0>      -0.2900
   16 C16      -2.1879    -5.2130    -6.5863 C.3    1 <0>       0.0300
   17 C17      -3.4055    -4.2883    -6.6445 C.3    1 <0>       0.0900
   18 H18      -3.0819    -3.2764    -6.8883 H      1 <0>       0.1300
   19 O19      -4.0626    -4.2855    -5.3756 O.3    1 <0>      -0.5400
   20 C20      -4.3737    -4.7869    -7.7192 C.3    1 <0>      -0.0500
   21 N21      -5.4835    -3.8346    -7.8583 N.4    1 <0>      -0.5000
   22 H22      -5.9702    -3.7544    -6.9781 H      1 <0>       0.4300
   23 H23      -5.1205    -2.9318    -8.1254 H      1 <0>       0.4300
   24 C24      -6.4131    -4.3134    -8.8901 C.3    1 <0>       0.0600
   25 C25      -6.9635    -5.6823    -8.4851 C.3    1 <0>      -0.1800
   26 C26      -7.5690    -3.3215    -9.0350 C.3    1 <0>      -0.1800
   27 C27      -5.6750    -4.4349   -10.2248 C.3    1 <0>      -0.1800
   28 N28       0.7304    -1.9341    -1.2518 N.2    1 <0>      -0.4500
   29 H29       1.0053     1.8021     0.0021 H      1 <0>       0.0700
   30 H30      -0.5445     1.7859    -0.8732 H      1 <0>       0.0600
   31 H31      -0.5275     1.7763     0.9067 H      1 <0>       0.1200
   32 H32       2.6725    -3.2067    -3.6324 H      1 <0>       0.1100
   33 H33       1.9223    -4.1210    -2.3022 H      1 <0>       0.1200
   34 H34       2.8294    -5.2943    -3.7752 H      1 <0>       0.1400
   35 H35       3.1730    -7.3899    -5.0202 H      1 <0>       0.1400
   36 H36       1.4438    -8.2039    -6.5686 H      1 <0>       0.1300
   37 H37      -0.6372    -6.9261    -6.8793 H      1 <0>       0.1300
   38 H38      -1.7385    -5.2847    -7.5768 H      1 <0>       0.0800
   39 H39      -2.4997    -6.2039    -6.2562 H      1 <0>       0.0800
   40 H40      -4.3780    -5.1552    -5.0941 H      1 <0>       0.3900
   41 H41      -3.8478    -4.8735    -8.6700 H      1 <0>       0.1500
   42 H42      -4.7658    -5.7622    -7.4307 H      1 <0>       0.1400
   43 H43      -7.4893    -5.5957    -7.5343 H      1 <0>       0.0800
   44 H44      -7.6532    -6.0375    -9.2507 H      1 <0>       0.1100
   45 H45      -6.1400    -6.3889    -8.3819 H      1 <0>       0.0800
   46 H46      -7.1769    -2.3462    -9.3235 H      1 <0>       0.0800
   47 H47      -8.2587    -3.6767    -9.8006 H      1 <0>       0.1100
   48 H48      -8.0948    -3.2349    -8.0842 H      1 <0>       0.0800
   49 H49      -4.8515    -5.1416   -10.1215 H      1 <0>       0.0800
   50 H50      -6.3648    -4.7902   -10.9904 H      1 <0>       0.1100
   51 H51      -5.2829    -3.4597   -10.5133 H      1 <0>       0.0800
@<TRIPOS>BOND
   1    1    2 1
   2    1   29 1
   3    1   30 1
   4    1   31 1
   5    2    3 1
   6    3   28 1
   7    3    4 2
   8    4    5 1
   9    5    6 1
  10    6    7 1
  11    6   28 2
  12    7    8 1
  13    7   32 1
  14    7   33 1
  15    8    9 1
  16    9   14 ar
  17    9   10 ar
  18   10   11 ar
  19   10   34 1
  20   11   12 ar
  21   11   35 1
  22   12   13 ar
  23   12   36 1
  24   13   14 ar
  25   13   37 1
  26   14   15 1
  27   15   16 1
  28   16   17 1
  29   16   38 1
  30   16   39 1
  31   17   18 1
  32   17   19 1
  33   17   20 1
  34   19   40 1
  35   20   21 1
  36   20   41 1
  37   20   42 1
  38   21   22 1
  39   21   23 1
  40   21   24 1
  41   24   25 1
  42   24   26 1
  43   24   27 1
  44   25   43 1
  45   25   44 1
  46   25   45 1
  47   26   46 1
  48   26   47 1
  49   26   48 1
  50   27   49 1
  51   27   50 1
  52   27   51 1
