@<TRIPOS>MOLECULE
ZINC000068246816
71    75    1     0     0
SMALL
USER_CHARGES
@<TRIPOS>ATOM
1      C1     -0.1090    1.8956   -0.2505 C.3      1 ZINC000068246816   -0.0500
2      N2      0.1631    0.4576   -0.1230 N.4      1 ZINC000068246816   -0.3700
3      H3      0.6035    0.1226   -0.9667 H        1 ZINC000068246816    0.4300
4      C4      1.0564    0.2278    1.0203 C.3      1 ZINC000068246816   -0.0500
5      C5     -1.0995   -0.2626    0.0896 C.3      1 ZINC000068246816    0.0400
6      H6     -1.6176    0.1767    0.9421 H        1 ZINC000068246816    0.1400
7      C7     -0.7949   -1.6990    0.3930 C.2      1 ZINC000068246816    0.3000
8      O8     -0.4146   -2.0321    1.6353 O.3      1 ZINC000068246816   -0.5900
9      C9     -0.8924   -2.6847   -0.5572 C.2      1 ZINC000068246816   -0.4800
10     C10    -0.5506   -4.0731   -0.2092 C.2      1 ZINC000068246816    0.5900
11     N11    -0.5281   -5.0217   -1.1664 N.am     1 ZINC000068246816   -0.8700
12     O12    -0.2883   -4.3646    0.9422 O.2      1 ZINC000068246816   -0.5600
13     C13    -1.3345   -2.3625   -1.9130 C.2      1 ZINC000068246816    0.3900
14     O14    -1.6282   -3.2447   -2.6933 O.2      1 ZINC000068246816   -0.4800
15     C15    -1.4201   -0.9052   -2.3266 C.3      1 ZINC000068246816    0.0600
16     O16    -0.1285   -0.4184   -2.6965 O.3      1 ZINC000068246816   -0.5600
17     C17    -2.3836   -0.8159   -3.4802 C.2      1 ZINC000068246816    0.3900
18     O18    -1.9917   -1.1387   -4.5851 O.2      1 ZINC000068246816   -0.4900
19     C19    -3.6974   -0.3841   -3.3472 C.2      1 ZINC000068246816   -0.4800
20     C20    -4.4962   -0.3108   -4.4752 C.2      1 ZINC000068246816    0.3400
21     O21    -3.9786   -0.5715   -5.6954 O.3      1 ZINC000068246816   -0.5900
22     C22    -5.9143    0.0531   -4.3325 C.ar     1 ZINC000068246816   -0.0500
23     C23    -6.6630    0.4527   -5.4454 C.ar     1 ZINC000068246816    0.1200
24     O24    -6.0890    0.4987   -6.6751 O.3      1 ZINC000068246816   -0.4700
25     C25    -8.0016    0.8026   -5.2824 C.ar     1 ZINC000068246816    0.1000
26     N26    -8.7605    1.2036   -6.3901 N.am     1 ZINC000068246816   -0.6300
27     C27   -10.0991    1.0464   -6.3825 C.2      1 ZINC000068246816    0.4900
28     O28   -10.6541    0.6206   -5.3916 O.2      1 ZINC000068246816   -0.5200
29     C29   -10.9062    1.3998   -7.6051 C.3      1 ZINC000068246816   -0.0200
30     N30   -12.3285    1.1406   -7.3446 N.4      1 ZINC000068246816   -0.3800
31     H31   -12.4580    0.1896   -7.0333 H        1 ZINC000068246816    0.4300
32     C32   -12.8431    2.0884   -6.3233 C.3      1 ZINC000068246816   -0.0100
33     C33   -14.3723    2.0822   -6.5726 C.3      1 ZINC000068246816   -0.1400
34     C34   -14.4713    1.9857   -8.1123 C.3      1 ZINC000068246816   -0.1400
35     C35   -13.1244    1.3903   -8.5660 C.3      1 ZINC000068246816   -0.0100
36     C36    -8.5835    0.7538   -4.0251 C.ar     1 ZINC000068246816   -0.1500
37     C37    -7.8414    0.3536   -2.9230 C.ar     1 ZINC000068246816    0.0900
38     F38    -8.4186    0.3089   -1.7024 F        1 ZINC000068246816   -0.1300
39     C39    -6.5169    0.0015   -3.0703 C.ar     1 ZINC000068246816   -0.0700
40     C40    -5.7110   -0.4552   -1.8808 C.3      1 ZINC000068246816   -0.0800
41     C41    -4.2727    0.0372   -2.0217 C.3      1 ZINC000068246816    0.0100
42     H42    -4.2667    1.1263   -1.9761 H        1 ZINC000068246816    0.0500
43     C43    -3.4149   -0.5110   -0.8791 C.3      1 ZINC000068246816   -0.1000
44     C44    -1.9664   -0.1102   -1.1446 C.3      1 ZINC000068246816   -0.0800
45     H45    -1.9555    0.9448   -1.4185 H        1 ZINC000068246816    0.0900
46     H46     0.8335    2.4395   -0.3134 H        1 ZINC000068246816    0.1200
47     H47    -0.6936    2.0762   -1.1525 H        1 ZINC000068246816    0.1200
48     H48    -0.6687    2.2380    0.6199 H        1 ZINC000068246816    0.1100
49     H49     0.5806    0.5898    1.9317 H        1 ZINC000068246816    0.1100
50     H50     1.2583   -0.8392    1.1149 H        1 ZINC000068246816    0.1400
51     H51     1.9932    0.7622    0.8625 H        1 ZINC000068246816    0.1100
52     H52    -0.8045   -4.8050   -2.0705 H        1 ZINC000068246816    0.4000
53     H53    -0.2356   -5.9211   -0.9510 H        1 ZINC000068246816    0.3800
54     H54     0.2742   -0.8940   -3.4360 H        1 ZINC000068246816    0.4000
55     H55    -6.1596   -0.3271   -7.1732 H        1 ZINC000068246816    0.3900
56     H56    -8.3224    1.5943   -7.1623 H        1 ZINC000068246816    0.4200
57     H57   -10.7663    2.4548   -7.8404 H        1 ZINC000068246816    0.1600
58     H58   -10.5745    0.7925   -8.4474 H        1 ZINC000068246816    0.1600
59     H59   -12.6156    1.7322   -5.3186 H        1 ZINC000068246816    0.1500
60     H60   -12.4316    3.0853   -6.4816 H        1 ZINC000068246816    0.1300
61     H61   -14.8364    1.2158   -6.1012 H        1 ZINC000068246816    0.1000
62     H62   -14.8253    3.0065   -6.2141 H        1 ZINC000068246816    0.1200
63     H63   -15.2908    1.3264   -8.3982 H        1 ZINC000068246816    0.1100
64     H64   -14.6128    2.9761   -8.5451 H        1 ZINC000068246816    0.1000
65     H65   -12.6030    2.0989   -9.2095 H        1 ZINC000068246816    0.1300
66     H66   -13.2929    0.4547   -9.0992 H        1 ZINC000068246816    0.1300
67     H67    -9.6208    1.0286   -3.9026 H        1 ZINC000068246816    0.1600
68     H68    -6.1472   -0.0483   -0.9685 H        1 ZINC000068246816    0.0800
69     H69    -5.7189   -1.5441   -1.8330 H        1 ZINC000068246816    0.0900
70     H70    -3.7482   -0.0873    0.0683 H        1 ZINC000068246816    0.0700
71     H71    -3.4951   -1.5976   -0.8464 H        1 ZINC000068246816    0.0800
@<TRIPOS>BOND
1     1     2     1
2     1     46    1
3     1     47    1
4     1     48    1
5     2     3     1
6     2     4     1
7     2     5     1
8     4     49    1
9     4     50    1
10    4     51    1
11    5     6     1
12    5     44    1
13    5     7     1
14    7     8     1
15    7     9     2
16    9     10    1
17    9     13    1
18    10    11    am
19    10    12    2
20    11    52    1
21    11    53    1
22    13    14    2
23    13    15    1
24    15    44    1
25    15    16    1
26    15    17    1
27    16    54    1
28    17    18    2
29    17    19    1
30    19    41    1
31    19    20    2
32    20    21    1
33    20    22    1
34    22    39    ar
35    22    23    ar
36    23    24    1
37    23    25    ar
38    24    55    1
39    25    26    1
40    25    36    ar
41    26    27    am
42    26    56    1
43    27    28    2
44    27    29    1
45    29    30    1
46    29    57    1
47    29    58    1
48    30    31    1
49    30    35    1
50    30    32    1
51    32    33    1
52    32    59    1
53    32    60    1
54    33    34    1
55    33    61    1
56    33    62    1
57    34    35    1
58    34    63    1
59    34    64    1
60    35    65    1
61    35    66    1
62    36    37    ar
63    36    67    1
64    37    38    1
65    37    39    ar
66    39    40    1
67    40    41    1
68    40    68    1
69    40    69    1
70    41    42    1
71    41    43    1
72    43    44    1
73    43    70    1
74    43    71    1
75    44    45    1
@<TRIPOS>SUBSTRUCTURE
1   ZINC000068246816 1     RESIDUE    1   A     ZIN   1
