@<TRIPOS>MOLECULE
ZINC000113476229
84    88    1     0     0
SMALL
USER_CHARGES
@<TRIPOS>ATOM
1      C1     -2.7178    3.8697    1.3754 C.3      1 ZINC000113476229   -0.1500
2      C2     -1.8909    2.7544    0.7325 C.3      1 ZINC000113476229   -0.0600
3      C3     -2.7605    1.5418    0.5220 C.ar     1 ZINC000113476229   -0.0200
4      N4     -2.8571    0.6333    1.4665 N.ar     1 ZINC000113476229   -0.3400
5      C5     -3.6249   -0.4406    1.2848 C.ar     1 ZINC000113476229   -0.1200
6      C6     -3.7332   -1.4590    2.3447 C.2      1 ZINC000113476229    0.6000
7      N7     -2.9707   -1.3631    3.4519 N.am     1 ZINC000113476229   -0.8300
8      O8     -4.5106   -2.3859    2.2203 O.2      1 ZINC000113476229   -0.5600
9      C9     -4.3311   -0.5997    0.0810 C.ar     1 ZINC000113476229    0.4500
10     N10    -5.1299   -1.7119   -0.1131 N.pl3    1 ZINC000113476229   -0.6300
11     C11    -5.7193   -1.9412   -1.3626 C.ar     1 ZINC000113476229    0.1700
12     C12    -5.0430   -1.5915   -2.5233 C.ar     1 ZINC000113476229   -0.1300
13     C13    -5.6227   -1.8173   -3.7578 C.ar     1 ZINC000113476229   -0.1200
14     C14    -6.8811   -2.3937   -3.8390 C.ar     1 ZINC000113476229    0.0600
15     N15    -7.4682   -2.6229   -5.0916 N.3      1 ZINC000113476229   -0.4700
16     C16    -6.4970   -2.4169   -6.1736 C.3      1 ZINC000113476229    0.0600
17     C17    -7.1280   -2.8150   -7.5099 C.3      1 ZINC000113476229   -0.1100
18     C18    -8.3779   -1.9644   -7.7520 C.3      1 ZINC000113476229    0.0900
19     N19    -9.0208   -2.3821   -9.0051 N.3      1 ZINC000113476229   -0.5300
20     C20    -8.0310   -2.5283  -10.0815 C.3      1 ZINC000113476229    0.0500
21     C21    -8.7271   -3.0398  -11.3449 C.3      1 ZINC000113476229    0.0600
22     N22    -9.7870   -2.0985  -11.7323 N.3      1 ZINC000113476229   -0.5500
23     C23   -10.4298   -2.5161  -12.9854 C.3      1 ZINC000113476229    0.0200
24     C24   -10.7768   -1.9522  -10.6560 C.3      1 ZINC000113476229    0.0600
25     C25   -10.0807   -1.4407   -9.3925 C.3      1 ZINC000113476229    0.0600
26     C26    -9.3523   -2.1599   -6.5871 C.3      1 ZINC000113476229   -0.1100
27     C27    -8.6569   -1.7808   -5.2777 C.3      1 ZINC000113476229    0.0600
28     C28    -7.5619   -2.7455   -2.6752 C.ar     1 ZINC000113476229    0.1400
29     O29    -8.7962   -3.3114   -2.7531 O.3      1 ZINC000113476229   -0.3000
30     C30    -9.4353   -3.6464   -1.5196 C.3      1 ZINC000113476229    0.0200
31     C31    -6.9779   -2.5237   -1.4400 C.ar     1 ZINC000113476229   -0.2200
32     N32    -4.2295    0.3218   -0.8697 N.ar     1 ZINC000113476229   -0.5500
33     C33    -3.4670    1.3900   -0.6766 C.ar     1 ZINC000113476229    0.4400
34     N34    -3.3611    2.3508   -1.6668 N.pl3    1 ZINC000113476229   -0.6900
35     C35    -4.0906    2.1877   -2.9268 C.3      1 ZINC000113476229    0.1500
36     C36    -5.5134    2.7327   -2.7693 C.3      1 ZINC000113476229   -0.1600
37     C37    -6.2422    2.6303   -4.1117 C.3      1 ZINC000113476229    0.0700
38     O38    -5.5102    3.3500   -5.1058 O.3      1 ZINC000113476229   -0.3800
39     C39    -4.1886    2.8547   -5.3299 C.3      1 ZINC000113476229    0.0700
40     C40    -3.3772    2.9662   -4.0364 C.3      1 ZINC000113476229   -0.1700
41     H41    -2.0888    4.7467    1.5277 H        1 ZINC000113476229    0.0600
42     H42    -3.5499    4.1286    0.7207 H        1 ZINC000113476229    0.0500
43     H43    -3.1039    3.5282    2.3359 H        1 ZINC000113476229    0.0600
44     H44    -1.5048    3.0959   -0.2279 H        1 ZINC000113476229    0.0700
45     H45    -1.0588    2.4955    1.3873 H        1 ZINC000113476229    0.0900
46     H46    -2.3506   -0.6238    3.5512 H        1 ZINC000113476229    0.4100
47     H47    -3.0420   -2.0333    4.1495 H        1 ZINC000113476229    0.4100
48     H48    -5.2818   -2.3332    0.6162 H        1 ZINC000113476229    0.4400
49     H49    -4.0629   -1.1422   -2.4618 H        1 ZINC000113476229    0.1300
50     H50    -5.0950   -1.5442   -4.6597 H        1 ZINC000113476229    0.1300
51     H51    -6.2079   -1.3665   -6.2071 H        1 ZINC000113476229    0.0400
52     H52    -5.6148   -3.0306   -5.9914 H        1 ZINC000113476229    0.0800
53     H53    -6.4122   -2.6473   -8.3146 H        1 ZINC000113476229    0.0700
54     H54    -7.4048   -3.8689   -7.4820 H        1 ZINC000113476229    0.0800
55     H55    -8.0960   -0.9137   -7.8198 H        1 ZINC000113476229    0.0400
56     H56    -7.5706   -1.5617  -10.2860 H        1 ZINC000113476229    0.0400
57     H57    -7.2637   -3.2395   -9.7758 H        1 ZINC000113476229    0.0900
58     H58    -8.0001   -3.1215  -12.1529 H        1 ZINC000113476229    0.0800
59     H59    -9.1642   -4.0188  -11.1483 H        1 ZINC000113476229    0.0400
60     H60   -10.8705   -3.5046  -12.8558 H        1 ZINC000113476229    0.0300
61     H61   -11.2101   -1.8022  -13.2491 H        1 ZINC000113476229    0.0700
62     H62    -9.6858   -2.5515  -13.7812 H        1 ZINC000113476229    0.0700
63     H63   -11.5441   -1.2410  -10.9617 H        1 ZINC000113476229    0.0800
64     H64   -11.2372   -2.9188  -10.4515 H        1 ZINC000113476229    0.0400
65     H65   -10.8077   -1.3591   -8.5845 H        1 ZINC000113476229    0.0800
66     H66    -9.6436   -0.4618   -9.5892 H        1 ZINC000113476229    0.0400
67     H67   -10.2257   -1.5242   -6.7326 H        1 ZINC000113476229    0.0700
68     H68    -9.6641   -3.2035   -6.5447 H        1 ZINC000113476229    0.0800
69     H69    -9.3434   -1.9325   -4.4447 H        1 ZINC000113476229    0.0900
70     H70    -8.3576   -0.7334   -5.3153 H        1 ZINC000113476229    0.0300
71     H71    -9.5636   -2.7449   -0.9204 H        1 ZINC000113476229    0.0500
72     H72   -10.4103   -4.0887   -1.7240 H        1 ZINC000113476229    0.1000
73     H73    -8.8194   -4.3610   -0.9736 H        1 ZINC000113476229    0.0600
74     H74    -7.5038   -2.7960   -0.5368 H        1 ZINC000113476229    0.1300
75     H75    -2.8038    3.1323   -1.5268 H        1 ZINC000113476229    0.4100
76     H76    -4.1307    1.1308   -3.1907 H        1 ZINC000113476229    0.1000
77     H77    -6.0466    2.1480   -2.0198 H        1 ZINC000113476229    0.0800
78     H78    -5.4712    3.7760   -2.4564 H        1 ZINC000113476229    0.0700
79     H79    -6.3197    1.5832   -4.4043 H        1 ZINC000113476229    0.0500
80     H80    -7.2411    3.0561   -4.0165 H        1 ZINC000113476229    0.1000
81     H81    -4.2391    1.8105   -5.6384 H        1 ZINC000113476229    0.0500
82     H82    -3.7080    3.4422   -6.1122 H        1 ZINC000113476229    0.1000
83     H83    -3.2919    4.0142   -3.7491 H        1 ZINC000113476229    0.0800
84     H84    -2.3828    2.5484   -4.1931 H        1 ZINC000113476229    0.0800
@<TRIPOS>BOND
1     1     2     1
2     1     41    1
3     1     42    1
4     1     43    1
5     2     3     1
6     2     44    1
7     2     45    1
8     3     33    ar
9     3     4     ar
10    4     5     ar
11    5     6     1
12    5     9     ar
13    6     7     am
14    6     8     2
15    7     46    1
16    7     47    1
17    9     10    1
18    9     32    ar
19    10    11    1
20    10    48    1
21    11    31    ar
22    11    12    ar
23    12    13    ar
24    12    49    1
25    13    14    ar
26    13    50    1
27    14    15    1
28    14    28    ar
29    15    27    1
30    15    16    1
31    16    17    1
32    16    51    1
33    16    52    1
34    17    18    1
35    17    53    1
36    17    54    1
37    18    19    1
38    18    26    1
39    18    55    1
40    19    25    1
41    19    20    1
42    20    21    1
43    20    56    1
44    20    57    1
45    21    22    1
46    21    58    1
47    21    59    1
48    22    23    1
49    22    24    1
50    23    60    1
51    23    61    1
52    23    62    1
53    24    25    1
54    24    63    1
55    24    64    1
56    25    65    1
57    25    66    1
58    26    27    1
59    26    67    1
60    26    68    1
61    27    69    1
62    27    70    1
63    28    29    1
64    28    31    ar
65    29    30    1
66    30    71    1
67    30    72    1
68    30    73    1
69    31    74    1
70    32    33    ar
71    33    34    1
72    34    35    1
73    34    75    1
74    35    40    1
75    35    36    1
76    35    76    1
77    36    37    1
78    36    77    1
79    36    78    1
80    37    38    1
81    37    79    1
82    37    80    1
83    38    39    1
84    39    40    1
85    39    81    1
86    39    82    1
87    40    83    1
88    40    84    1
@<TRIPOS>SUBSTRUCTURE
1   ZINC000113476229 1     RESIDUE    1   A     ZIN   1
