@<TRIPOS>MOLECULE
ZINC000003830219
  43   45    0    0    0
SMALL
USER_CHARGES
NO_NAME
@<TRIPOS>ATOM
    1 C1       -0.4096     1.6319     0.5283 C.3    1 <0>      -0.1200
    2 C2       -0.2542     0.1545     0.1625 C.3    1 <0>       0.0000
    3 C3       -1.6148    -0.5401     0.0767 C.3    1 <0>      -0.1500
    4 S4        0.7067    -0.0538    -1.3957 S.3    1 <0>      -0.3000
    5 C5        1.4062    -1.6866    -0.9345 C.3    1 <0>       0.0900
    6 H6        2.4306    -1.8438    -1.2722 H      1 <0>       0.1600
    7 C7        0.4544    -2.8517    -1.1998 C.3    1 <0>       0.0800
    8 H8        0.9321    -3.7350    -1.6237 H      1 <0>       0.1500
    9 N9       -0.7852    -2.4758    -1.8840 N.am   1 <0>      -0.6700
   10 C10      -1.5477    -3.4228    -2.4657 C.2    1 <0>       0.5100
   11 O11      -1.2076    -4.5861    -2.4228 O.2    1 <0>      -0.5200
   12 C12      -2.8229    -3.0361    -3.1696 C.3    1 <0>       0.0700
   13 H13      -3.3355    -2.2646    -2.5950 H      1 <0>       0.1700
   14 N14      -3.6917    -4.2144    -3.2914 N.4    1 <0>      -0.6200
   15 H15      -4.5455    -3.9554    -3.7626 H      1 <0>       0.4400
   16 H16      -3.2172    -4.9285    -3.8233 H      1 <0>       0.4400
   17 H17      -3.9091    -4.5684    -2.3719 H      1 <0>       0.4500
   18 C18      -2.4982    -2.5072    -4.5429 C.ar   1 <0>      -0.1500
   19 C19      -2.2399    -3.3857    -5.5785 C.ar   1 <0>      -0.1100
   20 C20      -1.9420    -2.9006    -6.8382 C.ar   1 <0>      -0.1100
   21 C21      -1.9029    -1.5371    -7.0624 C.ar   1 <0>      -0.0900
   22 C22      -2.1621    -0.6587    -6.0270 C.ar   1 <0>      -0.1000
   23 C23      -2.4642    -1.1438    -4.7683 C.ar   1 <0>      -0.0800
   24 C24       0.3581    -2.8585     0.3024 C.2    1 <0>       0.4700
   25 O25      -0.2517    -3.5730     1.0695 O.2    1 <0>      -0.3700
   26 N26       1.1991    -1.7953     0.5165 N.am   1 <0>      -0.4900
   27 C27       0.6944    -0.5779     1.1535 C.3    1 <0>       0.0200
   28 H28       1.5308     0.0651     1.4276 H      1 <0>       0.1100
   29 C29      -0.0899    -0.9411     2.3880 C.2    1 <0>       0.5000
   30 O30      -0.1942    -2.1089     2.7224 O.co2  1 <0>      -0.6400
   31 O31      -0.6201    -0.0670     3.0524 O.co2  1 <0>      -0.6700
   32 H32       0.5653     2.1183     0.4977 H      1 <0>       0.0700
   33 H33      -1.0788     2.1142    -0.1842 H      1 <0>       0.0600
   34 H34      -0.8261     1.7158     1.5321 H      1 <0>       0.1000
   35 H35      -2.1680    -0.1513    -0.7782 H      1 <0>       0.0600
   36 H36      -1.4678    -1.6135    -0.0433 H      1 <0>       0.0600
   37 H37      -2.1778    -0.3504     0.9906 H      1 <0>       0.1000
   38 H38      -1.0573    -1.5454    -1.9184 H      1 <0>       0.4200
   39 H39      -2.2704    -4.4509    -5.4033 H      1 <0>       0.1200
   40 H40      -1.7395    -3.5869    -7.6472 H      1 <0>       0.1400
   41 H41      -1.6695    -1.1581    -8.0464 H      1 <0>       0.1400
   42 H42      -2.1313     0.4066    -6.2020 H      1 <0>       0.1400
   43 H43      -2.6667    -0.4575    -3.9593 H      1 <0>       0.1400
@<TRIPOS>BOND
   1    1    2 1
   2    1   32 1
   3    1   33 1
   4    1   34 1
   5    2   27 1
   6    2    3 1
   7    2    4 1
   8    3   35 1
   9    3   36 1
  10    3   37 1
  11    4    5 1
  12    5    6 1
  13    5   26 1
  14    5    7 1
  15    7    8 1
  16    7    9 1
  17    7   24 1
  18    9   10 am
  19    9   38 1
  20   10   11 2
  21   10   12 1
  22   12   13 1
  23   12   14 1
  24   12   18 1
  25   14   15 1
  26   14   16 1
  27   14   17 1
  28   18   23 ar
  29   18   19 ar
  30   19   20 ar
  31   19   39 1
  32   20   21 ar
  33   20   40 1
  34   21   22 ar
  35   21   41 1
  36   22   23 ar
  37   22   42 1
  38   23   43 1
  39   24   25 2
  40   24   26 am
  41   26   27 1
  42   27   28 1
  43   27   29 1
  44   29   30 ar
  45   29   31 ar
