@<TRIPOS>MOLECULE
ZINC000100001905
  37   38    0    0    0
SMALL
USER_CHARGES
NO_NAME
@<TRIPOS>ATOM
    1 N1       -0.0169     1.3935     0.0097 N.pl3  1 <0>      -0.8600
    2 C2        0.0021    -0.0041     0.0020 C.ar   1 <0>       0.2800
    3 C3       -1.1910    -0.7165     0.0038 C.ar   1 <0>      -0.1700
    4 Br4      -2.8430     0.2035     0.0166 Br     1 <0>      -0.0100
    5 C5       -1.1687    -2.0983    -0.0043 C.ar   1 <0>       0.0200
    6 C6        0.0397    -2.7717    -0.0142 C.ar   1 <0>      -0.1400
    7 Br7       0.0662    -4.6624    -0.0252 Br     1 <0>      -0.0100
    8 C8        1.2291    -2.0645    -0.0164 C.ar   1 <0>       0.0000
    9 C9        1.2133    -0.6835    -0.0132 C.ar   1 <0>      -0.2300
   10 C10       2.5093     0.0855    -0.0156 C.3    1 <0>       0.0500
   11 N11       2.8121     0.5391     1.3484 N.4    1 <0>      -0.5100
   12 H12       2.0678     1.1355     1.6775 H      1 <0>       0.4200
   13 H13       2.8967    -0.2606     1.9578 H      1 <0>       0.4300
   14 C14       4.0755     1.2888     1.3460 C.3    1 <0>       0.0200
   15 H15       4.8618     0.6742     0.9077 H      1 <0>       0.1500
   16 C16       3.9084     2.5671     0.5221 C.3    1 <0>      -0.1400
   17 C17       5.2242     3.3478     0.5196 C.3    1 <0>      -0.1100
   18 C18       5.6033     3.7129     1.9562 C.3    1 <0>       0.1000
   19 H19       4.8170     4.3275     2.3945 H      1 <0>       0.0600
   20 O20       6.8323     4.4421     1.9539 O.3    1 <0>      -0.5600
   21 C21       5.7704     2.4346     2.7801 C.3    1 <0>      -0.1500
   22 C22       4.4546     1.6539     2.7826 C.3    1 <0>      -0.1400
   23 H23       0.8165     1.8899     0.0044 H      1 <0>       0.4000
   24 H24      -0.8634     1.8671     0.0163 H      1 <0>       0.4200
   25 H25      -2.0954    -2.6529    -0.0026 H      1 <0>       0.1600
   26 H26       2.1709    -2.5931    -0.0241 H      1 <0>       0.1500
   27 H27       3.3134    -0.5587    -0.3712 H      1 <0>       0.1500
   28 H28       2.4179     0.9495    -0.6739 H      1 <0>       0.1400
   29 H29       3.6384     2.3070    -0.5014 H      1 <0>       0.0900
   30 H30       3.1221     3.1817     0.9603 H      1 <0>       0.0900
   31 H31       6.0106     2.7332     0.0813 H      1 <0>       0.0800
   32 H32       5.1052     4.2585    -0.0674 H      1 <0>       0.0900
   33 H33       7.1341     4.7070     2.8336 H      1 <0>       0.3900
   34 H34       6.5567     1.8200     2.3419 H      1 <0>       0.0900
   35 H35       6.0404     2.6947     3.8036 H      1 <0>       0.0900
   36 H36       3.6682     2.2684     3.2209 H      1 <0>       0.0900
   37 H37       4.5736     0.7431     3.3696 H      1 <0>       0.0900
@<TRIPOS>BOND
   1    1    2 1
   2    1   23 1
   3    1   24 1
   4    2    9 ar
   5    2    3 ar
   6    3    4 1
   7    3    5 ar
   8    5    6 ar
   9    5   25 1
  10    6    7 1
  11    6    8 ar
  12    8    9 ar
  13    8   26 1
  14    9   10 1
  15   10   11 1
  16   10   27 1
  17   10   28 1
  18   11   12 1
  19   11   13 1
  20   11   14 1
  21   14   15 1
  22   14   22 1
  23   14   16 1
  24   16   17 1
  25   16   29 1
  26   16   30 1
  27   17   18 1
  28   17   31 1
  29   17   32 1
  30   18   19 1
  31   18   20 1
  32   18   21 1
  33   20   33 1
  34   21   22 1
  35   21   34 1
  36   21   35 1
  37   22   36 1
  38   22   37 1
