@<TRIPOS>MOLECULE
ZINC000000538119
56    60    1     0     0
SMALL
USER_CHARGES
@<TRIPOS>ATOM
1      C1     -0.0184    1.5028    0.0103 C.3      1 ZINC000000538119   -0.1000
2      C2      0.0021   -0.0041    0.0020 C.2      1 ZINC000000538119   -0.1000
3      C3      0.0058   -0.6846   -1.1786 C.2      1 ZINC000000538119   -0.0400
4      C4      0.0248   -2.0864   -1.1688 C.2      1 ZINC000000538119   -0.1600
5      C5      0.0394   -2.7573    0.0049 C.2      1 ZINC000000538119    0.0900
6      N6      0.0359   -2.0867    1.1902 N.am     1 ZINC000000538119   -0.4300
7      C7      0.0508   -2.7786    2.3495 C.2      1 ZINC000000538119    0.5100
8      O8      0.0678   -3.9994    2.3428 O.2      1 ZINC000000538119   -0.5300
9      C9      0.0468   -2.0744    3.5591 C.2      1 ZINC000000538119   -0.3000
10     C10     0.0635   -2.8107    4.8739 C.3      1 ZINC000000538119   -0.0500
11     C11    -1.3665   -3.1897    5.2644 C.3      1 ZINC000000538119    0.0600
12     N12    -1.3502   -3.9074    6.5460 N.3      1 ZINC000000538119   -0.5400
13     C13    -0.2978   -4.9314    6.5623 C.3      1 ZINC000000538119    0.0500
14     C14    -0.2142   -5.5567    7.9566 C.3      1 ZINC000000538119   -0.1100
15     C15    -1.5660   -6.1818    8.3122 C.3      1 ZINC000000538119   -0.0200
16     C16    -1.5081   -6.7466    9.7081 C.2      1 ZINC000000538119    0.1500
17     N17    -1.2669   -6.0819   10.7961 N.2      1 ZINC000000538119   -0.2700
18     O18    -1.2967   -6.9561   11.9065 O.3      1 ZINC000000538119   -0.0900
19     C19    -1.5670   -8.2071   11.4824 C.ar     1 ZINC000000538119    0.1100
20     C20    -1.7101   -9.4257   12.1328 C.ar     1 ZINC000000538119   -0.1700
21     C21    -1.9948  -10.5631   11.4034 C.ar     1 ZINC000000538119    0.1600
22     F22    -2.1338  -11.7481   12.0371 F        1 ZINC000000538119   -0.1200
23     C23    -2.1399  -10.4988   10.0226 C.ar     1 ZINC000000538119   -0.1800
24     C24    -2.0022   -9.3090    9.3660 C.ar     1 ZINC000000538119   -0.0100
25     C25    -1.7200   -8.1463   10.0869 C.ar     1 ZINC000000538119   -0.2100
26     C26    -2.6521   -5.1048    8.2406 C.3      1 ZINC000000538119   -0.1100
27     C27    -2.6650   -4.4926    6.8381 C.3      1 ZINC000000538119    0.0600
28     C28     0.0278   -0.6936    3.5282 C.2      1 ZINC000000538119    0.2200
29     C29     0.0232    0.0883    4.8165 C.3      1 ZINC000000538119   -0.1100
30     N30     0.0142   -0.0565    2.3679 N.2      1 ZINC000000538119   -0.5400
31     C31     0.0233   -0.7198    1.2131 C.2      1 ZINC000000538119    0.3900
32     H32     1.0042    1.8801    0.0026 H        1 ZINC000000538119    0.0800
33     H33    -0.5455    1.8639   -0.8728 H        1 ZINC000000538119    0.0700
34     H34    -0.5286    1.8543    0.9071 H        1 ZINC000000538119    0.0900
35     H35    -0.0062   -0.1477   -2.1156 H        1 ZINC000000538119    0.1500
36     H36     0.0275   -2.6317   -2.1010 H        1 ZINC000000538119    0.1600
37     H37     0.0537   -3.8372    0.0025 H        1 ZINC000000538119    0.1800
38     H38     0.6652   -3.7144    4.7766 H        1 ZINC000000538119    0.0800
39     H39     0.4927   -2.1697    5.6439 H        1 ZINC000000538119    0.0900
40     H40    -1.9681   -2.2860    5.3616 H        1 ZINC000000538119    0.0800
41     H41    -1.7956   -3.8307    4.4943 H        1 ZINC000000538119    0.0400
42     H42    -0.5321   -5.7048    5.8309 H        1 ZINC000000538119    0.0400
43     H43     0.6589   -4.4729    6.3120 H        1 ZINC000000538119    0.0900
44     H44     0.5564   -6.3275    7.9642 H        1 ZINC000000538119    0.0700
45     H45     0.0338   -4.7862    8.6867 H        1 ZINC000000538119    0.0800
46     H46    -1.7956   -6.9794    7.6057 H        1 ZINC000000538119    0.1000
47     H47    -1.5988   -9.4837   13.2055 H        1 ZINC000000538119    0.1500
48     H48    -2.3628  -11.3963    9.4646 H        1 ZINC000000538119    0.1500
49     H49    -2.1156   -9.2665    8.2928 H        1 ZINC000000538119    0.1500
50     H50    -3.6232   -5.5528    8.4511 H        1 ZINC000000538119    0.0700
51     H51    -2.4425   -4.3272    8.9752 H        1 ZINC000000538119    0.0800
52     H52    -3.4276   -3.7155    6.7880 H        1 ZINC000000538119    0.0800
53     H53    -2.8883   -5.2681    6.1054 H        1 ZINC000000538119    0.0400
54     H54     1.0496    0.2908    5.1223 H        1 ZINC000000538119    0.0900
55     H55    -0.5043    1.0305    4.6678 H        1 ZINC000000538119    0.0800
56     H56    -0.4792   -0.4909    5.5913 H        1 ZINC000000538119    0.0900
@<TRIPOS>BOND
1     1     2     1
2     1     32    1
3     1     33    1
4     1     34    1
5     2     31    1
6     2     3     2
7     3     4     1
8     3     35    1
9     4     5     2
10    4     36    1
11    5     6     1
12    5     37    1
13    6     31    1
14    6     7     am
15    7     8     2
16    7     9     1
17    9     10    1
18    9     28    2
19    10    11    1
20    10    38    1
21    10    39    1
22    11    12    1
23    11    40    1
24    11    41    1
25    12    27    1
26    12    13    1
27    13    14    1
28    13    42    1
29    13    43    1
30    14    15    1
31    14    44    1
32    14    45    1
33    15    16    1
34    15    26    1
35    15    46    1
36    16    25    1
37    16    17    2
38    17    18    1
39    18    19    1
40    19    25    ar
41    19    20    ar
42    20    21    ar
43    20    47    1
44    21    22    1
45    21    23    ar
46    23    24    ar
47    23    48    1
48    24    25    ar
49    24    49    1
50    26    27    1
51    26    50    1
52    26    51    1
53    27    52    1
54    27    53    1
55    28    29    1
56    28    30    1
57    29    54    1
58    29    55    1
59    29    56    1
60    30    31    2
@<TRIPOS>SUBSTRUCTURE
1   ZINC000000538119 1     RESIDUE    1   A     ZIN   1
