@<TRIPOS>MOLECULE
ZINC000001488870
  48   50    0    0    0
SMALL
USER_CHARGES
NO_NAME
@<TRIPOS>ATOM
    1 N1        0.1458     1.1016     1.2035 N.pl3  1 <0>      -0.8800
    2 C2        0.0844    -0.1522     0.5861 C.ar   1 <0>       0.2000
    3 C3       -1.1058    -0.8638     0.5737 C.ar   1 <0>      -0.1800
    4 C4       -1.1641    -2.1028    -0.0371 C.ar   1 <0>      -0.0800
    5 C5       -0.0382    -2.6364    -0.6362 C.ar   1 <0>      -0.1600
    6 C6        1.1529    -1.9341    -0.6283 C.ar   1 <0>      -0.0700
    7 C7        1.2189    -0.6880    -0.0240 C.ar   1 <0>       0.0600
    8 N8        2.4244     0.0254    -0.0152 N.am   1 <0>      -0.6600
    9 C9        3.5963    -0.6329     0.0839 C.2    1 <0>       0.5600
   10 O10       3.6126    -1.8485     0.0834 O.2    1 <0>      -0.5100
   11 C11       4.8617     0.1232     0.1933 C.ar   1 <0>      -0.1200
   12 C12       4.8460     1.5190     0.2000 C.ar   1 <0>      -0.0900
   13 C13       6.0307     2.2185     0.3023 C.ar   1 <0>      -0.1000
   14 C14       7.2325     1.5397     0.3981 C.ar   1 <0>      -0.0900
   15 C15       8.5226     2.3105     0.5100 C.3    1 <0>       0.1800
   16 N16       8.8262     2.5520     1.9227 N.am   1 <0>      -0.7100
   17 C17       9.9401     3.2283     2.2666 C.2    1 <0>       0.6500
   18 O18      10.6926     3.6377     1.4049 O.2    1 <0>      -0.5700
   19 O19      10.2191     3.4502     3.5649 O.3    1 <0>      -0.3700
   20 C20      11.4356     4.1853     3.8614 C.3    1 <0>       0.1400
   21 C21      11.5804     4.3359     5.3539 C.ar   1 <0>      -0.1600
   22 C22      11.0330     5.4303     6.0053 C.ar   1 <0>      -0.0500
   23 C23      11.1906     5.5272     7.3796 C.ar   1 <0>      -0.1800
   24 C24      11.8831     4.5366     8.0494 C.ar   1 <0>       0.1100
   25 N25      12.3907     3.5091     7.3968 N.ar   1 <0>      -0.4900
   26 C26      12.2558     3.3816     6.0913 C.ar   1 <0>       0.1300
   27 C27       7.2551     0.1563     0.3920 C.ar   1 <0>      -0.1000
   28 C28       6.0772    -0.5555     0.2961 C.ar   1 <0>      -0.0600
   29 H29       0.9780     1.5999     1.2079 H      1 <0>       0.3900
   30 H30      -0.6450     1.4745     1.6237 H      1 <0>       0.4000
   31 H31      -1.9871    -0.4503     1.0414 H      1 <0>       0.1200
   32 H32      -2.0918    -2.6557    -0.0459 H      1 <0>       0.1200
   33 H33      -0.0891    -3.6048    -1.1116 H      1 <0>       0.1200
   34 H34       2.0306    -2.3544    -1.0967 H      1 <0>       0.1400
   35 H35       2.4157     0.9931    -0.0804 H      1 <0>       0.4000
   36 H36       3.9086     2.0500     0.1249 H      1 <0>       0.1300
   37 H37       6.0200     3.2985     0.3072 H      1 <0>       0.1300
   38 H38       9.3302     1.7347     0.0581 H      1 <0>       0.0900
   39 H39       8.4221     3.2642    -0.0082 H      1 <0>       0.0900
   40 H40       8.2255     2.2251     2.6106 H      1 <0>       0.4100
   41 H41      12.2939     3.6420     3.4661 H      1 <0>       0.0900
   42 H42      11.3858     5.1715     3.3999 H      1 <0>       0.0800
   43 H43      10.4968     6.1897     5.4554 H      1 <0>       0.1400
   44 H44      10.7776     6.3664     7.9196 H      1 <0>       0.1400
   45 H45      12.0105     4.6048     9.1197 H      1 <0>       0.1600
   46 H46      12.6854     2.5261     5.5914 H      1 <0>       0.1600
   47 H47       8.1966    -0.3676     0.4668 H      1 <0>       0.1400
   48 H48       6.0962    -1.6353     0.2918 H      1 <0>       0.1400
@<TRIPOS>BOND
   1    1    2 1
   2    1   29 1
   3    1   30 1
   4    2    7 ar
   5    2    3 ar
   6    3    4 ar
   7    3   31 1
   8    4    5 ar
   9    4   32 1
  10    5    6 ar
  11    5   33 1
  12    6    7 ar
  13    6   34 1
  14    7    8 1
  15    8    9 am
  16    8   35 1
  17    9   10 2
  18    9   11 1
  19   11   28 ar
  20   11   12 ar
  21   12   13 ar
  22   12   36 1
  23   13   14 ar
  24   13   37 1
  25   14   15 1
  26   14   27 ar
  27   15   16 1
  28   15   38 1
  29   15   39 1
  30   16   17 am
  31   16   40 1
  32   17   18 2
  33   17   19 1
  34   19   20 1
  35   20   21 1
  36   20   41 1
  37   20   42 1
  38   21   26 ar
  39   21   22 ar
  40   22   23 ar
  41   22   43 1
  42   23   24 ar
  43   23   44 1
  44   24   25 ar
  45   24   45 1
  46   25   26 ar
  47   26   46 1
  48   27   28 ar
  49   27   47 1
  50   28   48 1
