@<TRIPOS>MOLECULE
ZINC000043202455
61    66    1     0     0
SMALL
USER_CHARGES
@<TRIPOS>ATOM
1      C1     -1.8179    1.0283   -0.1508 C.3      1 ZINC000043202455   -0.0900
2      C2     -1.0947   -0.2927   -0.0961 C.2      1 ZINC000043202455    0.1800
3      C3     -0.5481   -0.8894   -1.2005 C.2      1 ZINC000043202455   -0.3200
4      C4     -0.5740   -0.3639   -2.5683 C.2      1 ZINC000043202455    0.6000
5      O5     -1.1193    0.6990   -2.8017 O.2      1 ZINC000043202455   -0.5000
6      N6      0.0061   -1.0575   -3.5678 N.am     1 ZINC000043202455   -0.6600
7      C7     -0.1007   -0.6054   -4.8856 C.ar     1 ZINC000043202455    0.1900
8      C8     -0.1095    0.7547   -5.1565 C.ar     1 ZINC000043202455   -0.1200
9      C9     -0.2157    1.1999   -6.4606 C.ar     1 ZINC000043202455   -0.0800
10     C10    -0.3137    0.2944   -7.5020 C.ar     1 ZINC000043202455   -0.1300
11     C11    -0.3062   -1.0627   -7.2473 C.ar     1 ZINC000043202455   -0.0800
12     C12    -0.1934   -1.5236   -5.9383 C.ar     1 ZINC000043202455   -0.0600
13     C13    -0.1848   -2.9802   -5.6593 C.2      1 ZINC000043202455    0.1300
14     C14    -0.1751   -3.9682   -6.5871 C.2      1 ZINC000043202455   -0.0600
15     N15    -0.1691   -5.1778   -5.9034 N.pl3    1 ZINC000043202455   -0.4200
16     C16    -0.1594   -6.5250   -6.1853 C.2      1 ZINC000043202455   -0.0100
17     C17    -0.1509   -7.0109   -7.6118 C.3      1 ZINC000043202455    0.0600
18     N18    -1.5284   -7.0634   -8.1194 N.4      1 ZINC000043202455   -0.3900
19     H19    -2.0922   -7.6310   -7.5045 H        1 ZINC000043202455    0.4300
20     C20    -1.5320   -7.6489   -9.4671 C.3      1 ZINC000043202455   -0.0400
21     C21    -2.9684   -7.7027   -9.9936 C.3      1 ZINC000043202455    0.0400
22     O22    -3.5207   -6.3833   -9.9926 O.3      1 ZINC000043202455   -0.3500
23     C23    -3.5172   -5.7608   -8.7048 C.3      1 ZINC000043202455    0.0400
24     C24    -2.0820   -5.7034   -8.1757 C.3      1 ZINC000043202455   -0.0500
25     C25    -0.1571   -7.3841   -5.1815 C.2      1 ZINC000043202455   -0.1500
26     S26    -0.1685   -6.3974   -3.7091 S.3      1 ZINC000043202455    0.2500
27     C27    -0.1756   -4.8562   -4.5802 C.2      1 ZINC000043202455    0.1600
28     N28    -0.1795   -3.5523   -4.4391 N.2      1 ZINC000043202455   -0.4400
29     S29     0.1927   -2.4019   -0.6827 S.3      1 ZINC000043202455    0.1900
30     C30    -0.2887   -2.0999    0.9293 C.2      1 ZINC000043202455    0.1100
31     C31    -0.0123   -2.9947    2.0726 C.ar     1 ZINC000043202455   -0.1000
32     C32     0.6949   -4.1885    1.8875 C.ar     1 ZINC000043202455   -0.0500
33     C33     0.9278   -4.9908    2.9908 C.ar     1 ZINC000043202455   -0.1700
34     C34     0.4590   -4.5915    4.2293 C.ar     1 ZINC000043202455    0.1200
35     N35    -0.2050   -3.4606    4.3742 N.ar     1 ZINC000043202455   -0.4800
36     C36    -0.4470   -2.6610    3.3564 C.ar     1 ZINC000043202455    0.1600
37     N37    -0.9288   -0.9674    1.0100 N.2      1 ZINC000043202455   -0.4700
38     H38    -1.1059    1.8390    0.0038 H        1 ZINC000043202455    0.0900
39     H39    -2.2927    1.1426   -1.1253 H        1 ZINC000043202455    0.1000
40     H40    -2.5783    1.0588    0.6296 H        1 ZINC000043202455    0.0800
41     H41     0.4977   -1.8705   -3.3723 H        1 ZINC000043202455    0.4200
42     H42    -0.0337    1.4664   -4.3478 H        1 ZINC000043202455    0.1500
43     H43    -0.2227    2.2598   -6.6677 H        1 ZINC000043202455    0.1400
44     H44    -0.3967    0.6504   -8.5183 H        1 ZINC000043202455    0.1300
45     H45    -0.3836   -1.7662   -8.0632 H        1 ZINC000043202455    0.1200
46     H46    -0.1724   -3.8392   -7.6594 H        1 ZINC000043202455    0.1900
47     H47     0.4364   -6.3274   -8.2250 H        1 ZINC000043202455    0.1400
48     H48     0.2900   -8.0069   -7.6538 H        1 ZINC000043202455    0.1600
49     H49    -0.9239   -7.0354  -10.1317 H        1 ZINC000043202455    0.1400
50     H50    -1.1217   -8.6579   -9.4263 H        1 ZINC000043202455    0.1500
51     H51    -2.9690   -8.0968  -11.0099 H        1 ZINC000043202455    0.1500
52     H52    -3.5674   -8.3486   -9.3517 H        1 ZINC000043202455    0.0800
53     H53    -3.9151   -4.7495   -8.7883 H        1 ZINC000043202455    0.1400
54     H54    -4.1351   -6.3402   -8.0188 H        1 ZINC000043202455    0.0800
55     H55    -2.0800   -5.2682   -7.1764 H        1 ZINC000043202455    0.1400
56     H56    -1.4735   -5.0906   -8.8408 H        1 ZINC000043202455    0.1400
57     H57    -0.1499   -8.4622   -5.2449 H        1 ZINC000043202455    0.2200
58     H58     1.0494   -4.4762    0.9087 H        1 ZINC000043202455    0.1400
59     H59     1.4696   -5.9191    2.8859 H        1 ZINC000043202455    0.1500
60     H60     0.6390   -5.2159    5.0919 H        1 ZINC000043202455    0.1700
61     H61    -0.9938   -1.7431    3.5148 H        1 ZINC000043202455    0.1700
@<TRIPOS>BOND
1     1     2     1
2     1     38    1
3     1     39    1
4     1     40    1
5     2     37    1
6     2     3     2
7     3     4     1
8     3     29    1
9     4     5     2
10    4     6     am
11    6     7     1
12    6     41    1
13    7     12    ar
14    7     8     ar
15    8     9     ar
16    8     42    1
17    9     10    ar
18    9     43    1
19    10    11    ar
20    10    44    1
21    11    12    ar
22    11    45    1
23    12    13    1
24    13    28    1
25    13    14    2
26    14    15    1
27    14    46    1
28    15    27    1
29    15    16    1
30    16    17    1
31    16    25    2
32    17    18    1
33    17    47    1
34    17    48    1
35    18    19    1
36    18    24    1
37    18    20    1
38    20    21    1
39    20    49    1
40    20    50    1
41    21    22    1
42    21    51    1
43    21    52    1
44    22    23    1
45    23    24    1
46    23    53    1
47    23    54    1
48    24    55    1
49    24    56    1
50    25    26    1
51    25    57    1
52    26    27    1
53    27    28    2
54    29    30    1
55    30    31    1
56    30    37    2
57    31    36    ar
58    31    32    ar
59    32    33    ar
60    32    58    1
61    33    34    ar
62    33    59    1
63    34    35    ar
64    34    60    1
65    35    36    ar
66    36    61    1
@<TRIPOS>SUBSTRUCTURE
1   ZINC000043202455 1     RESIDUE    1   A     ZIN   1
