@<TRIPOS>MOLECULE
ZINC000043207176
39    41    1     0     0
SMALL
USER_CHARGES
@<TRIPOS>ATOM
1      C1     -0.0178    1.4608    0.0101 C.3      1 ZINC000043207176    0.1400
2      N2      0.0021   -0.0041    0.0020 N.pl3    1 ZINC000043207176   -0.5600
3      C3     -1.2550   -0.7686    0.0037 C.3      1 ZINC000043207176    0.1000
4      C4     -1.0893   -1.9289    0.9992 C.3      1 ZINC000043207176    0.1100
5      N5      0.1289   -2.6639    0.6268 N.pl3    1 ZINC000043207176   -0.6000
6      C6      0.1347   -4.0642    0.6102 C.ar     1 ZINC000043207176    0.0900
7      C7     -0.2015   -4.7462   -0.5510 C.ar     1 ZINC000043207176   -0.0500
8      C8     -0.1954   -6.1274   -0.5675 C.ar     1 ZINC000043207176   -0.1600
9      C9      0.1469   -6.8346    0.5769 C.ar     1 ZINC000043207176    0.2200
10     N10     0.1531   -8.2361    0.5586 N.am     1 ZINC000043207176   -0.5700
11     C11     0.4888   -9.1049    1.6971 C.3      1 ZINC000043207176    0.0600
12     C12     0.3366  -10.5292    1.1292 C.3      1 ZINC000043207176    0.0700
13     H13    -0.4352  -11.0761    1.6709 H        1 ZINC000043207176    0.1300
14     C14     1.6692  -11.2782    1.1952 C.3      1 ZINC000043207176    0.0700
15     O15     1.4773  -12.6298    0.7729 O.3      1 ZINC000043207176   -0.5600
16     O16    -0.0647  -10.3160   -0.2551 O.3      1 ZINC000043207176   -0.3000
17     C17    -0.1514   -9.0031   -0.4972 C.2      1 ZINC000043207176    0.6400
18     O18    -0.4692   -8.5476   -1.5781 O.2      1 ZINC000043207176   -0.4900
19     C19     0.4836   -6.1541    1.7398 C.ar     1 ZINC000043207176   -0.1900
20     C20     0.4830   -4.7723    1.7562 C.ar     1 ZINC000043207176    0.1300
21     F21     0.8103   -4.1095    2.8870 F        1 ZINC000043207176   -0.1300
22     C22     1.2734   -1.9523    0.2913 C.2      1 ZINC000043207176    0.2900
23     N23     1.2195   -0.6999   -0.0133 N.2      1 ZINC000043207176   -0.3000
24     H24     1.0048    1.8381    0.0023 H        1 ZINC000043207176    0.0700
25     H25    -0.5450    1.8219   -0.8730 H        1 ZINC000043207176    0.0500
26     H26    -0.5280    1.8123    0.9069 H        1 ZINC000043207176    0.0400
27     H27    -2.0782   -0.1267    0.3172 H        1 ZINC000043207176    0.0900
28     H28    -1.4504   -1.1619   -0.9939 H        1 ZINC000043207176    0.0600
29     H29    -0.9897   -1.5365    2.0112 H        1 ZINC000043207176    0.0700
30     H30    -1.9530   -2.5914    0.9420 H        1 ZINC000043207176    0.0900
31     H31    -0.4683   -4.1968   -1.4417 H        1 ZINC000043207176    0.1400
32     H32    -0.4574   -6.6575   -1.4713 H        1 ZINC000043207176    0.1700
33     H33     1.5142   -8.9301    2.0227 H        1 ZINC000043207176    0.1100
34     H34    -0.2079   -8.9443    2.5198 H        1 ZINC000043207176    0.1100
35     H35     2.3920  -10.7920    0.5400 H        1 ZINC000043207176    0.0600
36     H36     2.0419  -11.2669    2.2194 H        1 ZINC000043207176    0.0800
37     H37     2.2825  -13.1651    0.7894 H        1 ZINC000043207176    0.3900
38     H38     0.7495   -6.7047    2.6301 H        1 ZINC000043207176    0.1400
39     H39     2.2275   -2.4584    0.2814 H        1 ZINC000043207176    0.1800
@<TRIPOS>BOND
1     1     2     1
2     1     24    1
3     1     25    1
4     1     26    1
5     2     23    1
6     2     3     1
7     3     4     1
8     3     27    1
9     3     28    1
10    4     5     1
11    4     29    1
12    4     30    1
13    5     6     1
14    5     22    1
15    6     20    ar
16    6     7     ar
17    7     8     ar
18    7     31    1
19    8     9     ar
20    8     32    1
21    9     10    1
22    9     19    ar
23    10    17    am
24    10    11    1
25    11    12    1
26    11    33    1
27    11    34    1
28    12    13    1
29    12    14    1
30    12    16    1
31    14    15    1
32    14    35    1
33    14    36    1
34    15    37    1
35    16    17    1
36    17    18    2
37    19    20    ar
38    19    38    1
39    20    21    1
40    22    23    2
41    22    39    1
@<TRIPOS>SUBSTRUCTURE
1   ZINC000043207176 1     RESIDUE    1   A     ZIN   1
