@<TRIPOS>MOLECULE
ZINC000001649340
  52   54    0    0    0
SMALL
USER_CHARGES
NO_NAME
@<TRIPOS>ATOM
    1 C1       -0.0187     1.5258     0.0104 C.3    1 <0>      -0.1500
    2 C2        0.0021    -0.0041     0.0020 C.3    1 <0>      -0.1300
    3 C3        0.7182    -0.4975    -1.2568 C.3    1 <0>       0.1700
    4 H4        0.2444    -0.0644    -2.1377 H      1 <0>       0.1000
    5 C5        0.6303    -2.0233    -1.3286 C.3    1 <0>       0.0600
    6 O6        1.1463    -2.5875    -0.1213 O.3    1 <0>      -0.5700
    7 N7        2.1249    -0.0911    -1.2094 N.pl3  1 <0>      -0.6800
    8 C8        2.8435     0.0555    -2.3845 C.ar   1 <0>       0.6300
    9 N9        2.2340    -0.1728    -3.5408 N.ar   1 <0>      -0.6300
   10 C10       2.8802    -0.0456    -4.6944 C.ar   1 <0>       0.5400
   11 N11       2.2362    -0.2853    -5.8953 N.pl3  1 <0>      -0.6900
   12 C12       0.8265    -0.6841    -5.9037 C.3    1 <0>       0.1700
   13 C13       0.3688    -0.8818    -7.3258 C.ar   1 <0>      -0.1100
   14 C14      -0.1610     0.1798    -8.0352 C.ar   1 <0>      -0.1000
   15 C15      -0.5809    -0.0016    -9.3398 C.ar   1 <0>      -0.1200
   16 C16      -0.4704    -1.2443    -9.9350 C.ar   1 <0>      -0.1100
   17 C17       0.0603    -2.3056    -9.2258 C.ar   1 <0>      -0.1200
   18 C18       0.4841    -2.1232    -7.9227 C.ar   1 <0>      -0.1000
   19 C19       4.2321     0.3381    -4.6689 C.ar   1 <0>      -0.1600
   20 N20       5.1763     0.5590    -5.6165 N.2    1 <0>      -0.4500
   21 C21       6.2927     0.9023    -5.0437 C.2    1 <0>       0.2300
   22 N22       6.1338     0.9230    -3.6887 N.pl3  1 <0>      -0.4700
   23 C23       7.1610     1.2612    -2.7004 C.3    1 <0>       0.1300
   24 C24       8.3331     0.2863    -2.8292 C.3    1 <0>      -0.1600
   25 C25       7.6551     2.6881    -2.9463 C.3    1 <0>      -0.1600
   26 C26       4.8355     0.5690    -3.4215 C.ar   1 <0>       0.3500
   27 N27       4.1126     0.4235    -2.3156 N.ar   1 <0>      -0.6200
   28 H28       1.0039     1.9031     0.0027 H      1 <0>       0.0600
   29 H29      -0.5459     1.8868    -0.8726 H      1 <0>       0.0500
   30 H30      -0.5289     1.8773     0.9072 H      1 <0>       0.0600
   31 H31       0.5293    -0.3651     0.8851 H      1 <0>       0.0800
   32 H32      -1.0205    -0.3814     0.0098 H      1 <0>       0.0800
   33 H33      -0.4106    -2.3218    -1.4533 H      1 <0>       0.0500
   34 H34       1.2150    -2.3814    -2.1759 H      1 <0>       0.0500
   35 H35       1.1218    -3.5538    -0.0969 H      1 <0>       0.3800
   36 H36       2.5531     0.0754    -0.3551 H      1 <0>       0.4100
   37 H37       2.7181    -0.1894    -6.7316 H      1 <0>       0.4200
   38 H38       0.7094    -1.6164    -5.3513 H      1 <0>       0.0800
   39 H39       0.2259     0.0946    -5.4336 H      1 <0>       0.0800
   40 H40      -0.2473     1.1507    -7.5702 H      1 <0>       0.1200
   41 H41      -0.9955     0.8276    -9.8938 H      1 <0>       0.1200
   42 H42      -0.7990    -1.3862   -10.9539 H      1 <0>       0.1200
   43 H43       0.1463    -3.2766    -9.6907 H      1 <0>       0.1200
   44 H44       0.8988    -2.9524    -7.3687 H      1 <0>       0.1200
   45 H45       7.2098     1.1363    -5.5638 H      1 <0>       0.2100
   46 H46       6.7382     1.1907    -1.6982 H      1 <0>       0.1100
   47 H47       8.7559     0.3568    -3.8314 H      1 <0>       0.0700
   48 H48       9.0974     0.5379    -2.0939 H      1 <0>       0.0800
   49 H49       7.9811    -0.7303    -2.6540 H      1 <0>       0.0600
   50 H50       6.8201     3.3827    -2.8546 H      1 <0>       0.0600
   51 H51       8.4194     2.9397    -2.2110 H      1 <0>       0.0800
   52 H52       8.0779     2.7586    -3.9485 H      1 <0>       0.0700
@<TRIPOS>BOND
   1    1    2 1
   2    1   28 1
   3    1   29 1
   4    1   30 1
   5    2    3 1
   6    2   31 1
   7    2   32 1
   8    3    4 1
   9    3    5 1
  10    3    7 1
  11    5    6 1
  12    5   33 1
  13    5   34 1
  14    6   35 1
  15    7    8 1
  16    7   36 1
  17    8   27 ar
  18    8    9 ar
  19    9   10 ar
  20   10   11 1
  21   10   19 ar
  22   11   12 1
  23   11   37 1
  24   12   13 1
  25   12   38 1
  26   12   39 1
  27   13   18 ar
  28   13   14 ar
  29   14   15 ar
  30   14   40 1
  31   15   16 ar
  32   15   41 1
  33   16   17 ar
  34   16   42 1
  35   17   18 ar
  36   17   43 1
  37   18   44 1
  38   19   26 ar
  39   19   20 1
  40   20   21 2
  41   21   22 1
  42   21   45 1
  43   22   23 1
  44   22   26 1
  45   23   24 1
  46   23   25 1
  47   23   46 1
  48   24   47 1
  49   24   48 1
  50   24   49 1
  51   25   50 1
  52   25   51 1
  53   25   52 1
  54   26   27 ar
