@<TRIPOS>MOLECULE
ZINC000016051409
23    24    1     0     0
SMALL
USER_CHARGES
@<TRIPOS>ATOM
1      N1      0.0208    1.3000    0.5905 N.pl3    1 ZINC000016051409   -0.8100
2      C2      0.0205   -0.0366    0.2896 C.2      1 ZINC000016051409    0.6500
3      N3     -1.1185   -0.6951    0.2856 N.2      1 ZINC000016051409   -0.5800
4      C4     -1.1636   -2.0032   -0.0032 C.2      1 ZINC000016051409    0.3200
5      C5     -2.4596   -2.7215   -0.0013 C.ar     1 ZINC000016051409   -0.0700
6      C6     -2.5913   -3.9261    0.6889 C.ar     1 ZINC000016051409   -0.0700
7      C7     -3.8007   -4.5904    0.6870 C.ar     1 ZINC000016051409   -0.1200
8      C8     -4.8811   -4.0640    0.0018 C.ar     1 ZINC000016051409   -0.1000
9      C9     -4.7564   -2.8696   -0.6851 C.ar     1 ZINC000016051409   -0.1300
10     C10    -3.5540   -2.1927   -0.6850 C.ar     1 ZINC000016051409   -0.0700
11     C11     0.0083   -2.6814   -0.3043 C.2      1 ZINC000016051409   -0.3200
12     Br12   -0.0238   -4.5267   -0.7163 Br       1 ZINC000016051409    0.0000
13     C13     1.2187   -1.9701   -0.2974 C.2      1 ZINC000016051409    0.5600
14     O14     2.2706   -2.5319   -0.5571 O.2      1 ZINC000016051409   -0.5100
15     N15     1.1978   -0.6531   -0.0040 N.am     1 ZINC000016051409   -0.6500
16     H16     0.8542    1.7964    0.5927 H        1 ZINC000016051409    0.4200
17     H17    -0.8128    1.7507    0.7975 H        1 ZINC000016051409    0.4300
18     H18    -1.7483   -4.3383    1.2236 H        1 ZINC000016051409    0.1300
19     H19    -3.9040   -5.5233    1.2211 H        1 ZINC000016051409    0.1300
20     H20    -5.8256   -4.5877    0.0029 H        1 ZINC000016051409    0.1300
21     H21    -5.6032   -2.4639   -1.2188 H        1 ZINC000016051409    0.1300
22     H22    -3.4579   -1.2602   -1.2213 H        1 ZINC000016051409    0.1300
23     H23     2.0248   -0.1463    0.0053 H        1 ZINC000016051409    0.4200
@<TRIPOS>BOND
1     1     2     1
2     1     16    1
3     1     17    1
4     2     15    1
5     2     3     2
6     3     4     1
7     4     5     1
8     4     11    2
9     5     10    ar
10    5     6     ar
11    6     7     ar
12    6     18    1
13    7     8     ar
14    7     19    1
15    8     9     ar
16    8     20    1
17    9     10    ar
18    9     21    1
19    10    22    1
20    11    12    1
21    11    13    1
22    13    14    2
23    13    15    am
24    15    23    1
@<TRIPOS>SUBSTRUCTURE
1   ZINC000016051409 1     RESIDUE    1   A     ZIN   1
