@<TRIPOS>MOLECULE
ZINC000004658608
10    10    1     0     0
SMALL
USER_CHARGES
@<TRIPOS>ATOM
1      C1     -0.0187    1.5258    0.0104 C.3      1 ZINC000004658608   -0.1400
2      C2      0.0021   -0.0041    0.0020 C.3      1 ZINC000004658608   -0.0200
3      H3      0.8132   -0.4630   -0.5633 H        1 ZINC000004658608    0.1200
4      C4     -1.3411   -0.7355    0.0431 C.3      1 ZINC000004658608   -0.0400
5      O5     -0.4621   -0.6827    1.1708 O.3      1 ZINC000004658608   -0.3600
6      H6      1.0039    1.9031    0.0027 H        1 ZINC000004658608    0.0700
7      H7     -0.5459    1.8868   -0.8726 H        1 ZINC000004658608    0.0800
8      H8     -0.5289    1.8773    0.9072 H        1 ZINC000004658608    0.0700
9      H9     -2.2477   -0.1313    0.0764 H        1 ZINC000004658608    0.1100
10     H10    -1.4215   -1.6805   -0.4942 H        1 ZINC000004658608    0.1100
@<TRIPOS>BOND
1     1     2     1
2     1     6     1
3     1     7     1
4     1     8     1
5     2     3     1
6     2     5     1
7     2     4     1
8     4     5     1
9     4     9     1
10    4     10    1
@<TRIPOS>SUBSTRUCTURE
1   ZINC000004658608 1     RESIDUE    1   A     ZIN   1
