@<TRIPOS>MOLECULE
ZINC000003814007
55    58    1     0     0
SMALL
USER_CHARGES
@<TRIPOS>ATOM
1      C1     -0.4117   -0.2082    1.4614 C.3      1 ZINC000003814007   -0.1500
2      C2      0.3230   -1.0928    2.4708 C.3      1 ZINC000003814007   -0.0900
3      C3      0.8293   -2.3316    1.7780 C.ar     1 ZINC000003814007   -0.1000
4      C4      0.0788   -3.4906    1.7985 C.ar     1 ZINC000003814007   -0.1000
5      C5      0.5428   -4.6280    1.1630 C.ar     1 ZINC000003814007   -0.1300
6      C6      1.7586   -4.6085    0.5050 C.ar     1 ZINC000003814007   -0.1100
7      C7      2.5139   -3.4522    0.4804 C.ar     1 ZINC000003814007   -0.1200
8      C8      2.0486   -2.3073    1.1134 C.ar     1 ZINC000003814007    0.1500
9      N9      2.8111   -1.1341    1.0900 N.am     1 ZINC000003814007   -0.6400
10     C10     4.1568   -1.2043    1.1188 C.2      1 ZINC000003814007    0.6400
11     O11     4.7095   -2.2861    1.0912 O.2      1 ZINC000003814007   -0.5300
12     O12     4.8888   -0.0755    1.1783 O.3      1 ZINC000003814007   -0.3000
13     C13     6.2396   -0.2104    1.0943 C.ar     1 ZINC000003814007    0.0800
14     C14     6.8222   -0.6578   -0.0820 C.ar     1 ZINC000003814007   -0.0900
15     C15     8.1919   -0.7975   -0.1689 C.ar     1 ZINC000003814007   -0.1200
16     C16     8.9998   -0.4903    0.9226 C.ar     1 ZINC000003814007    0.1000
17     C17     8.4074   -0.0383    2.0993 C.ar     1 ZINC000003814007   -0.1100
18     C18     7.0399    0.1047    2.1834 C.ar     1 ZINC000003814007   -0.0700
19     C19     9.5194    0.2180    3.0898 C.3      1 ZINC000003814007   -0.0400
20     C20     9.6633   -1.0144    3.9850 C.3      1 ZINC000003814007   -0.1400
21     C21     9.2511    1.4043    3.9687 C.3      1 ZINC000003814007   -0.1000
22     C22     9.5950    2.7453    3.3487 C.3      1 ZINC000003814007    0.0200
23     N23    10.9097    2.6930    2.7013 N.3      1 ZINC000003814007   -0.3300
24     C24    11.2619    3.9948    2.1188 C.3      1 ZINC000003814007    0.0100
25     O25    10.9218    1.6431    1.6837 O.3      1 ZINC000003814007   -0.2800
26     C26    10.7654    0.3228    2.2036 C.3      1 ZINC000003814007    0.2600
27     H27    11.6662   -0.0213    2.7118 H        1 ZINC000003814007    0.1200
28     N28    10.3955   -0.5593    1.0629 N.3      1 ZINC000003814007   -0.4500
29     C29    11.0703   -0.1350   -0.1711 C.3      1 ZINC000003814007    0.0200
30     H30     0.2726    0.0764    0.6621 H        1 ZINC000003814007    0.0500
31     H31    -1.2530   -0.7588    1.0406 H        1 ZINC000003814007    0.0600
32     H32    -0.7779    0.6878    1.9625 H        1 ZINC000003814007    0.0600
33     H33     1.1644   -0.5422    2.8916 H        1 ZINC000003814007    0.0700
34     H34    -0.3612   -1.3774    3.2701 H        1 ZINC000003814007    0.0800
35     H35    -0.8713   -3.5090    2.3117 H        1 ZINC000003814007    0.1300
36     H36    -0.0457   -5.5334    1.1811 H        1 ZINC000003814007    0.1300
37     H37     2.1184   -5.4984    0.0099 H        1 ZINC000003814007    0.1300
38     H38     3.4635   -3.4376   -0.0337 H        1 ZINC000003814007    0.1400
39     H39     2.3712   -0.2704    1.0530 H        1 ZINC000003814007    0.4200
40     H40     6.2017   -0.8980   -0.9327 H        1 ZINC000003814007    0.1300
41     H41     8.6395   -1.1471   -1.0875 H        1 ZINC000003814007    0.1300
42     H42     6.5894    0.4538    3.1008 H        1 ZINC000003814007    0.1300
43     H43     9.8779   -1.8877    3.3691 H        1 ZINC000003814007    0.0700
44     H44    10.4794   -0.8578    4.6903 H        1 ZINC000003814007    0.0700
45     H45     8.7351   -1.1755    4.5332 H        1 ZINC000003814007    0.0600
46     H46     8.1930    1.4069    4.2303 H        1 ZINC000003814007    0.0800
47     H47     9.8285    1.2908    4.8863 H        1 ZINC000003814007    0.0800
48     H48     8.8391    3.0026    2.6067 H        1 ZINC000003814007    0.0500
49     H49     9.6079    3.5083    4.1270 H        1 ZINC000003814007    0.1000
50     H50    11.2893    4.7491    2.9051 H        1 ZINC000003814007    0.1000
51     H51    12.2413    3.9278    1.6452 H        1 ZINC000003814007    0.0800
52     H52    10.5164    4.2732    1.3740 H        1 ZINC000003814007    0.0400
53     H53    12.1500   -0.1813   -0.0292 H        1 ZINC000003814007    0.0800
54     H54    10.7825   -0.7962   -0.9884 H        1 ZINC000003814007    0.0800
55     H55    10.7790    0.8876   -0.4113 H        1 ZINC000003814007    0.0500
@<TRIPOS>BOND
1     1     2     1
2     1     30    1
3     1     31    1
4     1     32    1
5     2     3     1
6     2     33    1
7     2     34    1
8     3     8     ar
9     3     4     ar
10    4     5     ar
11    4     35    1
12    5     6     ar
13    5     36    1
14    6     7     ar
15    6     37    1
16    7     8     ar
17    7     38    1
18    8     9     1
19    9     10    am
20    9     39    1
21    10    11    2
22    10    12    1
23    12    13    1
24    13    18    ar
25    13    14    ar
26    14    15    ar
27    14    40    1
28    15    16    ar
29    15    41    1
30    16    28    1
31    16    17    ar
32    17    18    ar
33    17    19    1
34    18    42    1
35    19    26    1
36    19    20    1
37    19    21    1
38    20    43    1
39    20    44    1
40    20    45    1
41    21    22    1
42    21    46    1
43    21    47    1
44    22    23    1
45    22    48    1
46    22    49    1
47    23    24    1
48    23    25    1
49    24    50    1
50    24    51    1
51    24    52    1
52    25    26    1
53    26    27    1
54    26    28    1
55    28    29    1
56    29    53    1
57    29    54    1
58    29    55    1
@<TRIPOS>SUBSTRUCTURE
1   ZINC000003814007 1     RESIDUE    1   A     ZIN   1
