@<TRIPOS>MOLECULE
ZINC000238901810
49    52    1     0     0
SMALL
USER_CHARGES
@<TRIPOS>ATOM
1      C1     -0.0187    1.5258    0.0104 C.3      1 ZINC000238901810   -0.1300
2      C2      0.0021   -0.0041    0.0020 C.3      1 ZINC000238901810   -0.0500
3      C3     -1.4138   -0.5231   -0.0898 C.3      1 ZINC000238901810   -0.1100
4      C4     -1.4325   -2.0462    0.0017 C.3      1 ZINC000238901810   -0.1200
5      C5     -0.8385   -2.4731    1.3527 C.3      1 ZINC000238901810   -0.0600
6      H6     -1.4219   -2.0367    2.1634 H        1 ZINC000238901810    0.0800
7      C7      0.6007   -2.0019    1.4499 C.3      1 ZINC000238901810   -0.0700
8      H8      1.1772   -2.4910    0.6646 H        1 ZINC000238901810    0.0700
9      C9      1.2407   -2.3354    2.7951 C.3      1 ZINC000238901810   -0.1100
10     C10     0.6977   -3.6199    3.4031 C.3      1 ZINC000238901810   -0.0900
11     C11     0.1899   -4.5182    2.3032 C.2      1 ZINC000238901810   -0.0100
12     C12     0.7093   -5.7280    2.1218 C.2      1 ZINC000238901810   -0.2400
13     C13     0.2319   -6.6001    1.0506 C.2      1 ZINC000238901810    0.3900
14     O14     0.7023   -7.7104    0.9164 O.2      1 ZINC000238901810   -0.4600
15     C15    -0.8459   -6.1184    0.1116 C.3      1 ZINC000238901810   -0.1700
16     C16    -0.7789   -4.5902    0.0198 C.3      1 ZINC000238901810   -0.1100
17     C17    -0.9309   -4.0034    1.4172 C.3      1 ZINC000238901810   -0.0300
18     C18    -2.2856   -4.4136    1.9979 C.3      1 ZINC000238901810   -0.1400
19     C19     0.7453   -0.5083    1.2472 C.3      1 ZINC000238901810   -0.0700
20     H20     0.4363    0.0447    2.1342 H        1 ZINC000238901810    0.0800
21     C21     2.2404   -0.2571    0.9096 C.3      1 ZINC000238901810   -0.1200
22     C22     2.3493   -0.3044   -0.6262 C.3      1 ZINC000238901810   -0.1600
23     C23     0.8784   -0.4947   -1.1655 C.3      1 ZINC000238901810    0.1000
24     H24     0.6699   -1.5487   -1.3493 H        1 ZINC000238901810    0.0600
25     O25     0.6744    0.2721   -2.3539 O.3      1 ZINC000238901810   -0.5600
26     H26     1.0039    1.9031    0.0027 H        1 ZINC000238901810    0.0500
27     H27    -0.5459    1.8868   -0.8726 H        1 ZINC000238901810    0.0600
28     H28    -0.5289    1.8773    0.9072 H        1 ZINC000238901810    0.0500
29     H29    -2.0032   -0.1066    0.7270 H        1 ZINC000238901810    0.0600
30     H30    -1.8490   -0.2146   -1.0403 H        1 ZINC000238901810    0.0700
31     H31    -2.4594   -2.4036   -0.0746 H        1 ZINC000238901810    0.0700
32     H32    -0.8369   -2.4676   -0.8081 H        1 ZINC000238901810    0.0700
33     H33     2.3168   -2.4395    2.6564 H        1 ZINC000238901810    0.0700
34     H34     1.0552   -1.5133    3.4863 H        1 ZINC000238901810    0.0700
35     H35     1.4924   -4.1278    3.9497 H        1 ZINC000238901810    0.0800
36     H36    -0.1189   -3.3826    4.0850 H        1 ZINC000238901810    0.0800
37     H37     1.4968   -6.0719    2.7760 H        1 ZINC000238901810    0.1300
38     H38    -0.6889   -6.5506   -0.8766 H        1 ZINC000238901810    0.0900
39     H39    -1.8223   -6.4187    0.4921 H        1 ZINC000238901810    0.1000
40     H40     0.1790   -4.2917   -0.4062 H        1 ZINC000238901810    0.0700
41     H41    -1.5903   -4.2263   -0.6106 H        1 ZINC000238901810    0.0900
42     H42    -2.3435   -5.5007    2.0521 H        1 ZINC000238901810    0.0600
43     H43    -2.3945   -3.9937    2.9979 H        1 ZINC000238901810    0.0600
44     H44    -3.0841   -4.0387    1.3576 H        1 ZINC000238901810    0.0700
45     H45     2.5479    0.7220    1.2769 H        1 ZINC000238901810    0.0700
46     H46     2.8605   -1.0359    1.3533 H        1 ZINC000238901810    0.0700
47     H47     2.7420    0.6403   -1.0021 H        1 ZINC000238901810    0.0700
48     H48     2.9981   -1.1262   -0.9294 H        1 ZINC000238901810    0.0700
49     H49     1.2513    0.0206   -3.0881 H        1 ZINC000238901810    0.3800
@<TRIPOS>BOND
1     1     2     1
2     1     26    1
3     1     27    1
4     1     28    1
5     2     19    1
6     2     23    1
7     2     3     1
8     3     4     1
9     3     29    1
10    3     30    1
11    4     5     1
12    4     31    1
13    4     32    1
14    5     6     1
15    5     17    1
16    5     7     1
17    7     8     1
18    7     9     1
19    7     19    1
20    9     10    1
21    9     33    1
22    9     34    1
23    10    11    1
24    10    35    1
25    10    36    1
26    11    17    1
27    11    12    2
28    12    13    1
29    12    37    1
30    13    14    2
31    13    15    1
32    15    16    1
33    15    38    1
34    15    39    1
35    16    17    1
36    16    40    1
37    16    41    1
38    17    18    1
39    18    42    1
40    18    43    1
41    18    44    1
42    19    20    1
43    19    21    1
44    21    22    1
45    21    45    1
46    21    46    1
47    22    23    1
48    22    47    1
49    22    48    1
50    23    24    1
51    23    25    1
52    25    49    1
@<TRIPOS>SUBSTRUCTURE
1   ZINC000238901810 1     RESIDUE    1   A     ZIN   1
