@<TRIPOS>MOLECULE
ZINC000004217690
49    52    1     0     0
SMALL
USER_CHARGES
@<TRIPOS>ATOM
1      C1     -0.0869    1.5466    0.1131 C.3      1 ZINC000004217690   -0.1500
2      C2     -0.0697    0.0168    0.0947 C.3      1 ZINC000004217690   -0.0800
3      H3      0.4122   -0.3312   -0.8190 H        1 ZINC000004217690    0.0800
4      C4     -1.5048   -0.5115    0.1491 C.3      1 ZINC000004217690   -0.0900
5      C5     -2.1213   -0.1158    1.4784 C.2      1 ZINC000004217690   -0.0200
6      C6     -3.3289    0.4478    1.4581 C.2      1 ZINC000004217690   -0.2500
7      C7     -3.9789    0.8368    2.7142 C.2      1 ZINC000004217690    0.3900
8      O8     -4.8633    1.6669    2.7451 O.2      1 ZINC000004217690   -0.4600
9      C9     -3.4880    0.1468    3.9718 C.3      1 ZINC000004217690   -0.1700
10     C10    -1.9629    0.2405    3.9790 C.3      1 ZINC000004217690   -0.1100
11     C11    -1.3551   -0.3864    2.7365 C.3      1 ZINC000004217690   -0.0600
12     H12    -1.3328   -1.4667    2.8798 H        1 ZINC000004217690    0.0900
13     C13     0.0913    0.1006    2.5849 C.3      1 ZINC000004217690   -0.0800
14     H14     0.0913    1.1864    2.4889 H        1 ZINC000004217690    0.0800
15     C15     0.8822   -0.2874    3.8309 C.3      1 ZINC000004217690   -0.1200
16     C16     2.3710    0.0677    3.6922 C.3      1 ZINC000004217690   -0.1000
17     C17     2.8876   -0.6461    2.4578 C.3      1 ZINC000004217690   -0.0600
18     C18     2.5844   -2.1423    2.5592 C.3      1 ZINC000004217690   -0.1300
19     C19     4.3592   -0.4353    2.1162 C.3      1 ZINC000004217690    0.1100
20     H20     4.6996    0.5298    2.4914 H        1 ZINC000004217690    0.0600
21     O21     5.1516   -1.4881    2.6691 O.3      1 ZINC000004217690   -0.5600
22     C22     4.4285   -0.4644    0.5689 C.3      1 ZINC000004217690   -0.1600
23     C23     2.9651   -0.6040    0.0675 C.3      1 ZINC000004217690   -0.1100
24     C24     2.1472   -0.0408    1.2351 C.3      1 ZINC000004217690   -0.0800
25     H25     2.2101    1.0473    1.2522 H        1 ZINC000004217690    0.0800
26     C26     0.7042   -0.5011    1.3106 C.3      1 ZINC000004217690   -0.0700
27     H27     0.6620   -1.5894    1.3547 H        1 ZINC000004217690    0.0900
28     H28     0.9358    1.9219    0.0766 H        1 ZINC000004217690    0.0600
29     H29    -0.6398    1.9141   -0.7514 H        1 ZINC000004217690    0.0500
30     H30    -0.5689    1.8935    1.0271 H        1 ZINC000004217690    0.0600
31     H31    -2.0847   -0.0785   -0.6659 H        1 ZINC000004217690    0.0800
32     H32    -1.4980   -1.5977    0.0585 H        1 ZINC000004217690    0.0800
33     H33    -3.8291    0.6185    0.5162 H        1 ZINC000004217690    0.1300
34     H34    -3.8940    0.6466    4.8512 H        1 ZINC000004217690    0.0900
35     H35    -3.7949   -0.8991    3.9643 H        1 ZINC000004217690    0.1000
36     H36    -1.6715    1.2897    4.0265 H        1 ZINC000004217690    0.0700
37     H37    -1.5795   -0.2737    4.8603 H        1 ZINC000004217690    0.0800
38     H38     0.4699    0.2389    4.6919 H        1 ZINC000004217690    0.0700
39     H39     0.7864   -1.3610    3.9929 H        1 ZINC000004217690    0.0700
40     H40     2.4864    1.1451    3.5738 H        1 ZINC000004217690    0.0600
41     H41     2.9172   -0.2707    4.5727 H        1 ZINC000004217690    0.0700
42     H42     1.5126   -2.2874    2.6942 H        1 ZINC000004217690    0.0600
43     H43     2.9063   -2.6410    1.6450 H        1 ZINC000004217690    0.0500
44     H44     3.1183   -2.5643    3.4106 H        1 ZINC000004217690    0.0600
45     H45     6.0973   -1.4074    2.4841 H        1 ZINC000004217690    0.3800
46     H46     4.8648    0.4624    0.1964 H        1 ZINC000004217690    0.0700
47     H47     5.0207   -1.3172    0.2369 H        1 ZINC000004217690    0.0700
48     H48     2.8083   -0.0121   -0.8342 H        1 ZINC000004217690    0.0700
49     H49     2.7160   -1.6505   -0.1085 H        1 ZINC000004217690    0.0700
@<TRIPOS>BOND
1     1     2     1
2     1     28    1
3     1     29    1
4     1     30    1
5     2     3     1
6     2     26    1
7     2     4     1
8     4     5     1
9     4     31    1
10    4     32    1
11    5     11    1
12    5     6     2
13    6     7     1
14    6     33    1
15    7     8     2
16    7     9     1
17    9     10    1
18    9     34    1
19    9     35    1
20    10    11    1
21    10    36    1
22    10    37    1
23    11    12    1
24    11    13    1
25    13    14    1
26    13    26    1
27    13    15    1
28    15    16    1
29    15    38    1
30    15    39    1
31    16    17    1
32    16    40    1
33    16    41    1
34    17    24    1
35    17    18    1
36    17    19    1
37    18    42    1
38    18    43    1
39    18    44    1
40    19    20    1
41    19    21    1
42    19    22    1
43    21    45    1
44    22    23    1
45    22    46    1
46    22    47    1
47    23    24    1
48    23    48    1
49    23    49    1
50    24    25    1
51    24    26    1
52    26    27    1
@<TRIPOS>SUBSTRUCTURE
1   ZINC000004217690 1     RESIDUE    1   A     ZIN   1
