@<TRIPOS>MOLECULE
ZINC000000162515
  21   21    0    0    0
SMALL
USER_CHARGES
NO_NAME
@<TRIPOS>ATOM
    1 C1       -0.0173     1.4248     0.0099 C.3    1 <0>       0.0300
    2 O2        0.0021    -0.0041     0.0020 O.3    1 <0>      -0.3100
    3 C3        0.6062    -0.6075    -1.0565 C.ar   1 <0>      -0.0300
    4 C4        1.1699     0.1575    -2.0571 C.ar   1 <0>      -0.1000
    5 C5        1.7913    -0.4677    -3.1457 C.ar   1 <0>      -0.3000
    6 C6        2.3936     0.3406    -4.2138 C.2    1 <0>       0.4000
    7 C7        3.0616    -0.3343    -5.3840 C.3    1 <0>      -0.2000
    8 O8        2.3534     1.5514    -4.1540 O.2    1 <0>      -0.5100
    9 C9        1.8369    -1.8651    -3.2124 C.ar   1 <0>      -0.0300
   10 C10       1.2718    -2.6207    -2.2093 C.ar   1 <0>      -0.2700
   11 C11       0.6609    -1.9999    -1.1275 C.ar   1 <0>       0.2900
   12 O12       0.1056    -2.7501    -0.1418 O.3    1 <0>      -0.6900
   13 H13       1.0053     1.8021     0.0021 H      1 <0>       0.0400
   14 H14      -0.5445     1.7859    -0.8732 H      1 <0>       0.0400
   15 H15      -0.5275     1.7763     0.9067 H      1 <0>       0.0800
   16 H16       1.1318     1.2353    -2.0012 H      1 <0>       0.1100
   17 H17       2.3290    -0.5016    -6.1736 H      1 <0>       0.0800
   18 H18       3.8631     0.3011    -5.7608 H      1 <0>       0.0700
   19 H19       3.4757    -1.2904    -5.0641 H      1 <0>       0.0800
   20 H20       2.3149    -2.3506    -4.0504 H      1 <0>       0.1100
   21 H21       1.3076    -3.6988    -2.2618 H      1 <0>       0.1100
@<TRIPOS>BOND
   1    1    2 1
   2    1   13 1
   3    1   14 1
   4    1   15 1
   5    2    3 1
   6    3   11 ar
   7    3    4 ar
   8    4    5 ar
   9    4   16 1
  10    5    6 1
  11    5    9 ar
  12    6    7 1
  13    6    8 2
  14    7   17 1
  15    7   18 1
  16    7   19 1
  17    9   10 ar
  18    9   20 1
  19   10   11 ar
  20   10   21 1
  21   11   12 1
