@<TRIPOS>MOLECULE
ZINC000095837013
47    49    1     0     0
SMALL
USER_CHARGES
@<TRIPOS>ATOM
1      C1     -0.0656    1.4166   -0.0119 C.3      1 ZINC000095837013    0.0200
2      O2     -0.0277   -0.0119   -0.0127 O.3      1 ZINC000095837013   -0.2900
3      C3      0.5895   -0.6120   -1.0635 C.ar     1 ZINC000095837013    0.2000
4      C4      1.1520    0.1561   -2.0697 C.ar     1 ZINC000095837013   -0.2400
5      C5      1.7812   -0.4527   -3.1402 C.ar     1 ZINC000095837013   -0.0200
6      C6      1.8546   -1.8311   -3.2168 C.ar     1 ZINC000095837013   -0.2500
7      C7      1.2971   -2.6151   -2.2196 C.ar     1 ZINC000095837013    0.1700
8      O8      1.3703   -3.9693   -2.2969 O.3      1 ZINC000095837013   -0.3100
9      C9      2.0372   -4.5191   -3.4349 C.3      1 ZINC000095837013    0.0600
10     C10     2.0194   -6.0465   -3.3477 C.3      1 ZINC000095837013   -0.1600
11     C11     2.7334   -6.6352   -4.5662 C.3      1 ZINC000095837013    0.0000
12     N12     2.7164   -8.1017   -4.4825 N.4      1 ZINC000095837013   -0.6400
13     H13     3.1873   -8.4899   -5.2860 H        1 ZINC000095837013    0.4400
14     H14     3.1889   -8.3961   -3.6410 H        1 ZINC000095837013    0.4400
15     H15     1.7613   -8.4264   -4.4630 H        1 ZINC000095837013    0.4400
16     C16     0.6640   -2.0077   -1.1299 C.ar     1 ZINC000095837013   -0.1000
17     C17     0.0666   -2.8359   -0.0607 C.2      1 ZINC000095837013    0.1500
18     C18     0.1868   -2.6295    1.2844 C.2      1 ZINC000095837013   -0.2300
19     C19    -0.5303   -3.6398    1.9381 C.2      1 ZINC000095837013    0.3000
20     N20    -0.6580   -3.7872    3.3247 N.pl3    1 ZINC000095837013   -0.6000
21     C21     0.0563   -2.9610    4.1782 C.ar     1 ZINC000095837013    0.3800
22     C22     0.0165   -3.1800    5.5575 C.ar     1 ZINC000095837013    0.0300
23     N23     0.6941   -2.3964    6.3686 N.ar     1 ZINC000095837013   -0.3700
24     C24     1.4189   -1.3930    5.8744 C.ar     1 ZINC000095837013    0.0800
25     C25     2.1570   -0.5400    6.7567 C.1      1 ZINC000095837013    0.2700
26     N26     2.7425    0.1366    7.4566 N.1      1 ZINC000095837013   -0.3800
27     C27     1.4586   -1.1743    4.4965 C.ar     1 ZINC000095837013    0.1600
28     N28     0.7825   -1.9648    3.6839 N.ar     1 ZINC000095837013   -0.4800
29     N29    -1.0625   -4.4251    1.0305 N.2      1 ZINC000095837013   -0.3200
30     N30    -0.7101   -3.9424   -0.2362 N.pl3    1 ZINC000095837013   -0.4600
31     H31     0.9521    1.8070   -0.0157 H        1 ZINC000095837013    0.0600
32     H32    -0.5923    1.7665   -0.8997 H        1 ZINC000095837013    0.0600
33     H33    -0.5854    1.7658    0.8802 H        1 ZINC000095837013    0.1100
34     H34     1.0986    1.2336   -2.0182 H        1 ZINC000095837013    0.1400
35     H35     2.2176    0.1523   -3.9212 H        1 ZINC000095837013    0.1400
36     H36     2.3475   -2.2982   -4.0566 H        1 ZINC000095837013    0.1300
37     H37     1.5267   -4.2011   -4.3439 H        1 ZINC000095837013    0.0800
38     H38     3.0690   -4.1684   -3.4559 H        1 ZINC000095837013    0.0800
39     H39     2.5299   -6.3646   -2.4387 H        1 ZINC000095837013    0.1000
40     H40     0.9876   -6.3973   -3.3267 H        1 ZINC000095837013    0.1000
41     H41     2.2229   -6.3172   -5.4752 H        1 ZINC000095837013    0.1400
42     H42     3.7652   -6.2844   -4.5872 H        1 ZINC000095837013    0.1400
43     H43     0.7366   -1.8302    1.7590 H        1 ZINC000095837013    0.1900
44     H44    -1.2462   -4.4676    3.6880 H        1 ZINC000095837013    0.4300
45     H45    -0.5711   -3.9928    5.9581 H        1 ZINC000095837013    0.1800
46     H46     2.0453   -0.3613    4.0951 H        1 ZINC000095837013    0.1800
47     H47    -0.9678   -4.3302   -1.0872 H        1 ZINC000095837013    0.4400
@<TRIPOS>BOND
1     1     2     1
2     1     31    1
3     1     32    1
4     1     33    1
5     2     3     1
6     3     16    ar
7     3     4     ar
8     4     5     ar
9     4     34    1
10    5     6     ar
11    5     35    1
12    6     7     ar
13    6     36    1
14    7     8     1
15    7     16    ar
16    8     9     1
17    9     10    1
18    9     37    1
19    9     38    1
20    10    11    1
21    10    39    1
22    10    40    1
23    11    12    1
24    11    41    1
25    11    42    1
26    12    13    1
27    12    14    1
28    12    15    1
29    16    17    1
30    17    30    1
31    17    18    2
32    18    19    1
33    18    43    1
34    19    20    1
35    19    29    2
36    20    21    1
37    20    44    1
38    21    28    ar
39    21    22    ar
40    22    23    ar
41    22    45    1
42    23    24    ar
43    24    25    1
44    24    27    ar
45    25    26    3
46    27    28    ar
47    27    46    1
48    29    30    1
49    30    47    1
@<TRIPOS>SUBSTRUCTURE
1   ZINC000095837013 1     RESIDUE    1   A     ZIN   1
