@<TRIPOS>MOLECULE
ZINC000012336757
  30   31    0    0    0
SMALL
USER_CHARGES
NO_NAME
@<TRIPOS>ATOM
    1 N1       -0.0166     1.3714     0.0096 N.pl3  1 <0>      -0.8200
    2 C2        0.0021    -0.0041     0.0020 C.2    1 <0>       0.5000
    3 N3       -1.1354    -0.6867     0.0037 N.2    1 <0>      -0.6200
    4 C4       -1.1293    -2.0185    -0.0041 C.2    1 <0>       0.6600
    5 O5       -2.1886    -2.6233    -0.0028 O.2    1 <0>      -0.4800
    6 N6        0.0264    -2.7078    -0.0137 N.am   1 <0>      -0.5200
    7 C7        0.0011    -4.1726    -0.0226 C.3    1 <0>       0.2900
    8 H8        1.0109    -4.5681    -0.1313 H      1 <0>       0.1100
    9 O9       -0.8451    -4.6544    -1.0892 O.3    1 <0>      -0.3400
   10 C10      -1.1945    -6.0054    -0.7169 C.3    1 <0>       0.0500
   11 H11      -0.3685    -6.6836    -0.9310 H      1 <0>       0.0900
   12 C12      -2.4557    -6.4530    -1.4584 C.3    1 <0>       0.0800
   13 O13      -2.1776    -6.5481    -2.8569 O.3    1 <0>      -0.5600
   14 C14      -1.4566    -5.9405     0.8041 C.3    1 <0>       0.0500
   15 H15      -1.0906    -6.8430     1.2936 H      1 <0>       0.0800
   16 O16      -2.8501    -5.7609     1.0649 O.3    1 <0>      -0.5300
   17 C17      -0.6493    -4.7070     1.2727 C.3    1 <0>       0.0800
   18 H18       0.1138    -5.0013     1.9933 H      1 <0>       0.0800
   19 O19      -1.5191    -3.7251     1.8395 O.3    1 <0>      -0.5100
   20 C20       1.2200    -2.0505    -0.0158 C.2    1 <0>       0.1900
   21 C21       1.2303    -0.6965    -0.0134 C.2    1 <0>      -0.3100
   22 H22       0.8168     1.8678     0.0043 H      1 <0>       0.4100
   23 H23      -0.8631     1.8449     0.0162 H      1 <0>       0.4100
   24 H24      -2.7713    -7.4267    -1.0837 H      1 <0>       0.0600
   25 H25      -3.2508    -5.7256    -1.2948 H      1 <0>       0.0700
   26 H26      -2.9342    -6.8276    -3.3903 H      1 <0>       0.3800
   27 H27      -3.4073    -6.4804     0.7380 H      1 <0>       0.3800
   28 H28      -2.0004    -4.0300     2.6208 H      1 <0>       0.3800
   29 H29       2.1477    -2.6035    -0.0235 H      1 <0>       0.1700
   30 H30       2.1649    -0.1552    -0.0154 H      1 <0>       0.1500
@<TRIPOS>BOND
   1    1    2 1
   2    1   22 1
   3    1   23 1
   4    2   21 1
   5    2    3 2
   6    3    4 1
   7    4    5 2
   8    4    6 am
   9    6    7 1
  10    6   20 1
  11    7    8 1
  12    7   17 1
  13    7    9 1
  14    9   10 1
  15   10   11 1
  16   10   12 1
  17   10   14 1
  18   12   13 1
  19   12   24 1
  20   12   25 1
  21   13   26 1
  22   14   15 1
  23   14   16 1
  24   14   17 1
  25   16   27 1
  26   17   18 1
  27   17   19 1
  28   19   28 1
  29   20   21 2
  30   20   29 1
  31   21   30 1
