@<TRIPOS>MOLECULE
ZINC000003820616
59    61    1     0     0
SMALL
USER_CHARGES
@<TRIPOS>ATOM
1      C1      0.3296    1.5763    0.4813 C.3      1 ZINC000003820616   -0.1900
2      C2      0.2587    0.0614    0.2789 C.3      1 ZINC000003820616   -0.0200
3      N3      0.7674   -0.2785   -1.0566 N.4      1 ZINC000003820616   -0.3800
4      H4      0.2655    0.2521   -1.7528 H        1 ZINC000003820616    0.4200
5      C5      2.1984    0.0445   -1.1324 C.3      1 ZINC000003820616   -0.0200
6      C6      2.6953   -0.1734   -2.5630 C.3      1 ZINC000003820616   -0.1900
7      C7      0.5756   -1.7140   -1.3029 C.3      1 ZINC000003820616    0.0400
8      C8     -0.8986   -2.0236   -1.3470 C.ar     1 ZINC000003820616   -0.1500
9      C9     -1.5635   -2.3650   -0.1712 C.ar     1 ZINC000003820616   -0.1200
10     C10    -2.8946   -2.6504   -0.1763 C.ar     1 ZINC000003820616   -0.0800
11     C11    -3.6115   -2.6008   -1.3835 C.ar     1 ZINC000003820616   -0.0400
12     C12    -4.9865   -2.8884   -1.4283 C.ar     1 ZINC000003820616   -0.0800
13     C13    -5.6483   -2.8298   -2.6160 C.ar     1 ZINC000003820616   -0.0700
14     C14    -7.1227   -3.1383   -2.6601 C.3      1 ZINC000003820616    0.1200
15     O15    -7.8793   -1.9167   -2.4514 O.3      1 ZINC000003820616   -0.3600
16     C16    -9.2217   -2.0197   -2.4617 C.2      1 ZINC000003820616    0.6500
17     O17    -9.7466   -3.1009   -2.6402 O.2      1 ZINC000003820616   -0.5400
18     N18    -9.9832   -0.9236   -2.2741 N.am     1 ZINC000003820616   -0.6500
19     C19   -11.3688   -1.0457   -2.1762 C.ar     1 ZINC000003820616    0.1900
20     C20   -11.9256   -2.1648   -1.5653 C.ar     1 ZINC000003820616   -0.1200
21     C21   -13.2931   -2.2885   -1.4670 C.ar     1 ZINC000003820616   -0.0300
22     C22   -14.1224   -1.2880   -1.9815 C.ar     1 ZINC000003820616   -0.1400
23     C23   -15.5889   -1.4170   -1.8775 C.2      1 ZINC000003820616    0.5700
24     O24   -16.0769   -2.3944   -1.3439 O.2      1 ZINC000003820616   -0.5100
25     N25   -16.3872   -0.4513   -2.3741 N.am     1 ZINC000003820616   -0.5900
26     O26   -17.7942   -0.5750   -2.2744 O.3      1 ZINC000003820616   -0.3100
27     C27   -13.5598   -0.1650   -2.5941 C.ar     1 ZINC000003820616   -0.0600
28     C28   -12.1913   -0.0453   -2.6847 C.ar     1 ZINC000003820616   -0.1500
29     C29    -4.9831   -2.4884   -3.7923 C.ar     1 ZINC000003820616   -0.0800
30     C30    -3.6523   -2.2035   -3.7873 C.ar     1 ZINC000003820616   -0.1000
31     C31    -2.9350   -2.2535   -2.5797 C.ar     1 ZINC000003820616   -0.0500
32     C32    -1.5617   -1.9600   -2.5341 C.ar     1 ZINC000003820616   -0.0700
33     H33     1.3722    1.8942    0.4835 H        1 ZINC000003820616    0.0800
34     H34    -0.2010    2.0763   -0.3290 H        1 ZINC000003820616    0.0800
35     H35    -0.1320    1.8376    1.4335 H        1 ZINC000003820616    0.1100
36     H36     0.8656   -0.4351    1.0360 H        1 ZINC000003820616    0.1300
37     H37    -0.7761   -0.2691    0.3686 H        1 ZINC000003820616    0.1300
38     H38     2.3513    1.0859   -0.8493 H        1 ZINC000003820616    0.1300
39     H39     2.7533   -0.6021   -0.4526 H        1 ZINC000003820616    0.1300
40     H40     2.6277   -1.2320   -2.8139 H        1 ZINC000003820616    0.0800
41     H41     2.0799    0.4037   -3.2532 H        1 ZINC000003820616    0.0800
42     H42     3.7324    0.1530   -2.6410 H        1 ZINC000003820616    0.1100
43     H43     1.0321   -1.9834   -2.2553 H        1 ZINC000003820616    0.1400
44     H44     1.0432   -2.2858   -0.5013 H        1 ZINC000003820616    0.1400
45     H45    -1.0147   -2.4043    0.7581 H        1 ZINC000003820616    0.1300
46     H46    -3.3967   -2.9139    0.7429 H        1 ZINC000003820616    0.1400
47     H47    -5.5151   -3.1548   -0.5250 H        1 ZINC000003820616    0.1400
48     H48    -7.3766   -3.5613   -3.6320 H        1 ZINC000003820616    0.0900
49     H49    -7.3674   -3.8555   -1.8766 H        1 ZINC000003820616    0.0900
50     H50    -9.5673   -0.0499   -2.2070 H        1 ZINC000003820616    0.4200
51     H51   -11.2842   -2.9376   -1.1680 H        1 ZINC000003820616    0.1400
52     H52   -13.7247   -3.1578   -0.9933 H        1 ZINC000003820616    0.1500
53     H53   -15.9978    0.3285   -2.7998 H        1 ZINC000003820616    0.4100
54     H54   -18.2824    0.1661   -2.6584 H        1 ZINC000003820616    0.3900
55     H55   -14.1978    0.6098   -2.9930 H        1 ZINC000003820616    0.1300
56     H56   -11.7559    0.8224   -3.1577 H        1 ZINC000003820616    0.1400
57     H57    -5.5319   -2.4496   -4.7216 H        1 ZINC000003820616    0.1400
58     H58    -3.1500   -1.9408   -4.7066 H        1 ZINC000003820616    0.1400
59     H59    -1.0342   -1.6893   -3.4368 H        1 ZINC000003820616    0.1400
@<TRIPOS>BOND
1     1     2     1
2     1     33    1
3     1     34    1
4     1     35    1
5     2     3     1
6     2     36    1
7     2     37    1
8     3     4     1
9     3     5     1
10    3     7     1
11    5     6     1
12    5     38    1
13    5     39    1
14    6     40    1
15    6     41    1
16    6     42    1
17    7     8     1
18    7     43    1
19    7     44    1
20    8     32    ar
21    8     9     ar
22    9     10    ar
23    9     45    1
24    10    11    ar
25    10    46    1
26    11    31    ar
27    11    12    ar
28    12    13    ar
29    12    47    1
30    13    14    1
31    13    29    ar
32    14    15    1
33    14    48    1
34    14    49    1
35    15    16    1
36    16    17    2
37    16    18    am
38    18    19    1
39    18    50    1
40    19    28    ar
41    19    20    ar
42    20    21    ar
43    20    51    1
44    21    22    ar
45    21    52    1
46    22    23    1
47    22    27    ar
48    23    24    2
49    23    25    am
50    25    26    1
51    25    53    1
52    26    54    1
53    27    28    ar
54    27    55    1
55    28    56    1
56    29    30    ar
57    29    57    1
58    30    31    ar
59    30    58    1
60    31    32    ar
61    32    59    1
@<TRIPOS>SUBSTRUCTURE
1   ZINC000003820616 1     RESIDUE    1   A     ZIN   1
