@<TRIPOS>MOLECULE
ZINC000004626789
  40   43    0    0    0
SMALL
USER_CHARGES
NO_NAME
@<TRIPOS>ATOM
    1 C1       -0.0225     1.8097     0.0120 C.3    1 <0>      -0.5000
    2 S2        0.0021    -0.0041     0.0020 S.o    1 <0>       1.3300
    3 O3        0.8960    -0.4711     1.0030 O.2    1 <0>      -0.8600
    4 C4        0.8516    -0.3807    -1.4950 C.ar   1 <0>      -0.4600
    5 C5        0.1397    -0.5333    -2.6714 C.ar   1 <0>      -0.0400
    6 C6        0.7993    -0.8288    -3.8469 C.ar   1 <0>      -0.1100
    7 C7        2.1864    -0.9730    -3.8475 C.ar   1 <0>       0.0300
    8 C8        2.9006    -1.2897    -5.1062 C.2    1 <0>       0.0700
    9 C9        4.1563    -0.8410    -5.4699 C.2    1 <0>       0.0400
   10 C10       5.0438     0.0402    -4.6866 C.ar   1 <0>       0.0300
   11 C11       6.4101    -0.2436    -4.5581 C.ar   1 <0>      -0.1700
   12 C12       7.2022     0.6072    -3.8173 C.ar   1 <0>       0.1100
   13 N13       6.6901     1.6751    -3.2346 N.ar   1 <0>      -0.4800
   14 C14       5.4094     1.9795    -3.3298 C.ar   1 <0>       0.1100
   15 C15       4.5452     1.1875    -4.0552 C.ar   1 <0>      -0.1500
   16 N16       4.4133    -1.3830    -6.7123 N.pl3  1 <0>      -0.4700
   17 C17       5.4449    -1.4152    -7.7596 C.3    1 <0>       0.1000
   18 C18       5.0931    -2.6273    -8.6485 C.3    1 <0>      -0.1300
   19 C19       3.5702    -2.7541    -8.4204 C.3    1 <0>      -0.0400
   20 C20       3.3428    -2.1258    -7.0585 C.2    1 <0>       0.2100
   21 N21       2.4495    -2.0710    -6.1023 N.2    1 <0>      -0.4600
   22 C22       2.8985    -0.8176    -2.6585 C.ar   1 <0>      -0.1200
   23 C23       2.2283    -0.5171    -1.4904 C.ar   1 <0>      -0.0500
   24 H24       1.0001     2.1870     0.0043 H      1 <0>       0.0800
   25 H25      -0.5497     2.1708    -0.8711 H      1 <0>       0.1100
   26 H26      -0.5327     2.1613     0.9088 H      1 <0>       0.1100
   27 H27      -0.9345    -0.4214    -2.6697 H      1 <0>       0.1400
   28 H28       0.2424    -0.9484    -4.7645 H      1 <0>       0.1300
   29 H29       6.8358    -1.1158    -5.0319 H      1 <0>       0.1300
   30 H30       8.2563     0.3970    -3.7121 H      1 <0>       0.1600
   31 H31       5.0339     2.8635    -2.8358 H      1 <0>       0.1600
   32 H32       3.4985     1.4429    -4.1291 H      1 <0>       0.1400
   33 H33       5.4159    -0.4967    -8.3458 H      1 <0>       0.0900
   34 H34       6.4307    -1.5479    -7.3139 H      1 <0>       0.0900
   35 H35       5.3149    -2.4207    -9.6955 H      1 <0>       0.1100
   36 H36       5.6141    -3.5231    -8.3104 H      1 <0>       0.0900
   37 H37       3.0229    -2.2078    -9.1885 H      1 <0>       0.1000
   38 H38       3.2721    -3.8025    -8.4111 H      1 <0>       0.1000
   39 H39       3.9728    -0.9281    -2.6528 H      1 <0>       0.1200
   40 H40       2.7787    -0.3961    -0.5691 H      1 <0>       0.1300
@<TRIPOS>BOND
   1    1    2 1
   2    1   24 1
   3    1   25 1
   4    1   26 1
   5    2    3 2
   6    2    4 1
   7    4   23 ar
   8    4    5 ar
   9    5    6 ar
  10    5   27 1
  11    6    7 ar
  12    6   28 1
  13    7    8 1
  14    7   22 ar
  15    8   21 1
  16    8    9 2
  17    9   10 1
  18    9   16 1
  19   10   15 ar
  20   10   11 ar
  21   11   12 ar
  22   11   29 1
  23   12   13 ar
  24   12   30 1
  25   13   14 ar
  26   14   15 ar
  27   14   31 1
  28   15   32 1
  29   16   20 1
  30   16   17 1
  31   17   18 1
  32   17   33 1
  33   17   34 1
  34   18   19 1
  35   18   35 1
  36   18   36 1
  37   19   20 1
  38   19   37 1
  39   19   38 1
  40   20   21 2
  41   22   23 ar
  42   22   39 1
  43   23   40 1
