@<TRIPOS>MOLECULE
ZINC000008034829
  12   11    0    0    0
SMALL
USER_CHARGES
NO_NAME
@<TRIPOS>ATOM
    1 N1       -0.0169     1.3968     0.0097 N.pl3  1 <0>      -0.7500
    2 N2        0.0021    -0.0041     0.0020 N.pl3  1 <0>      -0.4200
    3 H3        0.8486    -0.4776    -0.0086 H      1 <0>       0.4600
    4 C4       -1.1139    -0.6688     0.0091 C.cat  1 <0>       0.7200
    5 N5       -2.3253     0.0088     0.0243 N.pl3  1 <0>      -0.8200
    6 N6       -1.0951    -2.0567     0.0015 N.pl3  1 <0>      -0.8100
    7 H7        0.8164     1.8932     0.0044 H      1 <0>       0.4400
    8 H8       -0.8635     1.8703     0.0163 H      1 <0>       0.4200
    9 H9       -2.3384     0.9787     0.0296 H      1 <0>       0.4300
   10 H10      -3.1586    -0.4876     0.0296 H      1 <0>       0.4400
   11 H11      -0.2486    -2.5302    -0.0092 H      1 <0>       0.4400
   12 H12      -1.9284    -2.5531     0.0068 H      1 <0>       0.4400
@<TRIPOS>BOND
   1    1    2 1
   2    1    7 1
   3    1    8 1
   4    2    3 1
   5    2    4 ar
   6    4    5 ar
   7    4    6 ar
   8    5    9 1
   9    5   10 1
  10    6   11 1
  11    6   12 1
