@<TRIPOS>MOLECULE
ZINC000001577272
  26   25    0    0    0
SMALL
USER_CHARGES
NO_NAME
@<TRIPOS>ATOM
    1 C1       -0.0160     1.3266     0.0093 C.2    1 <0>      -0.0900
    2 C2        0.0021    -0.0041     0.0020 C.2    1 <0>      -0.1600
    3 C3       -1.2926    -0.7753     0.0102 C.3    1 <0>      -0.1100
    4 C4        1.2845    -0.7214    -0.0141 C.2    1 <0>       0.5000
    5 O5        2.3286    -0.0995    -0.0207 O.2    1 <0>      -0.5200
    6 O6        1.3028    -2.0693    -0.0215 O.3    1 <0>      -0.3300
    7 C7        2.6053    -2.7108    -0.0374 C.3    1 <0>       0.0700
    8 C8        2.4254    -4.2301    -0.0438 C.3    1 <0>       0.0500
    9 N9        1.7746    -4.6409    -1.2951 N.3    1 <0>      -0.5400
   10 C10       2.6465    -4.3873    -2.4499 C.3    1 <0>       0.0200
   11 C11       1.3712    -6.0523    -1.2400 C.3    1 <0>       0.0200
   12 H12       0.9119     1.8793     0.0034 H      1 <0>       0.1200
   13 H13      -0.9585     1.8539     0.0167 H      1 <0>       0.1300
   14 H14      -1.6146    -0.9557    -1.0154 H      1 <0>       0.0700
   15 H15      -1.1445    -1.7285     0.5176 H      1 <0>       0.0800
   16 H16      -2.0553    -0.1993     0.5345 H      1 <0>       0.0700
   17 H17       3.1497    -2.4056    -0.9310 H      1 <0>       0.0700
   18 H18       3.1667    -2.4151     0.8489 H      1 <0>       0.0800
   19 H19       3.4001    -4.7117     0.0339 H      1 <0>       0.0600
   20 H20       1.8054    -4.5262     0.8024 H      1 <0>       0.0900
   21 H21       3.5728    -4.9506    -2.3364 H      1 <0>       0.0300
   22 H22       2.1404    -4.7005    -3.3630 H      1 <0>       0.0700
   23 H23       2.8733    -3.3227    -2.5070 H      1 <0>       0.0700
   24 H24       0.6708    -6.1982    -0.4176 H      1 <0>       0.0700
   25 H25       0.8921    -6.3302    -2.1788 H      1 <0>       0.0700
   26 H26       2.2512    -6.6759    -1.0827 H      1 <0>       0.0300
@<TRIPOS>BOND
   1    1    2 2
   2    1   12 1
   3    1   13 1
   4    2    3 1
   5    2    4 1
   6    3   14 1
   7    3   15 1
   8    3   16 1
   9    4    5 2
  10    4    6 1
  11    6    7 1
  12    7    8 1
  13    7   17 1
  14    7   18 1
  15    8    9 1
  16    8   19 1
  17    8   20 1
  18    9   10 1
  19    9   11 1
  20   10   21 1
  21   10   22 1
  22   10   23 1
  23   11   24 1
  24   11   25 1
  25   11   26 1
