@<TRIPOS>MOLECULE
ZINC000028644947
31    31    1     0     0
SMALL
USER_CHARGES
@<TRIPOS>ATOM
1      C1     -0.5367    1.4479   -0.0770 C.3      1 ZINC000028644947   -0.1100
2      C2     -0.2457   -0.0302   -0.0397 C.ar     1 ZINC000028644947   -0.1200
3      C3      0.0370   -0.7074   -1.2115 C.ar     1 ZINC000028644947   -0.0200
4      C4      0.3042   -2.0622   -1.1809 C.ar     1 ZINC000028644947   -0.1900
5      C5      0.2886   -2.7443    0.0288 C.ar     1 ZINC000028644947    0.2600
6      N6      0.5588   -4.1142    0.0634 N.pl3    1 ZINC000028644947   -0.7400
7      C7      0.7320   -4.8585   -1.1865 C.3      1 ZINC000028644947    0.1300
8      C8      1.0160   -6.3282   -0.8698 C.3      1 ZINC000028644947   -0.1700
9      C9      1.1968   -7.1055   -2.1751 C.3      1 ZINC000028644947    0.0000
10     N10     1.4695   -8.5166   -1.8710 N.4      1 ZINC000028644947   -0.6400
11     H11     2.3116   -8.5851   -1.3194 H        1 ZINC000028644947    0.4400
12     H12     0.6955   -8.9046   -1.3530 H        1 ZINC000028644947    0.4400
13     H13     1.5888   -9.0292   -2.7319 H        1 ZINC000028644947    0.4400
14     C14     0.0042   -2.0608    1.2045 C.ar     1 ZINC000028644947   -0.1100
15     N15    -0.0130   -2.7835    2.4960 N.pl3    1 ZINC000028644947    0.0300
16     O16    -0.4564   -3.9165    2.5540 O.2      1 ZINC000028644947   -0.1900
17     O17     0.4162   -2.2453    3.5008 O.2      1 ZINC000028644947   -0.1400
18     C18    -0.2564   -0.7053    1.1674 C.ar     1 ZINC000028644947   -0.0200
19     H19     0.3939    2.0044    0.0348 H        1 ZINC000028644947    0.0800
20     H20    -1.0003    1.7030   -1.0299 H        1 ZINC000028644947    0.0800
21     H21    -1.2141    1.7055    0.7372 H        1 ZINC000028644947    0.0700
22     H22     0.0486   -0.1764   -2.1519 H        1 ZINC000028644947    0.1500
23     H23     0.5246   -2.5906   -2.0967 H        1 ZINC000028644947    0.1400
24     H24     0.6318   -4.5728    0.9151 H        1 ZINC000028644947    0.4100
25     H25    -0.1777   -4.7845   -1.7824 H        1 ZINC000028644947    0.0800
26     H26     1.5681   -4.4393   -1.7461 H        1 ZINC000028644947    0.0800
27     H27     1.9256   -6.4022   -0.2738 H        1 ZINC000028644947    0.1000
28     H28     0.1798   -6.7474   -0.3101 H        1 ZINC000028644947    0.1000
29     H29     0.2872   -7.0315   -2.7711 H        1 ZINC000028644947    0.1400
30     H30     2.0330   -6.6863   -2.7348 H        1 ZINC000028644947    0.1400
31     H31    -0.4776   -0.1734    2.0809 H        1 ZINC000028644947    0.1500
@<TRIPOS>BOND
1     1     2     1
2     1     19    1
3     1     20    1
4     1     21    1
5     2     18    ar
6     2     3     ar
7     3     4     ar
8     3     22    1
9     4     5     ar
10    4     23    1
11    5     6     1
12    5     14    ar
13    6     7     1
14    6     24    1
15    7     8     1
16    7     25    1
17    7     26    1
18    8     9     1
19    8     27    1
20    8     28    1
21    9     10    1
22    9     29    1
23    9     30    1
24    10    11    1
25    10    12    1
26    10    13    1
27    14    15    1
28    14    18    ar
29    15    16    2
30    15    17    2
31    18    31    1
@<TRIPOS>SUBSTRUCTURE
1   ZINC000028644947 1     RESIDUE    1   A     ZIN   1
