@<TRIPOS>MOLECULE
ZINC000004081428
  54   57    0    0    0
SMALL
USER_CHARGES
NO_NAME
@<TRIPOS>ATOM
    1 C1       -0.7019     0.6947    -0.1272 C.3    1 <0>      -0.1700
    2 C2       -0.6058    -0.8285    -0.0193 C.3    1 <0>       0.1400
    3 O3        0.0942    -1.3607    -1.1456 O.3    1 <0>      -0.5500
    4 C4       -2.0214    -1.4500     0.0780 C.3    1 <0>      -0.1500
    5 C5       -2.1130    -2.1139     1.4791 C.3    1 <0>      -0.1100
    6 C6       -1.0680    -1.3427     2.2930 C.3    1 <0>      -0.0800
    7 H7       -1.4460    -0.3547     2.5558 H      1 <0>       0.0700
    8 C8       -0.5391    -2.0500     3.5278 C.3    1 <0>      -0.0700
    9 H9       -0.1207    -3.0193     3.2569 H      1 <0>       0.0800
   10 C10      -1.6748    -2.2276     4.5419 C.3    1 <0>      -0.0800
   11 C11      -1.1123    -2.7710     5.8230 C.2    1 <0>      -0.1500
   12 C12       0.1198    -2.5796     6.1936 C.2    1 <0>      -0.1000
   13 C13       0.5726    -3.1713     7.5179 C.3    1 <0>      -0.1200
   14 C14       1.2366    -2.0635     8.3412 C.3    1 <0>       0.1100
   15 H15       0.4968    -1.3026     8.5900 H      1 <0>       0.0500
   16 O16       1.7714    -2.6194     9.5441 O.3    1 <0>      -0.5700
   17 C17       2.3653    -1.4302     7.5259 C.3    1 <0>      -0.1200
   18 C18       1.7856    -0.7520     6.2831 C.3    1 <0>      -0.1000
   19 C19       1.1237    -1.8064     5.3914 C.3    1 <0>      -0.0100
   20 C20       2.2073    -2.7779     4.9193 C.3    1 <0>      -0.1500
   21 C21       0.5460    -1.1570     4.1451 C.3    1 <0>      -0.0700
   22 H22       0.0652    -0.2231     4.4361 H      1 <0>       0.0600
   23 C23       1.6693    -0.8344     3.1638 C.3    1 <0>      -0.1200
   24 C24       1.1281    -0.2475     1.8508 C.3    1 <0>      -0.1000
   25 C25       0.0979    -1.2233     1.2753 C.3    1 <0>      -0.0500
   26 C26       0.7202    -2.6144     1.1392 C.3    1 <0>      -0.1400
   27 H27       0.3003     1.1232    -0.1216 H      1 <0>       0.0700
   28 H28      -1.2062     0.9621    -1.0557 H      1 <0>       0.0600
   29 H29      -1.2681     1.0839     0.7190 H      1 <0>       0.0700
   30 H30      -0.3183    -1.1586    -1.9965 H      1 <0>       0.3700
   31 H31      -2.7789    -0.6721    -0.0176 H      1 <0>       0.0700
   32 H32      -2.1548    -2.2005    -0.7011 H      1 <0>       0.0700
   33 H33      -3.1078    -1.9813     1.9045 H      1 <0>       0.0700
   34 H34      -1.8543    -3.1712     1.4226 H      1 <0>       0.0700
   35 H35      -2.1476    -1.2640     4.7316 H      1 <0>       0.0700
   36 H36      -2.4127    -2.9241     4.1438 H      1 <0>       0.0700
   37 H37      -1.7604    -3.3470     6.4668 H      1 <0>       0.1000
   38 H38      -0.2890    -3.5637     8.0582 H      1 <0>       0.0700
   39 H39       1.2886    -3.9727     7.3361 H      1 <0>       0.0800
   40 H40       1.1103    -3.0391    10.1113 H      1 <0>       0.3800
   41 H41       2.8816    -0.6891     8.1360 H      1 <0>       0.0700
   42 H42       3.0707    -2.2034     7.2214 H      1 <0>       0.0700
   43 H43       1.0433    -0.0131     6.5849 H      1 <0>       0.0600
   44 H44       2.5859    -0.2593     5.7310 H      1 <0>       0.0700
   45 H45       2.5780    -3.3500     5.7699 H      1 <0>       0.0600
   46 H46       1.7873    -3.4587     4.1788 H      1 <0>       0.0600
   47 H47       3.0285    -2.2172     4.4729 H      1 <0>       0.0600
   48 H48       2.3460    -0.1136     3.6228 H      1 <0>       0.0600
   49 H49       2.2218    -1.7478     2.9435 H      1 <0>       0.0800
   50 H50       0.6107     0.6912     2.0489 H      1 <0>       0.0600
   51 H51       1.9483    -0.0806     1.1526 H      1 <0>       0.0700
   52 H52       1.1424    -2.9189     2.0969 H      1 <0>       0.0600
   53 H53      -0.0467    -3.3276     0.8369 H      1 <0>       0.0500
   54 H54       1.5084    -2.5878     0.3867 H      1 <0>       0.0600
@<TRIPOS>BOND
   1    1    2 1
   2    1   27 1
   3    1   28 1
   4    1   29 1
   5    2   25 1
   6    2    3 1
   7    2    4 1
   8    3   30 1
   9    4    5 1
  10    4   31 1
  11    4   32 1
  12    5    6 1
  13    5   33 1
  14    5   34 1
  15    6    7 1
  16    6   25 1
  17    6    8 1
  18    8    9 1
  19    8   21 1
  20    8   10 1
  21   10   11 1
  22   10   35 1
  23   10   36 1
  24   11   12 2
  25   11   37 1
  26   12   19 1
  27   12   13 1
  28   13   14 1
  29   13   38 1
  30   13   39 1
  31   14   15 1
  32   14   16 1
  33   14   17 1
  34   16   40 1
  35   17   18 1
  36   17   41 1
  37   17   42 1
  38   18   19 1
  39   18   43 1
  40   18   44 1
  41   19   20 1
  42   19   21 1
  43   20   45 1
  44   20   46 1
  45   20   47 1
  46   21   22 1
  47   21   23 1
  48   23   24 1
  49   23   48 1
  50   23   49 1
  51   24   25 1
  52   24   50 1
  53   24   51 1
  54   25   26 1
  55   26   52 1
  56   26   53 1
  57   26   54 1
