@<TRIPOS>MOLECULE
ZINC000003916663
44    47    1     0     0
SMALL
USER_CHARGES
@<TRIPOS>ATOM
1      C1     -0.0178    1.4608    0.0101 C.3      1 ZINC000003916663    0.0900
2      N2      0.0021   -0.0041    0.0020 N.pl3    1 ZINC000003916663   -0.3900
3      N3      0.0056   -0.6906   -1.2204 N.pl3    1 ZINC000003916663   -0.4000
4      H4     -0.0049   -0.1590   -2.0317 H        1 ZINC000003916663    0.4500
5      C5      0.0224   -1.9933   -1.3528 C.cat    1 ZINC000003916663    0.6300
6      N6      0.0253   -2.5801   -2.6138 N.pl3    1 ZINC000003916663   -0.7800
7      C7      0.0387   -2.8237   -0.1347 C.2      1 ZINC000003916663   -0.2400
8      C8      0.0568   -4.1121    0.2556 C.2      1 ZINC000003916663    0.2200
9      N9      0.0641   -4.1853    1.6390 N.pl3    1 ZINC000003916663   -0.4300
10     C10     0.0834   -5.4337    2.4054 C.3      1 ZINC000003916663    0.3000
11     H11     0.6821   -5.3187    3.3090 H        1 ZINC000003916663    0.1400
12     O12     0.5865   -6.5189    1.5969 O.3      1 ZINC000003916663   -0.3400
13     C13     0.1157   -7.7394    2.1928 C.3      1 ZINC000003916663    0.0900
14     H14     0.8609   -8.1232    2.8895 H        1 ZINC000003916663    0.1100
15     C15    -0.1609   -8.7773    1.1033 C.3      1 ZINC000003916663    0.1400
16     O16     1.0686   -9.1513    0.4785 O.3      1 ZINC000003916663   -0.7500
17     P17     1.1534  -10.2275   -0.7160 P.3      1 ZINC000003916663    2.2100
18     O18     0.2124   -9.7982   -1.8637 O.2      1 ZINC000003916663   -1.1100
19     O19     0.7244  -11.6154   -0.1902 O.3      1 ZINC000003916663   -1.1000
20     O20     2.6659  -10.3046   -1.2625 O.3      1 ZINC000003916663   -0.9000
21     C21    -1.1861   -7.4081    2.9479 C.3      1 ZINC000003916663    0.0500
22     H22    -2.0279   -7.9452    2.5109 H        1 ZINC000003916663    0.1000
23     O23    -1.0555   -7.7283    4.3344 O.3      1 ZINC000003916663   -0.5300
24     C24    -1.3583   -5.8794    2.7590 C.3      1 ZINC000003916663    0.0300
25     H25    -2.0418   -5.6635    1.9379 H        1 ZINC000003916663    0.0900
26     O26    -1.8068   -5.2635    3.9680 O.3      1 ZINC000003916663   -0.5300
27     C27     0.0508   -2.9377    2.1912 C.ar     1 ZINC000003916663    0.4000
28     N28     0.0493   -2.3363    3.3850 N.ar     1 ZINC000003916663   -0.5100
29     C29     0.0327   -1.0173    3.4564 C.ar     1 ZINC000003916663    0.3700
30     N30     0.0162   -0.1853    2.4196 N.ar     1 ZINC000003916663   -0.5400
31     C31     0.0227   -0.6887    1.1907 C.ar     1 ZINC000003916663    0.4800
32     C32     0.0345   -2.0695    1.1165 C.ar     1 ZINC000003916663   -0.2800
33     H33     1.0048    1.8381    0.0023 H        1 ZINC000003916663    0.0800
34     H34    -0.5450    1.8219   -0.8730 H        1 ZINC000003916663    0.0900
35     H35    -0.5280    1.8123    0.9069 H        1 ZINC000003916663    0.1200
36     H36     0.0148   -2.0232   -3.4079 H        1 ZINC000003916663    0.4300
37     H37     0.0378   -3.5463   -2.6991 H        1 ZINC000003916663    0.4500
38     H38     0.0642   -4.9621   -0.4106 H        1 ZINC000003916663    0.2100
39     H39    -0.6243   -9.6574    1.5491 H        1 ZINC000003916663    0.0800
40     H40    -0.8325   -8.3514    0.3578 H        1 ZINC000003916663    0.0700
41     H41     2.7913  -10.9348   -1.9851 H        1 ZINC000003916663    0.4200
42     H42    -1.8464   -7.5397    4.8579 H        1 ZINC000003916663    0.3900
43     H43    -2.6674   -5.5800    4.2749 H        1 ZINC000003916663    0.3900
44     H44     0.0320   -0.5767    4.4425 H        1 ZINC000003916663    0.2200
@<TRIPOS>BOND
1     1     2     1
2     1     33    1
3     1     34    1
4     1     35    1
5     2     31    1
6     2     3     1
7     3     4     1
8     3     5     ar
9     5     6     ar
10    5     7     1
11    6     36    1
12    6     37    1
13    7     32    1
14    7     8     2
15    8     9     1
16    8     38    1
17    9     10    1
18    9     27    1
19    10    11    1
20    10    24    1
21    10    12    1
22    12    13    1
23    13    14    1
24    13    15    1
25    13    21    1
26    15    16    1
27    15    39    1
28    15    40    1
29    16    17    1
30    17    18    2
31    17    19    1
32    17    20    1
33    20    41    1
34    21    22    1
35    21    23    1
36    21    24    1
37    23    42    1
38    24    25    1
39    24    26    1
40    26    43    1
41    27    32    ar
42    27    28    ar
43    28    29    ar
44    29    30    ar
45    29    44    1
46    30    31    ar
47    31    32    ar
@<TRIPOS>SUBSTRUCTURE
1   ZINC000003916663 1     RESIDUE    1   A     ZIN   1
