@<TRIPOS>MOLECULE
ZINC000008584338
  35   37    0    0    0
SMALL
USER_CHARGES
NO_NAME
@<TRIPOS>ATOM
    1 C1       -0.0176     1.4478     0.0100 C.3    1 <0>       0.0500
    2 O2        0.0021    -0.0041     0.0020 O.3    1 <0>      -0.3500
    3 C3        0.6001    -0.6015    -1.0458 C.2    1 <0>       0.6600
    4 O4        1.0921     0.0718    -1.9293 O.2    1 <0>      -0.5600
    5 N5        0.6531    -1.9464    -1.1146 N.am   1 <0>      -0.6100
    6 C6        1.2681    -2.5607    -2.1921 C.2    1 <0>       0.5200
    7 N7        1.3708    -3.8542    -2.3615 N.2    1 <0>      -0.5000
    8 C8        2.0305    -4.1116    -3.5210 C.ar   1 <0>       0.0500
    9 C9        2.4060    -5.2897    -4.1709 C.ar   1 <0>       0.0200
   10 C10       3.0854    -5.2241    -5.3669 C.ar   1 <0>      -0.4700
   11 S11       3.5587    -6.7106    -6.1862 S.o    1 <0>       1.4200
   12 O12       4.5434    -6.2670    -7.1096 O.2    1 <0>      -0.8500
   13 C13       2.1725    -7.0527    -7.2187 C.ar   1 <0>      -0.4700
   14 C14       1.1297    -7.8250    -6.7423 C.ar   1 <0>      -0.0400
   15 C15       0.0422    -8.0935    -7.5524 C.ar   1 <0>      -0.1400
   16 C16      -0.0026    -7.5892    -8.8387 C.ar   1 <0>      -0.0800
   17 C17       1.0398    -6.8161    -9.3148 C.ar   1 <0>      -0.1400
   18 C18       2.1253    -6.5441    -8.5032 C.ar   1 <0>      -0.0500
   19 C19       3.3995    -3.9971    -5.9318 C.ar   1 <0>      -0.0400
   20 C20       3.0362    -2.8243    -5.3023 C.ar   1 <0>      -0.1200
   21 C21       2.3517    -2.8712    -4.0974 C.ar   1 <0>       0.0800
   22 N22       1.8522    -1.9072    -3.2385 N.pl3  1 <0>      -0.5900
   23 H23       1.0050     1.8251     0.0023 H      1 <0>       0.0700
   24 H24      -0.5448     1.8089    -0.8731 H      1 <0>       0.0700
   25 H25      -0.5278     1.7993     0.9068 H      1 <0>       0.1100
   26 H26       0.2603    -2.4840    -0.4092 H      1 <0>       0.4400
   27 H27       2.1647    -6.2486    -3.7367 H      1 <0>       0.1500
   28 H28       1.1648    -8.2190    -5.7374 H      1 <0>       0.1400
   29 H29      -0.7722    -8.6974    -7.1804 H      1 <0>       0.1300
   30 H30      -0.8519    -7.7995    -9.4718 H      1 <0>       0.1200
   31 H31       1.0049    -6.4224   -10.3199 H      1 <0>       0.1200
   32 H32       2.9397    -5.9401    -8.8752 H      1 <0>       0.1300
   33 H33       3.9323    -3.9594    -6.8704 H      1 <0>       0.1400
   34 H34       3.2844    -1.8719    -5.7471 H      1 <0>       0.1300
   35 H35       1.9086    -0.9461    -3.3571 H      1 <0>       0.4400
@<TRIPOS>BOND
   1    1    2 1
   2    1   23 1
   3    1   24 1
   4    1   25 1
   5    2    3 1
   6    3    4 2
   7    3    5 am
   8    5    6 1
   9    5   26 1
  10    6   22 1
  11    6    7 2
  12    7    8 1
  13    8   21 ar
  14    8    9 ar
  15    9   10 ar
  16    9   27 1
  17   10   11 1
  18   10   19 ar
  19   11   12 2
  20   11   13 1
  21   13   18 ar
  22   13   14 ar
  23   14   15 ar
  24   14   28 1
  25   15   16 ar
  26   15   29 1
  27   16   17 ar
  28   16   30 1
  29   17   18 ar
  30   17   31 1
  31   18   32 1
  32   19   20 ar
  33   19   33 1
  34   20   21 ar
  35   20   34 1
  36   21   22 1
  37   22   35 1
