@<TRIPOS>MOLECULE
ZINC000043103796
51    53    1     0     0
SMALL
USER_CHARGES
@<TRIPOS>ATOM
1      O1     -2.8084    0.8477   -3.2214 O.2      1 ZINC000043103796   -0.4900
2      C2     -3.0770    1.9949   -2.9200 C.2      1 ZINC000043103796    0.5700
3      N3     -3.4487    2.8726   -3.8728 N.am     1 ZINC000043103796   -0.5900
4      O4     -3.5265    2.4591   -5.2249 O.3      1 ZINC000043103796   -0.1300
5      C5     -3.9327    3.4911   -6.1259 C.3      1 ZINC000043103796    0.0300
6      C6     -3.9819    2.9345   -7.5502 C.3      1 ZINC000043103796    0.0800
7      O7     -4.9998    1.9353   -7.6362 O.3      1 ZINC000043103796   -0.5700
8      C8     -3.0020    2.4236   -1.5125 C.ar     1 ZINC000043103796   -0.1200
9      C9     -3.1407    3.7745   -1.1811 C.ar     1 ZINC000043103796   -0.0100
10     C10    -3.0699    4.1708    0.1355 C.ar     1 ZINC000043103796   -0.1200
11     C11    -3.2205    5.6281    0.4888 C.3      1 ZINC000043103796    0.1800
12     N12    -4.5962    5.8861    0.9211 N.am     1 ZINC000043103796   -0.4700
13     O13    -4.8163    6.3103    2.2482 O.3      1 ZINC000043103796   -0.1500
14     C14    -6.0816    6.9328    2.4785 C.3      1 ZINC000043103796    0.0300
15     C15    -7.1834    6.0322    1.9069 C.3      1 ZINC000043103796   -0.1600
16     C16    -7.0257    5.9820    0.3840 C.3      1 ZINC000043103796   -0.1400
17     C17    -5.5864    5.7138    0.0373 C.2      1 ZINC000043103796    0.5100
18     O18    -5.3152    5.3212   -1.0777 O.2      1 ZINC000043103796   -0.5300
19     C19    -2.8609    3.2348    1.1395 C.ar     1 ZINC000043103796    0.1300
20     F20    -2.7931    3.6353    2.4280 F        1 ZINC000043103796   -0.1100
21     C21    -2.7220    1.8934    0.8274 C.ar     1 ZINC000043103796    0.0600
22     F22    -2.5197    0.9887    1.8101 F        1 ZINC000043103796   -0.1100
23     C23    -2.7964    1.4766   -0.4963 C.ar     1 ZINC000043103796    0.2100
24     N24    -2.6578    0.1298   -0.8137 N.pl3    1 ZINC000043103796   -0.6800
25     C25    -3.7935   -0.6661   -0.9969 C.ar     1 ZINC000043103796    0.2200
26     C26    -5.0549   -0.0869   -1.0046 C.ar     1 ZINC000043103796   -0.1600
27     C27    -6.1751   -0.8754   -1.1857 C.ar     1 ZINC000043103796   -0.0400
28     C28    -6.0416   -2.2410   -1.3588 C.ar     1 ZINC000043103796   -0.1300
29     I29    -7.7439   -3.4311   -1.6322 I        1 ZINC000043103796   -0.0300
30     C30    -4.7861   -2.8230   -1.3523 C.ar     1 ZINC000043103796   -0.0700
31     C31    -3.6609   -2.0393   -1.1774 C.ar     1 ZINC000043103796    0.0500
32     F32    -2.4351   -2.6073   -1.1710 F        1 ZINC000043103796   -0.1300
33     H33    -3.6629    3.7876   -3.6324 H        1 ZINC000043103796    0.4100
34     H34    -4.9214    3.8524   -5.8427 H        1 ZINC000043103796    0.0700
35     H35    -3.2189    4.3137   -6.0817 H        1 ZINC000043103796    0.0800
36     H36    -4.2049    3.7414   -8.2482 H        1 ZINC000043103796    0.0700
37     H37    -3.0174    2.4931   -7.8013 H        1 ZINC000043103796    0.0600
38     H38    -5.0876    1.5377   -8.5134 H        1 ZINC000043103796    0.3900
39     H39    -3.3031    4.5072   -1.9577 H        1 ZINC000043103796    0.1600
40     H40    -2.5327    5.8791    1.2962 H        1 ZINC000043103796    0.1100
41     H41    -2.9936    6.2391   -0.3849 H        1 ZINC000043103796    0.1100
42     H42    -6.2352    7.0637    3.5496 H        1 ZINC000043103796    0.1300
43     H43    -6.1077    7.9027    1.9818 H        1 ZINC000043103796    0.0700
44     H44    -7.0871    5.0278    2.3191 H        1 ZINC000043103796    0.0800
45     H45    -8.1610    6.4417    2.1614 H        1 ZINC000043103796    0.0900
46     H46    -7.6536    5.1881   -0.0205 H        1 ZINC000043103796    0.1100
47     H47    -7.3272    6.9379   -0.0443 H        1 ZINC000043103796    0.1100
48     H48    -1.7736   -0.2578   -0.9081 H        1 ZINC000043103796    0.4200
49     H49    -5.1609    0.9793   -0.8688 H        1 ZINC000043103796    0.1300
50     H50    -7.1565   -0.4247   -1.1917 H        1 ZINC000043103796    0.1400
51     H51    -4.6851   -3.8896   -1.4881 H        1 ZINC000043103796    0.1400
@<TRIPOS>BOND
1     1     2     2
2     2     3     am
3     2     8     1
4     3     4     1
5     3     33    1
6     4     5     1
7     5     6     1
8     5     34    1
9     5     35    1
10    6     7     1
11    6     36    1
12    6     37    1
13    7     38    1
14    8     23    ar
15    8     9     ar
16    9     10    ar
17    9     39    1
18    10    11    1
19    10    19    ar
20    11    12    1
21    11    40    1
22    11    41    1
23    12    17    am
24    12    13    1
25    13    14    1
26    14    15    1
27    14    42    1
28    14    43    1
29    15    16    1
30    15    44    1
31    15    45    1
32    16    17    1
33    16    46    1
34    16    47    1
35    17    18    2
36    19    20    1
37    19    21    ar
38    21    22    1
39    21    23    ar
40    23    24    1
41    24    25    1
42    24    48    1
43    25    31    ar
44    25    26    ar
45    26    27    ar
46    26    49    1
47    27    28    ar
48    27    50    1
49    28    29    1
50    28    30    ar
51    30    31    ar
52    30    51    1
53    31    32    1
@<TRIPOS>SUBSTRUCTURE
1   ZINC000043103796 1     RESIDUE    1   A     ZIN   1
