@<TRIPOS>MOLECULE
ZINC000021983589
44    47    1     0     0
SMALL
USER_CHARGES
@<TRIPOS>ATOM
1      N1     -0.0116    1.0048    0.0076 N.4      1 ZINC000021983589   -0.6300
2      H2      0.0021   -0.0041    0.0020 H        1 ZINC000021983589    0.4400
3      H3      0.9350    1.3541    0.0004 H        1 ZINC000021983589    0.4400
4      H4     -0.4996    1.3391   -0.8099 H        1 ZINC000021983589    0.4400
5      C5     -0.6992    1.4786    1.2162 C.3      1 ZINC000021983589    0.0000
6      H6     -0.7357    2.5678    1.2352 H        1 ZINC000021983589    0.1600
7      C7     -2.1278    0.8803    1.3046 C.3      1 ZINC000021983589   -0.1400
8      C8     -2.3854    0.9097    2.8319 C.3      1 ZINC000021983589    0.0500
9      N9     -1.0794    0.5800    3.4414 N.3      1 ZINC000021983589   -0.4700
10     C10    -0.9085    1.2500    4.6420 C.ar     1 ZINC000021983589    0.3200
11     N11    -0.7225    0.5538    5.7508 N.ar     1 ZINC000021983589   -0.4700
12     C12    -0.5541    1.1492    6.9254 C.ar     1 ZINC000021983589    0.4000
13     C13    -0.5723    2.5525    7.0022 C.ar     1 ZINC000021983589   -0.2000
14     C14    -0.7680    3.3117    5.8417 C.ar     1 ZINC000021983589    0.0000
15     C15    -0.9307    2.6485    4.6545 C.ar     1 ZINC000021983589   -0.0400
16     F16    -1.1224    3.3380    3.5086 F        1 ZINC000021983589   -0.1400
17     C17    -0.3841    3.1957    8.3116 C.2      1 ZINC000021983589    0.4200
18     O18    -0.3921    4.4087    8.4307 O.2      1 ZINC000021983589   -0.4200
19     C19    -0.1860    2.3111    9.4735 C.2      1 ZINC000021983589   -0.2600
20     C20     0.0083    2.8717   10.8148 C.2      1 ZINC000021983589    0.5400
21     O21     0.1719    2.1264   11.7719 O.co2    1 ZINC000021983589   -0.6900
22     O22     0.0069    4.0850   10.9771 O.co2    1 ZINC000021983589   -0.6600
23     C23    -0.1872    0.9438    9.2757 C.2      1 ZINC000021983589    0.1500
24     N24    -0.3627    0.3976    8.0643 N.pl3    1 ZINC000021983589   -0.4300
25     C25    -0.3506   -0.9990    7.9510 C.ar     1 ZINC000021983589    0.0700
26     C26    -1.5324   -1.7165    8.0725 C.ar     1 ZINC000021983589   -0.0300
27     C27    -1.5187   -3.0934    7.9605 C.ar     1 ZINC000021983589   -0.1500
28     C28    -0.3271   -3.7591    7.7277 C.ar     1 ZINC000021983589    0.1500
29     F29    -0.3170   -5.1057    7.6187 F        1 ZINC000021983589   -0.1300
30     C30     0.8544   -3.0468    7.6058 C.ar     1 ZINC000021983589   -0.1900
31     C31     0.8450   -1.6682    7.7109 C.ar     1 ZINC000021983589    0.1600
32     F32     1.9972   -0.9729    7.5917 F        1 ZINC000021983589   -0.1200
33     C33    -0.0103    0.9334    2.4849 C.3      1 ZINC000021983589    0.0300
34     H34    -2.8466    1.5058    0.7754 H        1 ZINC000021983589    0.1100
35     H35    -2.1475   -0.1413    0.9250 H        1 ZINC000021983589    0.1000
36     H36    -2.7095    1.9028    3.1430 H        1 ZINC000021983589    0.0800
37     H37    -3.1310    0.1632    3.1054 H        1 ZINC000021983589    0.1100
38     H38    -0.7854    4.3908    5.8812 H        1 ZINC000021983589    0.1700
39     H39    -0.0418    0.2933   10.1254 H        1 ZINC000021983589    0.1800
40     H40    -2.4625   -1.1986    8.2548 H        1 ZINC000021983589    0.1500
41     H41    -2.4386   -3.6513    8.0551 H        1 ZINC000021983589    0.1500
42     H42     1.7827   -3.5680    7.4242 H        1 ZINC000021983589    0.1600
43     H43     0.5724    0.0466    2.2358 H        1 ZINC000021983589    0.1100
44     H44     0.6373    1.6959    2.9178 H        1 ZINC000021983589    0.0900
@<TRIPOS>BOND
1     1     2     1
2     1     3     1
3     1     4     1
4     1     5     1
5     5     6     1
6     5     33    1
7     5     7     1
8     7     8     1
9     7     34    1
10    7     35    1
11    8     9     1
12    8     36    1
13    8     37    1
14    9     10    1
15    9     33    1
16    10    15    ar
17    10    11    ar
18    11    12    ar
19    12    24    1
20    12    13    ar
21    13    14    ar
22    13    17    1
23    14    15    ar
24    14    38    1
25    15    16    1
26    17    18    2
27    17    19    1
28    19    20    1
29    19    23    2
30    20    21    ar
31    20    22    ar
32    23    24    1
33    23    39    1
34    24    25    1
35    25    31    ar
36    25    26    ar
37    26    27    ar
38    26    40    1
39    27    28    ar
40    27    41    1
41    28    29    1
42    28    30    ar
43    30    31    ar
44    30    42    1
45    31    32    1
46    33    43    1
47    33    44    1
@<TRIPOS>SUBSTRUCTURE
1   ZINC000021983589 1     RESIDUE    1   A     ZIN   1
