@<TRIPOS>MOLECULE
ZINC000003596271
34    36    1     0     0
SMALL
USER_CHARGES
@<TRIPOS>ATOM
1      C1     -0.0187    1.5258    0.0104 C.3      1 ZINC000003596271   -0.1400
2      C2      0.0021   -0.0041    0.0020 C.3      1 ZINC000003596271    0.1100
3      C3     -1.4327   -0.5355    0.0083 C.3      1 ZINC000003596271   -0.1800
4      C4      0.7288   -0.4999   -1.2523 C.3      1 ZINC000003596271   -0.1500
5      C5      0.7580   -2.0310   -1.2281 C.3      1 ZINC000003596271   -0.1100
6      C6      1.4194   -2.5114    0.0590 C.3      1 ZINC000003596271   -0.1700
7      H7      1.3340   -3.5962    0.1229 H        1 ZINC000003596271    0.1200
8      C8      2.8844   -2.1255    0.0687 C.2      1 ZINC000003596271    0.3400
9      O9      3.4093   -1.5366   -0.8459 O.2      1 ZINC000003596271   -0.3900
10     C10     3.6343   -2.5339    1.3095 C.2      1 ZINC000003596271    0.3600
11     O11     4.8055   -2.8513    1.2807 O.2      1 ZINC000003596271   -0.4000
12     C12     2.8512   -2.5231    2.5679 C.ar     1 ZINC000003596271   -0.1500
13     C13     3.4983   -2.7980    3.7770 C.ar     1 ZINC000003596271   -0.0600
14     C14     2.7786   -2.8055    4.9531 C.ar     1 ZINC000003596271   -0.1200
15     C15     1.4195   -2.5428    4.9313 C.ar     1 ZINC000003596271   -0.0800
16     C16     0.7772   -2.2661    3.7385 C.ar     1 ZINC000003596271   -0.1100
17     C17     1.4838   -2.2460    2.5483 C.ar     1 ZINC000003596271   -0.0300
18     C18     0.7587   -1.8837    1.2809 C.3      1 ZINC000003596271    0.1400
19     H19    -0.2631   -2.2597    1.3325 H        1 ZINC000003596271    0.0900
20     O20     0.6922   -0.4787    1.1579 O.3      1 ZINC000003596271   -0.3600
21     H21     1.0039    1.9031    0.0027 H        1 ZINC000003596271    0.0600
22     H22    -0.5459    1.8868   -0.8726 H        1 ZINC000003596271    0.0700
23     H23    -0.5289    1.8773    0.9072 H        1 ZINC000003596271    0.0700
24     H24    -1.9575   -0.1750   -0.8764 H        1 ZINC000003596271    0.0700
25     H25    -1.4165   -1.6253    0.0023 H        1 ZINC000003596271    0.0600
26     H26    -1.9461   -0.1846    0.9035 H        1 ZINC000003596271    0.0700
27     H27     0.1988   -0.1581   -2.1413 H        1 ZINC000003596271    0.0800
28     H28     1.7484   -0.1147   -1.2606 H        1 ZINC000003596271    0.0800
29     H29    -0.2613   -2.4141   -1.2771 H        1 ZINC000003596271    0.0800
30     H30     1.3239   -2.3966   -2.0850 H        1 ZINC000003596271    0.0800
31     H31     4.5584   -3.0040    3.7894 H        1 ZINC000003596271    0.1400
32     H32     3.2741   -3.0164    5.8893 H        1 ZINC000003596271    0.1400
33     H33     0.8567   -2.5543    5.8530 H        1 ZINC000003596271    0.1300
34     H34    -0.2837   -2.0640    3.7354 H        1 ZINC000003596271    0.1300
@<TRIPOS>BOND
1     1     2     1
2     1     21    1
3     1     22    1
4     1     23    1
5     2     20    1
6     2     3     1
7     2     4     1
8     3     24    1
9     3     25    1
10    3     26    1
11    4     5     1
12    4     27    1
13    4     28    1
14    5     6     1
15    5     29    1
16    5     30    1
17    6     7     1
18    6     18    1
19    6     8     1
20    8     9     2
21    8     10    1
22    10    11    2
23    10    12    1
24    12    17    ar
25    12    13    ar
26    13    14    ar
27    13    31    1
28    14    15    ar
29    14    32    1
30    15    16    ar
31    15    33    1
32    16    17    ar
33    16    34    1
34    17    18    1
35    18    19    1
36    18    20    1
@<TRIPOS>SUBSTRUCTURE
1   ZINC000003596271 1     RESIDUE    1   A     ZIN   1
