@<TRIPOS>MOLECULE
ZINC000000001668
38    39    1     0     0
SMALL
USER_CHARGES
@<TRIPOS>ATOM
1      C1     -0.0173    1.4248    0.0099 C.3      1 ZINC000000001668    0.0200
2      O2      0.0021   -0.0041    0.0020 O.3      1 ZINC000000001668   -0.2700
3      C3      0.6048   -0.6061   -1.0540 C.ar     1 ZINC000000001668    0.1900
4      C4      1.1723    0.1596   -2.0610 C.ar     1 ZINC000000001668   -0.2100
5      C5      1.7855   -0.4540   -3.1355 C.ar     1 ZINC000000001668   -0.0400
6      C6      1.8394   -1.8366   -3.2160 C.ar     1 ZINC000000001668   -0.0800
7      Cl7     2.6137   -2.5939   -4.5727 Cl       1 ZINC000000001668   -0.0600
8      C8      1.2807   -2.6133   -2.2225 C.ar     1 ZINC000000001668   -0.0400
9      C9      0.6615   -2.0046   -1.1284 C.ar     1 ZINC000000001668   -0.1600
10     C10     0.0618   -2.8292   -0.0620 C.2      1 ZINC000000001668    0.5600
11     O11    -0.4764   -2.2957    0.8889 O.2      1 ZINC000000001668   -0.5100
12     N12     0.1106   -4.1737   -0.1419 N.am     1 ZINC000000001668   -0.7300
13     C13    -0.4849   -4.9924    0.9170 C.3      1 ZINC000000001668    0.1200
14     C14    -0.2934   -6.4736    0.5850 C.3      1 ZINC000000001668   -0.0800
15     C15    -0.9059   -7.3159    1.6743 C.ar     1 ZINC000000001668   -0.1000
16     C16    -0.1420   -7.6931    2.7648 C.ar     1 ZINC000000001668   -0.1300
17     C17    -0.6959   -8.4638    3.7655 C.ar     1 ZINC000000001668   -0.0900
18     C18    -2.0317   -8.8638    3.6762 C.ar     1 ZINC000000001668   -0.1300
19     C19    -2.6315   -9.6879    4.7429 C.2      1 ZINC000000001668    0.5200
20     O20    -1.9593  -10.0226    5.7081 O.co2    1 ZINC000000001668   -0.6900
21     O21    -3.8009  -10.0364    4.6618 O.co2    1 ZINC000000001668   -0.6900
22     C22    -2.7968   -8.4792    2.5722 C.ar     1 ZINC000000001668   -0.0900
23     C23    -2.2311   -7.7036    1.5819 C.ar     1 ZINC000000001668   -0.1300
24     H24     1.0053    1.8021    0.0021 H        1 ZINC000000001668    0.0600
25     H25    -0.5445    1.7859   -0.8732 H        1 ZINC000000001668    0.0600
26     H26    -0.5275    1.7763    0.9067 H        1 ZINC000000001668    0.1100
27     H27     1.1343    1.2375   -2.0053 H        1 ZINC000000001668    0.1500
28     H28     2.2254    0.1470   -3.9177 H        1 ZINC000000001668    0.1400
29     H29     1.3247   -3.6903   -2.2888 H        1 ZINC000000001668    0.1400
30     H30     0.5400   -4.5992   -0.9004 H        1 ZINC000000001668    0.4000
31     H31     0.0004   -4.7672    1.8667 H        1 ZINC000000001668    0.0700
32     H32    -1.5497   -4.7715    0.9917 H        1 ZINC000000001668    0.0700
33     H33    -0.7787   -6.6988   -0.3647 H        1 ZINC000000001668    0.0700
34     H34     0.7714   -6.6945    0.5103 H        1 ZINC000000001668    0.0700
35     H35     0.8904   -7.3835    2.8323 H        1 ZINC000000001668    0.1100
36     H36    -0.0985   -8.7578    4.6158 H        1 ZINC000000001668    0.1300
37     H37    -3.8298   -8.7850    2.4965 H        1 ZINC000000001668    0.1300
38     H38    -2.8213   -7.4055    0.7280 H        1 ZINC000000001668    0.1100
@<TRIPOS>BOND
1     1     2     1
2     1     24    1
3     1     25    1
4     1     26    1
5     2     3     1
6     3     9     ar
7     3     4     ar
8     4     5     ar
9     4     27    1
10    5     6     ar
11    5     28    1
12    6     7     1
13    6     8     ar
14    8     9     ar
15    8     29    1
16    9     10    1
17    10    11    2
18    10    12    am
19    12    13    1
20    12    30    1
21    13    14    1
22    13    31    1
23    13    32    1
24    14    15    1
25    14    33    1
26    14    34    1
27    15    23    ar
28    15    16    ar
29    16    17    ar
30    16    35    1
31    17    18    ar
32    17    36    1
33    18    19    1
34    18    22    ar
35    19    20    ar
36    19    21    ar
37    22    23    ar
38    22    37    1
39    23    38    1
@<TRIPOS>SUBSTRUCTURE
1   ZINC000000001668 1     RESIDUE    1   A     ZIN   1
