@<TRIPOS>MOLECULE
ZINC000000228297
40    41    1     0     0
SMALL
USER_CHARGES
@<TRIPOS>ATOM
1      C1     -0.0669    1.5134    0.0019 C.3      1 ZINC000000228297   -0.1700
2      C2      0.0397   -0.0119    0.0572 C.3      1 ZINC000000228297    0.2200
3      C3      0.3309   -0.4510    1.4936 C.3      1 ZINC000000228297   -0.0800
4      C4      1.6826    0.0668    1.9130 C.ar     1 ZINC000000228297   -0.0800
5      C5      2.8013   -0.7342    1.7798 C.ar     1 ZINC000000228297   -0.1000
6      C6      4.0412   -0.2593    2.1644 C.ar     1 ZINC000000228297   -0.1200
7      C7      4.1625    1.0169    2.6818 C.ar     1 ZINC000000228297   -0.1200
8      C8      3.0439    1.8182    2.8142 C.ar     1 ZINC000000228297   -0.1200
9      C9      1.8046    1.3448    2.4256 C.ar     1 ZINC000000228297   -0.1200
10     N10    -1.2230   -0.6062   -0.3886 N.am     1 ZINC000000228297   -0.7300
11     C11    -1.6893   -0.3479   -1.6265 C.2      1 ZINC000000228297    0.5100
12     O12    -1.0202    0.2996   -2.4037 O.2      1 ZINC000000228297   -0.5000
13     C13    -3.0421   -0.8636   -2.0448 C.3      1 ZINC000000228297    0.0400
14     N14    -3.3172   -0.4510   -3.4276 N.3      1 ZINC000000228297   -0.8300
15     C15     1.1567   -0.4705   -0.8445 C.ar     1 ZINC000000228297   -0.0700
16     C16     1.0820   -1.7033   -1.4652 C.ar     1 ZINC000000228297   -0.1000
17     C17     2.1067   -2.1240   -2.2922 C.ar     1 ZINC000000228297   -0.1200
18     C18     3.2058   -1.3115   -2.4990 C.ar     1 ZINC000000228297   -0.1200
19     C19     3.2801   -0.0782   -1.8790 C.ar     1 ZINC000000228297   -0.1200
20     C20     2.2534    0.3442   -1.0553 C.ar     1 ZINC000000228297   -0.1000
21     H21     0.8726    1.9555    0.3336 H        1 ZINC000000228297    0.0700
22     H22    -0.2743    1.8262   -1.0215 H        1 ZINC000000228297    0.0800
23     H23    -0.8748    1.8450    0.6540 H        1 ZINC000000228297    0.0600
24     H24    -0.4341   -0.0497    2.1584 H        1 ZINC000000228297    0.0800
25     H25     0.3256   -1.5396    1.5489 H        1 ZINC000000228297    0.0800
26     H26     2.7066   -1.7312    1.3755 H        1 ZINC000000228297    0.1200
27     H27     4.9151   -0.8853    2.0610 H        1 ZINC000000228297    0.1200
28     H28     5.1311    1.3877    2.9830 H        1 ZINC000000228297    0.1200
29     H29     3.1385    2.8151    3.2188 H        1 ZINC000000228297    0.1200
30     H30     0.9307    1.9708    2.5290 H        1 ZINC000000228297    0.1200
31     H31    -1.7233   -1.1855    0.2071 H        1 ZINC000000228297    0.4000
32     H32    -3.0516   -1.9517   -1.9816 H        1 ZINC000000228297    0.1000
33     H33    -3.8069   -0.4546   -1.3847 H        1 ZINC000000228297    0.0600
34     H34    -4.2195   -0.7849   -3.7319 H        1 ZINC000000228297    0.3500
35     H35    -3.2504    0.5509   -3.5261 H        1 ZINC000000228297    0.3500
36     H36     0.2233   -2.3381   -1.3036 H        1 ZINC000000228297    0.1100
37     H37     2.0487   -3.0875   -2.7766 H        1 ZINC000000228297    0.1200
38     H38     4.0067   -1.6404   -3.1446 H        1 ZINC000000228297    0.1200
39     H39     4.1389    0.5564   -2.0402 H        1 ZINC000000228297    0.1200
40     H40     2.3115    1.3078   -0.5709 H        1 ZINC000000228297    0.1200
@<TRIPOS>BOND
1     1     2     1
2     1     21    1
3     1     22    1
4     1     23    1
5     2     3     1
6     2     10    1
7     2     15    1
8     3     4     1
9     3     24    1
10    3     25    1
11    4     9     ar
12    4     5     ar
13    5     6     ar
14    5     26    1
15    6     7     ar
16    6     27    1
17    7     8     ar
18    7     28    1
19    8     9     ar
20    8     29    1
21    9     30    1
22    10    11    am
23    10    31    1
24    11    12    2
25    11    13    1
26    13    14    1
27    13    32    1
28    13    33    1
29    14    34    1
30    14    35    1
31    15    20    ar
32    15    16    ar
33    16    17    ar
34    16    36    1
35    17    18    ar
36    17    37    1
37    18    19    ar
38    18    38    1
39    19    20    ar
40    19    39    1
41    20    40    1
@<TRIPOS>SUBSTRUCTURE
1   ZINC000000228297 1     RESIDUE    1   A     ZIN   1
