@<TRIPOS>MOLECULE
ZINC000070466461
53    56    1     0     0
SMALL
USER_CHARGES
@<TRIPOS>ATOM
1      N1      1.3920   -0.7241   -0.7887 N.1      1 ZINC000070466461   -0.4200
2      C2      0.7922    0.1859   -0.4685 C.1      1 ZINC000070466461    0.2200
3      C3      0.0149    1.3651   -0.0536 C.3      1 ZINC000070466461    0.0700
4      C4     -0.7820    1.9109   -1.2104 C.ar     1 ZINC000070466461   -0.0900
5      C5     -0.5764    3.2098   -1.6380 C.ar     1 ZINC000070466461   -0.0900
6      C6     -1.3054    3.7131   -2.6975 C.ar     1 ZINC000070466461   -0.1400
7      C7     -2.2455    2.9131   -3.3340 C.ar     1 ZINC000070466461    0.1500
8      N8     -2.9851    3.4196   -4.4075 N.am     1 ZINC000070466461   -0.6700
9      C9     -4.2542    3.0106   -4.6041 C.2      1 ZINC000070466461    0.5800
10     O10    -4.7874    2.2735   -3.7970 O.2      1 ZINC000070466461   -0.5300
11     C11    -4.9958    3.4568   -5.7972 C.ar     1 ZINC000070466461   -0.2800
12     C12    -4.3589    4.2051   -6.7936 C.ar     1 ZINC000070466461    0.0100
13     C13    -5.0994    4.5998   -7.8939 C.ar     1 ZINC000070466461   -0.2500
14     C14    -6.4346    4.2479   -7.9785 C.ar     1 ZINC000070466461    0.1900
15     N15    -7.0171    3.5425   -7.0286 N.ar     1 ZINC000070466461   -0.5500
16     C16    -6.3544    3.1336   -5.9578 C.ar     1 ZINC000070466461    0.4600
17     N17    -7.0053    2.3959   -4.9863 N.pl3    1 ZINC000070466461   -0.7000
18     C18    -8.4444    2.1453   -5.0983 C.3      1 ZINC000070466461    0.1600
19     C19    -8.9044    1.3243   -3.9212 C.ar     1 ZINC000070466461   -0.0600
20     C20    -8.8942   -0.0611   -3.9748 C.ar     1 ZINC000070466461   -0.1500
21     C21    -9.3235   -0.7807   -2.8757 C.ar     1 ZINC000070466461    0.1000
22     N22    -9.7392   -0.1646   -1.7865 N.ar     1 ZINC000070466461   -0.4800
23     C23    -9.7626    1.1511   -1.7001 C.ar     1 ZINC000070466461    0.1000
24     C24    -9.3425    1.9365   -2.7568 C.ar     1 ZINC000070466461   -0.1500
25     C25    -2.4493    1.6088   -2.9024 C.ar     1 ZINC000070466461   -0.1200
26     C26    -1.7133    1.1098   -1.8456 C.ar     1 ZINC000070466461   -0.0800
27     C27    -0.9091    1.0210    1.1409 C.3      1 ZINC000070466461   -0.1100
28     C28     0.0228    1.0786    2.3689 C.3      1 ZINC000070466461   -0.1300
29     C29     1.2010    1.9906    1.9842 C.3      1 ZINC000070466461   -0.1300
30     C30     0.9439    2.4553    0.5358 C.3      1 ZINC000070466461   -0.1100
31     H31     0.1548    3.8314   -1.1427 H        1 ZINC000070466461    0.1400
32     H32    -1.1448    4.7279   -3.0306 H        1 ZINC000070466461    0.1300
33     H33    -2.5846    4.0652   -5.0106 H        1 ZINC000070466461    0.4100
34     H34    -3.3152    4.4685   -6.7058 H        1 ZINC000070466461    0.1400
35     H35    -4.6385    5.1785   -8.6807 H        1 ZINC000070466461    0.1400
36     H36    -7.0107    4.5570   -8.8381 H        1 ZINC000070466461    0.1600
37     H37    -6.5092    2.0443   -4.2306 H        1 ZINC000070466461    0.4300
38     H38    -8.9788    3.0952   -5.1098 H        1 ZINC000070466461    0.0800
39     H39    -8.6479    1.6026   -6.0214 H        1 ZINC000070466461    0.0800
40     H40    -8.5555   -0.5714   -4.8643 H        1 ZINC000070466461    0.1400
41     H41    -9.3186   -1.8602   -2.9095 H        1 ZINC000070466461    0.1600
42     H42   -10.1101    1.6202   -0.7915 H        1 ZINC000070466461    0.1600
43     H43    -9.3636    3.0135   -2.6799 H        1 ZINC000070466461    0.1400
44     H44    -3.1798    0.9842   -3.3949 H        1 ZINC000070466461    0.1400
45     H45    -1.8710    0.0956   -1.5096 H        1 ZINC000070466461    0.1300
46     H46    -1.7060    1.7591    1.2317 H        1 ZINC000070466461    0.0900
47     H47    -1.3259    0.0205    1.0249 H        1 ZINC000070466461    0.0800
48     H48    -0.5101    1.4972    3.2227 H        1 ZINC000070466461    0.0700
49     H49     0.3868    0.0796    2.6086 H        1 ZINC000070466461    0.0700
50     H50     1.2399    2.8518    2.6513 H        1 ZINC000070466461    0.0700
51     H51     2.1367    1.4341    2.0372 H        1 ZINC000070466461    0.0700
52     H52     1.8794    2.5016   -0.0217 H        1 ZINC000070466461    0.0800
53     H53     0.4463    3.4250    0.5290 H        1 ZINC000070466461    0.0900
@<TRIPOS>BOND
1     1     2     3
2     2     3     1
3     3     30    1
4     3     4     1
5     3     27    1
6     4     26    ar
7     4     5     ar
8     5     6     ar
9     5     31    1
10    6     7     ar
11    6     32    1
12    7     8     1
13    7     25    ar
14    8     9     am
15    8     33    1
16    9     10    2
17    9     11    1
18    11    16    ar
19    11    12    ar
20    12    13    ar
21    12    34    1
22    13    14    ar
23    13    35    1
24    14    15    ar
25    14    36    1
26    15    16    ar
27    16    17    1
28    17    18    1
29    17    37    1
30    18    19    1
31    18    38    1
32    18    39    1
33    19    24    ar
34    19    20    ar
35    20    21    ar
36    20    40    1
37    21    22    ar
38    21    41    1
39    22    23    ar
40    23    24    ar
41    23    42    1
42    24    43    1
43    25    26    ar
44    25    44    1
45    26    45    1
46    27    28    1
47    27    46    1
48    27    47    1
49    28    29    1
50    28    48    1
51    28    49    1
52    29    30    1
53    29    50    1
54    29    51    1
55    30    52    1
56    30    53    1
@<TRIPOS>SUBSTRUCTURE
1   ZINC000070466461 1     RESIDUE    1   A     ZIN   1
