@<TRIPOS>MOLECULE
ZINC000095930187
50    53    1     0     0
SMALL
USER_CHARGES
@<TRIPOS>ATOM
1      C1     -2.0574   -0.2827    1.2642 C.3      1 ZINC000095930187   -0.1100
2      C2     -0.8308   -0.8397    0.5888 C.ar     1 ZINC000095930187    0.1300
3      C3     -0.9643   -1.5496   -0.5870 C.ar     1 ZINC000095930187   -0.1400
4      C4      0.1809   -2.0611   -1.2039 C.ar     1 ZINC000095930187    0.0100
5      C5      0.0858   -2.8301   -2.4694 C.ar     1 ZINC000095930187    0.1600
6      N6     -0.6939   -2.3914   -3.4486 N.ar     1 ZINC000095930187   -0.4600
7      C7     -0.8058   -3.0439   -4.5874 C.ar     1 ZINC000095930187    0.1200
8      C8     -0.1090   -4.2187   -4.8041 C.ar     1 ZINC000095930187   -0.1100
9      C9     -0.2463   -4.9545   -6.1120 C.3      1 ZINC000095930187   -0.1000
10     C10     0.7956   -4.4564   -7.0803 C.2      1 ZINC000095930187    0.5000
11     O11     1.5730   -3.5894   -6.7417 O.2      1 ZINC000095930187   -0.4600
12     N12     0.8634   -4.9746   -8.3227 N.am     1 ZINC000095930187   -0.6600
13     C13     1.8905   -4.5918   -9.1817 C.ar     1 ZINC000095930187    0.3700
14     C14     1.8882   -5.0422  -10.4979 C.ar     1 ZINC000095930187   -0.2100
15     C15     2.9101   -4.6580  -11.3442 C.ar     1 ZINC000095930187    0.0000
16     C16     3.9143   -3.8245  -10.8390 C.ar     1 ZINC000095930187   -0.1400
17     C17     5.0326   -3.3836  -11.7070 C.ar     1 ZINC000095930187    0.1300
18     C18     6.0328   -2.5574  -11.1942 C.ar     1 ZINC000095930187    0.0600
19     N19     7.0262   -2.1682  -11.9710 N.ar     1 ZINC000095930187   -0.4300
20     C20     7.0740   -2.5602  -13.2328 C.ar     1 ZINC000095930187    0.0400
21     C21     6.0837   -3.3800  -13.7458 C.ar     1 ZINC000095930187    0.0600
22     N22     5.0884   -3.7789  -12.9754 N.ar     1 ZINC000095930187   -0.4400
23     C23     3.8482   -3.4145   -9.5094 C.ar     1 ZINC000095930187    0.1600
24     N24     2.8537   -3.7994   -8.7362 N.ar     1 ZINC000095930187   -0.4800
25     C25     0.7181   -4.7131   -3.8057 C.ar     1 ZINC000095930187   -0.0600
26     C26     0.8207   -4.0038   -2.6212 C.ar     1 ZINC000095930187   -0.1100
27     C27     1.7065   -4.5002   -1.5077 C.3      1 ZINC000095930187   -0.1200
28     C28     1.4177   -1.8283   -0.5968 C.ar     1 ZINC000095930187   -0.1600
29     C29     1.4609   -1.1076    0.5798 C.ar     1 ZINC000095930187    0.1000
30     N30     0.3567   -0.6375    1.1266 N.ar     1 ZINC000095930187   -0.4800
31     H31    -2.2563    0.7203    0.8867 H        1 ZINC000095930187    0.0800
32     H32    -2.9118   -0.9261    1.0539 H        1 ZINC000095930187    0.0800
33     H33    -1.8914   -0.2394    2.3407 H        1 ZINC000095930187    0.0800
34     H34    -1.9392   -1.7078   -1.0239 H        1 ZINC000095930187    0.1400
35     H35    -1.4508   -2.6565   -5.3622 H        1 ZINC000095930187    0.1600
36     H36    -0.1058   -6.0224   -5.9447 H        1 ZINC000095930187    0.1100
37     H37    -1.2396   -4.7790   -6.5251 H        1 ZINC000095930187    0.1100
38     H38     0.1967   -5.6141   -8.6185 H        1 ZINC000095930187    0.4200
39     H39     1.0968   -5.6852  -10.8539 H        1 ZINC000095930187    0.1400
40     H40     2.9336   -4.9930  -12.3706 H        1 ZINC000095930187    0.1500
41     H41     5.9941   -2.2365  -10.1637 H        1 ZINC000095930187    0.1700
42     H42     7.8884   -2.2393  -13.8655 H        1 ZINC000095930187    0.1700
43     H43     6.1275   -3.6973  -14.7772 H        1 ZINC000095930187    0.1700
44     H44     4.6183   -2.7715   -9.1094 H        1 ZINC000095930187    0.1600
45     H45     1.2726   -5.6284   -3.9510 H        1 ZINC000095930187    0.1400
46     H46     2.7171   -4.1172   -1.6492 H        1 ZINC000095930187    0.0800
47     H47     1.3168   -4.1525   -0.5510 H        1 ZINC000095930187    0.0800
48     H48     1.7262   -5.5900   -1.5174 H        1 ZINC000095930187    0.0700
49     H49     2.3262   -2.2068   -1.0413 H        1 ZINC000095930187    0.1400
50     H50     2.4121   -0.9228    1.0567 H        1 ZINC000095930187    0.1600
@<TRIPOS>BOND
1     1     2     1
2     1     31    1
3     1     32    1
4     1     33    1
5     2     30    ar
6     2     3     ar
7     3     4     ar
8     3     34    1
9     4     5     1
10    4     28    ar
11    5     26    ar
12    5     6     ar
13    6     7     ar
14    7     8     ar
15    7     35    1
16    8     9     1
17    8     25    ar
18    9     10    1
19    9     36    1
20    9     37    1
21    10    11    2
22    10    12    am
23    12    13    1
24    12    38    1
25    13    24    ar
26    13    14    ar
27    14    15    ar
28    14    39    1
29    15    16    ar
30    15    40    1
31    16    17    1
32    16    23    ar
33    17    22    ar
34    17    18    ar
35    18    19    ar
36    18    41    1
37    19    20    ar
38    20    21    ar
39    20    42    1
40    21    22    ar
41    21    43    1
42    23    24    ar
43    23    44    1
44    25    26    ar
45    25    45    1
46    26    27    1
47    27    46    1
48    27    47    1
49    27    48    1
50    28    29    ar
51    28    49    1
52    29    30    ar
53    29    50    1
@<TRIPOS>SUBSTRUCTURE
1   ZINC000095930187 1     RESIDUE    1   A     ZIN   1
