@<TRIPOS>MOLECULE
ZINC000198711495
52    55    1     0     0
SMALL
USER_CHARGES
@<TRIPOS>ATOM
1      C1      0.5771   -0.2910    1.3473 C.3      1 ZINC000198711495   -0.0700
2      N2      0.0067   -0.0118    0.0227 N.4      1 ZINC000198711495   -0.3700
3      H3     -0.0721    0.9859   -0.1060 H        1 ZINC000198711495    0.4100
4      C4      0.8821   -0.5719   -1.0154 C.3      1 ZINC000198711495   -0.0500
5      C5     -1.3246   -0.6249   -0.0763 C.3      1 ZINC000198711495    0.0300
6      H6     -1.9395   -0.2895    0.7589 H        1 ZINC000198711495    0.1500
7      C7     -1.1886   -2.1217   -0.0250 C.2      1 ZINC000198711495    0.3100
8      O8     -0.2745   -2.6564    0.7981 O.3      1 ZINC000198711495   -0.6100
9      C9     -1.9624   -2.9639   -0.7861 C.2      1 ZINC000198711495   -0.4700
10     C10    -1.7762   -4.4203   -0.6868 C.2      1 ZINC000198711495    0.5900
11     N11    -2.6158   -5.2527   -1.3339 N.am     1 ZINC000198711495   -0.8700
12     O12    -0.8645   -4.8729   -0.0208 O.2      1 ZINC000198711495   -0.5600
13     C13    -2.9756   -2.4161   -1.6984 C.2      1 ZINC000198711495    0.3800
14     O14    -3.5176   -3.1065   -2.5368 O.2      1 ZINC000198711495   -0.4600
15     C15    -3.3096   -0.9488   -1.5418 C.3      1 ZINC000198711495    0.0800
16     O16    -4.1011   -0.7639   -0.3665 O.3      1 ZINC000198711495   -0.5400
17     C17    -4.0575   -0.4338   -2.7300 C.2      1 ZINC000198711495    0.3700
18     O18    -4.9359   -1.1241   -3.2101 O.2      1 ZINC000198711495   -0.4700
19     C19    -3.7893    0.8049   -3.3092 C.2      1 ZINC000198711495   -0.4900
20     C20    -4.5644    1.2205   -4.3791 C.2      1 ZINC000198711495    0.3400
21     O21    -5.5317    0.4195   -4.8765 O.3      1 ZINC000198711495   -0.5900
22     C22    -4.3184    2.5474   -4.9663 C.ar     1 ZINC000198711495   -0.0900
23     C23    -4.7750    2.8580   -6.2534 C.ar     1 ZINC000198711495    0.1500
24     O24    -5.4500    1.9327   -6.9810 O.3      1 ZINC000198711495   -0.4700
25     C25    -4.5316    4.1186   -6.7792 C.ar     1 ZINC000198711495   -0.1500
26     C26    -3.8443    5.0587   -6.0369 C.ar     1 ZINC000198711495   -0.1000
27     C27    -3.3889    4.7539   -4.7623 C.ar     1 ZINC000198711495   -0.0400
28     Cl28   -2.5261    5.9469   -3.8425 Cl       1 ZINC000198711495   -0.0500
29     C29    -3.6201    3.5072   -4.2251 C.ar     1 ZINC000198711495   -0.0400
30     C30    -3.1229    3.1613   -2.8455 C.3      1 ZINC000198711495    0.1500
31     H31    -3.9215    3.3208   -2.1211 H        1 ZINC000198711495    0.0700
32     O32    -2.0094    3.9950   -2.5179 O.3      1 ZINC000198711495   -0.5400
33     C33    -2.6890    1.6988   -2.8116 C.3      1 ZINC000198711495   -0.0100
34     H34    -1.8317    1.5784   -3.4740 H        1 ZINC000198711495    0.0500
35     C35    -2.2659    1.3031   -1.3973 C.3      1 ZINC000198711495   -0.1100
36     C36    -1.9794   -0.2019   -1.3876 C.3      1 ZINC000198711495   -0.0700
37     H37    -1.3210   -0.4510   -2.2198 H        1 ZINC000198711495    0.1000
38     H38     1.4995    0.2760    1.4726 H        1 ZINC000198711495    0.1000
39     H39    -0.1359    0.0001    2.1187 H        1 ZINC000198711495    0.1100
40     H40     0.7909   -1.3564    1.4336 H        1 ZINC000198711495    0.1700
41     H41     0.8992   -1.6583   -0.9290 H        1 ZINC000198711495    0.1400
42     H42     0.5050   -0.2915   -1.9989 H        1 ZINC000198711495    0.1200
43     H43     1.8919   -0.1815   -0.8886 H        1 ZINC000198711495    0.1100
44     H44    -3.2993   -4.8926   -1.9205 H        1 ZINC000198711495    0.4000
45     H45    -2.5367   -6.2119   -1.2130 H        1 ZINC000198711495    0.3800
46     H46    -4.9382   -1.2479   -0.3759 H        1 ZINC000198711495    0.3900
47     H47    -6.4081    1.9532   -6.8518 H        1 ZINC000198711495    0.3900
48     H48    -4.8801    4.3652   -7.7712 H        1 ZINC000198711495    0.1300
49     H49    -3.6596    6.0385   -6.4519 H        1 ZINC000198711495    0.1300
50     H50    -1.5928    3.7803   -1.6721 H        1 ZINC000198711495    0.3600
51     H51    -1.3659    1.8500   -1.1162 H        1 ZINC000198711495    0.0500
52     H52    -3.0689    1.5304   -0.6961 H        1 ZINC000198711495    0.0900
@<TRIPOS>BOND
1     1     2     1
2     1     38    1
3     1     39    1
4     1     40    1
5     2     3     1
6     2     4     1
7     2     5     1
8     4     41    1
9     4     42    1
10    4     43    1
11    5     6     1
12    5     36    1
13    5     7     1
14    7     8     1
15    7     9     2
16    9     10    1
17    9     13    1
18    10    11    am
19    10    12    2
20    11    44    1
21    11    45    1
22    13    14    2
23    13    15    1
24    15    36    1
25    15    16    1
26    15    17    1
27    16    46    1
28    17    18    2
29    17    19    1
30    19    33    1
31    19    20    2
32    20    21    1
33    20    22    1
34    22    29    ar
35    22    23    ar
36    23    24    1
37    23    25    ar
38    24    47    1
39    25    26    ar
40    25    48    1
41    26    27    ar
42    26    49    1
43    27    28    1
44    27    29    ar
45    29    30    1
46    30    31    1
47    30    32    1
48    30    33    1
49    32    50    1
50    33    34    1
51    33    35    1
52    35    36    1
53    35    51    1
54    35    52    1
55    36    37    1
@<TRIPOS>SUBSTRUCTURE
1   ZINC000198711495 1     RESIDUE    1   A     ZIN   1
