@<TRIPOS>MOLECULE
ZINC000084668615
32    35    1     0     0
SMALL
USER_CHARGES
@<TRIPOS>ATOM
1      O1      0.0021   -0.0041    0.0020 O.2      1 ZINC000084668615   -0.5700
2      C2     -0.0145    1.2156    0.0087 C.2      1 ZINC000084668615    0.5400
3      N3     -1.1840    1.8902    0.0292 N.pl3    1 ZINC000084668615   -0.6700
4      C4     -1.1959    3.2463    0.0371 C.2      1 ZINC000084668615    0.3000
5      C5     -2.5190    3.9673    0.0600 C.3      1 ZINC000084668615    0.1200
6      H6     -2.4475    4.8915   -0.5135 H        1 ZINC000084668615    0.1500
7      C7     -2.9197    4.2829    1.5165 C.3      1 ZINC000084668615   -0.1200
8      C8     -4.4533    4.0484    1.5157 C.3      1 ZINC000084668615   -0.1400
9      C9     -4.5864    2.8523    0.5403 C.3      1 ZINC000084668615    0.0000
10     N10    -3.5705    3.1043   -0.5087 N.4      1 ZINC000084668615   -0.5100
11     H11    -4.0025    3.5638   -1.2962 H        1 ZINC000084668615    0.4200
12     H12    -3.1649    2.2294   -0.8057 H        1 ZINC000084668615    0.4400
13     N13    -0.0943    3.9433    0.0257 N.2      1 ZINC000084668615   -0.5600
14     C14     1.1068    3.3436    0.0052 C.2      1 ZINC000084668615    0.1200
15     C15     1.1901    1.9548    0.0012 C.2      1 ZINC000084668615   -0.1200
16     O16     2.4900    1.5940   -0.0204 O.3      1 ZINC000084668615   -0.1700
17     C17     3.2990    2.6745   -0.0314 C.ar     1 ZINC000084668615    0.0900
18     C18     4.6823    2.8118   -0.0539 C.ar     1 ZINC000084668615   -0.1000
19     C19     5.2519    4.0667   -0.0607 C.ar     1 ZINC000084668615   -0.0700
20     C20     4.4570    5.2043   -0.0452 C.ar     1 ZINC000084668615   -0.0700
21     Cl21    5.1945    6.7758   -0.0540 Cl       1 ZINC000084668615   -0.0600
22     C22     3.0831    5.0897   -0.0232 C.ar     1 ZINC000084668615   -0.0400
23     C23     2.4958    3.8266   -0.0115 C.ar     1 ZINC000084668615   -0.1100
24     H24    -2.4259    3.6008    2.2085 H        1 ZINC000084668615    0.1000
25     H25    -2.6885    5.3190    1.7639 H        1 ZINC000084668615    0.1100
26     H26    -4.8080    3.7817    2.5113 H        1 ZINC000084668615    0.1100
27     H27    -4.9818    4.9227    1.1358 H        1 ZINC000084668615    0.1000
28     H28    -4.3758    1.9160    1.0571 H        1 ZINC000084668615    0.1300
29     H29    -5.5843    2.8289    0.1024 H        1 ZINC000084668615    0.1300
30     H30     5.3113    1.9340   -0.0658 H        1 ZINC000084668615    0.1500
31     H31     6.3272    4.1659   -0.0778 H        1 ZINC000084668615    0.1500
32     H32     2.4651    5.9753   -0.0108 H        1 ZINC000084668615    0.1400
@<TRIPOS>BOND
1     1     2     2
2     2     15    1
3     2     3     1
4     3     4     1
5     4     5     1
6     4     13    2
7     5     6     1
8     5     10    1
9     5     7     1
10    7     8     1
11    7     24    1
12    7     25    1
13    8     9     1
14    8     26    1
15    8     27    1
16    9     10    1
17    9     28    1
18    9     29    1
19    10    11    1
20    10    12    1
21    13    14    1
22    14    23    1
23    14    15    2
24    15    16    1
25    16    17    1
26    17    23    ar
27    17    18    ar
28    18    19    ar
29    18    30    1
30    19    20    ar
31    19    31    1
32    20    21    1
33    20    22    ar
34    22    23    ar
35    22    32    1
@<TRIPOS>SUBSTRUCTURE
1   ZINC000084668615 1     RESIDUE    1   A     ZIN   1
