@<TRIPOS>MOLECULE
ZINC000049769733
97    97    1     0     0
SMALL
USER_CHARGES
@<TRIPOS>ATOM
1      C1     -0.2654   -4.7703   -4.8445 C.2      1 ZINC000049769733   -0.1800
2      C2      0.4115   -4.7326   -3.7018 C.2      1 ZINC000049769733   -0.1300
3      C3      1.5495   -5.6408   -3.4907 C.2      1 ZINC000049769733   -0.1300
4      C4      2.2733   -5.5519   -2.3800 C.2      1 ZINC000049769733   -0.1400
5      C5      1.8435   -4.6244   -1.2728 C.3      1 ZINC000049769733   -0.0700
6      H6      0.8630   -4.2095   -1.5065 H        1 ZINC000049769733    0.1000
7      C7      2.8588   -3.4881   -1.1364 C.3      1 ZINC000049769733   -0.1500
8      C8      1.7679   -5.4015    0.0430 C.3      1 ZINC000049769733    0.1200
9      H9      2.7484   -5.8165    0.2767 H        1 ZINC000049769733    0.1000
10     O10     0.8043   -6.4799   -0.0864 O.3      1 ZINC000049769733   -0.3500
11     C11     1.1989   -7.7035    0.3135 C.2      1 ZINC000049769733    0.6500
12     N12     0.3498   -8.7467    0.2283 N.am     1 ZINC000049769733   -0.8300
13     O13     2.3205   -7.8673    0.7512 O.2      1 ZINC000049769733   -0.5700
14     C14     1.3315   -4.4598    1.1672 C.3      1 ZINC000049769733   -0.1400
15     H15     2.0078   -3.6061    1.2090 H        1 ZINC000049769733    0.1000
16     C16    -0.0926   -3.9696    0.8978 C.3      1 ZINC000049769733   -0.1400
17     C17     1.3699   -5.2068    2.5019 C.3      1 ZINC000049769733    0.1200
18     H18     0.7657   -6.1111    2.4296 H        1 ZINC000049769733    0.0900
19     O19     0.8480   -4.3664    3.5332 O.3      1 ZINC000049769733   -0.5500
20     C20     2.8150   -5.5840    2.8339 C.3      1 ZINC000049769733   -0.1200
21     H21     3.2399   -6.1559    2.0089 H        1 ZINC000049769733    0.1000
22     C22     3.6374   -4.3121    3.0496 C.3      1 ZINC000049769733   -0.1600
23     C23     2.8412   -6.4306    4.1081 C.3      1 ZINC000049769733   -0.0700
24     C24     4.2349   -6.9585    4.3318 C.2      1 ZINC000049769733   -0.1200
25     C25     4.6883   -8.2111    3.6273 C.3      1 ZINC000049769733   -0.1100
26     C26     5.0523   -6.3284    5.1387 C.2      1 ZINC000049769733   -0.1500
27     C27     4.6011   -5.0721    5.8381 C.3      1 ZINC000049769733   -0.1000
28     H28     3.6240   -4.7751    5.4571 H        1 ZINC000049769733    0.1000
29     C29     5.6115   -3.9530    5.5785 C.3      1 ZINC000049769733   -0.1500
30     C30     4.5041   -5.3327    7.3426 C.3      1 ZINC000049769733    0.1300
31     H31     3.8525   -6.1879    7.5220 H        1 ZINC000049769733    0.1000
32     O32     5.8060   -5.6085    7.8632 O.3      1 ZINC000049769733   -0.5500
33     C33     3.9278   -4.0978    8.0381 C.3      1 ZINC000049769733   -0.1100
34     H34     4.5794   -3.2426    7.8587 H        1 ZINC000049769733    0.0900
35     C35     2.5339   -3.8026    7.4807 C.3      1 ZINC000049769733   -0.1500
36     C36     3.8323   -4.3545    9.5200 C.2      1 ZINC000049769733   -0.1100
37     C37     4.3568   -3.5041   10.3672 C.2      1 ZINC000049769733   -0.2100
38     C38     4.9097   -2.1921    9.8731 C.3      1 ZINC000049769733    0.1300
39     H39     4.6850   -2.0795    8.8125 H        1 ZINC000049769733    0.1200
40     O40     4.3128   -1.1185   10.6031 O.3      1 ZINC000049769733   -0.5500
41     C41     6.4257   -2.1678   10.0786 C.3      1 ZINC000049769733   -0.1500
42     C42     7.0031   -0.8907    9.4649 C.3      1 ZINC000049769733    0.1200
43     H43     6.4941   -0.0228    9.8841 H        1 ZINC000049769733    0.1000
44     O44     6.8135   -0.9157    8.0221 O.3      1 ZINC000049769733   -0.3700
45     C45     7.4057    0.0851    7.3376 C.2      1 ZINC000049769733    0.5000
46     O46     6.7834    0.7461    6.5404 O.2      1 ZINC000049769733   -0.4500
47     C47     8.8713    0.3559    7.5975 C.3      1 ZINC000049769733   -0.1700
48     H48     9.1592    1.2972    7.1295 H        1 ZINC000049769733    0.1100
49     C49     9.7155   -0.7840    7.0240 C.3      1 ZINC000049769733   -0.1400
50     C50     9.0852    0.4460    9.1134 C.3      1 ZINC000049769733    0.1100
51     H51    10.1521    0.5073    9.3282 H        1 ZINC000049769733    0.0800
52     O52     8.4275    1.6087    9.6210 O.3      1 ZINC000049769733   -0.5600
53     C53     8.5000   -0.8054    9.7753 C.3      1 ZINC000049769733   -0.1200
54     H54     9.0019   -1.6912    9.3860 H        1 ZINC000049769733    0.1000
55     C55     8.7061   -0.7258   11.2893 C.3      1 ZINC000049769733   -0.1400
56     H56    -1.1009   -4.1036   -4.9994 H        1 ZINC000049769733    0.1000
57     H57     0.0225   -5.4646   -5.6201 H        1 ZINC000049769733    0.1000
58     H58     0.1264   -4.0353   -2.9280 H        1 ZINC000049769733    0.1200
59     H59     1.7966   -6.3798   -4.2386 H        1 ZINC000049769733    0.1100
60     H60     3.1696   -6.1444   -2.2707 H        1 ZINC000049769733    0.1100
61     H61     2.9127   -2.9344   -2.0738 H        1 ZINC000049769733    0.0700
62     H62     2.5480   -2.8172   -0.3355 H        1 ZINC000049769733    0.0600
63     H63     3.8393   -3.9030   -0.9027 H        1 ZINC000049769733    0.0600
64     H64    -0.5456   -8.6160   -0.1212 H        1 ZINC000049769733    0.4100
65     H65     0.6340   -9.6282    0.5164 H        1 ZINC000049769733    0.4300
66     H66    -0.3764   -3.2422    1.6583 H        1 ZINC000049769733    0.0600
67     H67    -0.1360   -3.5024   -0.0860 H        1 ZINC000049769733    0.0600
68     H68    -0.7799   -4.8150    0.9292 H        1 ZINC000049769733    0.0600
69     H69     1.3378   -3.5414    3.6537 H        1 ZINC000049769733    0.3700
70     H70     4.6839   -4.5772    3.2004 H        1 ZINC000049769733    0.0700
71     H71     3.5482   -3.6688    2.1741 H        1 ZINC000049769733    0.0500
72     H72     3.2662   -3.7839    3.9279 H        1 ZINC000049769733    0.0600
73     H73     2.5444   -5.8166    4.9584 H        1 ZINC000049769733    0.0800
74     H74     2.1487   -7.2658    4.0037 H        1 ZINC000049769733    0.0600
75     H75     5.1384   -7.9471    2.6703 H        1 ZINC000049769733    0.0600
76     H76     5.4230   -8.7290    4.2438 H        1 ZINC000049769733    0.0600
77     H77     3.8315   -8.8633    3.4582 H        1 ZINC000049769733    0.0600
78     H78     6.0495   -6.7094    5.3028 H        1 ZINC000049769733    0.1100
79     H79     5.7413   -3.8227    4.5041 H        1 ZINC000049769733    0.0600
80     H80     5.2451   -3.0240    6.0155 H        1 ZINC000049769733    0.0600
81     H81     6.5680   -4.2148    6.0309 H        1 ZINC000049769733    0.0500
82     H82     6.4400   -4.8890    7.7385 H        1 ZINC000049769733    0.3700
83     H83     2.1233   -2.9228    7.9761 H        1 ZINC000049769733    0.0600
84     H84     2.6029   -3.6169    6.4089 H        1 ZINC000049769733    0.0600
85     H85     1.8822   -4.6578    7.6600 H        1 ZINC000049769733    0.0600
86     H86     3.3314   -5.2395    9.8835 H        1 ZINC000049769733    0.1100
87     H87     4.3931   -3.7433   11.4198 H        1 ZINC000049769733    0.1100
88     H88     4.4080   -1.1944   11.5625 H        1 ZINC000049769733    0.3700
89     H89     6.6481   -2.1910   11.1454 H        1 ZINC000049769733    0.0900
90     H90     6.8718   -3.0370    9.5954 H        1 ZINC000049769733    0.0900
91     H91     9.5463   -0.8566    5.9497 H        1 ZINC000049769733    0.0700
92     H92    10.7704   -0.5855    7.2131 H        1 ZINC000049769733    0.0700
93     H93     9.4312   -1.7221    7.5008 H        1 ZINC000049769733    0.0700
94     H94     8.7449    2.4384    9.2390 H        1 ZINC000049769733    0.3900
95     H95     8.2034    0.1596   11.6783 H        1 ZINC000049769733    0.0700
96     H96     8.2895   -1.6164   11.7599 H        1 ZINC000049769733    0.0600
97     H97     9.7721   -0.6640   11.5081 H        1 ZINC000049769733    0.0600
@<TRIPOS>BOND
1     1     2     2
2     1     56    1
3     1     57    1
4     2     3     1
5     2     58    1
6     3     4     2
7     3     59    1
8     4     5     1
9     4     60    1
10    5     6     1
11    5     7     1
12    5     8     1
13    7     61    1
14    7     62    1
15    7     63    1
16    8     9     1
17    8     10    1
18    8     14    1
19    10    11    1
20    11    12    am
21    11    13    2
22    12    64    1
23    12    65    1
24    14    15    1
25    14    16    1
26    14    17    1
27    16    66    1
28    16    67    1
29    16    68    1
30    17    18    1
31    17    19    1
32    17    20    1
33    19    69    1
34    20    21    1
35    20    22    1
36    20    23    1
37    22    70    1
38    22    71    1
39    22    72    1
40    23    24    1
41    23    73    1
42    23    74    1
43    24    25    1
44    24    26    2
45    25    75    1
46    25    76    1
47    25    77    1
48    26    27    1
49    26    78    1
50    27    28    1
51    27    29    1
52    27    30    1
53    29    79    1
54    29    80    1
55    29    81    1
56    30    31    1
57    30    32    1
58    30    33    1
59    32    82    1
60    33    34    1
61    33    35    1
62    33    36    1
63    35    83    1
64    35    84    1
65    35    85    1
66    36    37    2
67    36    86    1
68    37    38    1
69    37    87    1
70    38    39    1
71    38    40    1
72    38    41    1
73    40    88    1
74    41    42    1
75    41    89    1
76    41    90    1
77    42    43    1
78    42    53    1
79    42    44    1
80    44    45    1
81    45    46    2
82    45    47    1
83    47    48    1
84    47    49    1
85    47    50    1
86    49    91    1
87    49    92    1
88    49    93    1
89    50    51    1
90    50    52    1
91    50    53    1
92    52    94    1
93    53    54    1
94    53    55    1
95    55    95    1
96    55    96    1
97    55    97    1
@<TRIPOS>SUBSTRUCTURE
1   ZINC000049769733 1     RESIDUE    1   A     ZIN   1
