@<TRIPOS>MOLECULE
ZINC000027439698
60    63    1     0     0
SMALL
USER_CHARGES
@<TRIPOS>ATOM
1      C1     -0.0915    0.8745   -1.7146 C.2      1 ZINC000027439698   -0.0700
2      C2     -0.0304   -0.2632   -1.0282 C.2      1 ZINC000027439698   -0.2300
3      C3      1.2532   -0.9658   -0.8820 C.2      1 ZINC000027439698    0.5500
4      O4      2.2591   -0.5065   -1.3888 O.2      1 ZINC000027439698   -0.5300
5      N5      1.3151   -2.1186   -0.1865 N.am     1 ZINC000027439698   -0.6600
6      C6      2.5147   -2.8378   -0.1290 C.ar     1 ZINC000027439698    0.1100
7      C7      2.4835   -4.2397   -0.0713 C.ar     1 ZINC000027439698    0.1600
8      O8      1.2887   -4.8859   -0.0713 O.3      1 ZINC000027439698   -0.3100
9      C9      1.3230   -6.3132   -0.0110 C.3      1 ZINC000027439698    0.0600
10     C10    -0.1065   -6.8586   -0.0205 C.3      1 ZINC000027439698   -0.1500
11     C11    -0.0697   -8.3868    0.0441 C.3      1 ZINC000027439698   -0.0100
12     N12    -1.4422   -8.9104    0.0350 N.4      1 ZINC000027439698   -0.3800
13     H13    -1.9682   -8.4886    0.7856 H        1 ZINC000027439698    0.4200
14     C14    -1.4117  -10.3682    0.2168 C.3      1 ZINC000027439698   -0.0400
15     C15    -2.8428  -10.9113    0.2073 C.3      1 ZINC000027439698    0.0400
16     O16    -3.4766  -10.5484   -1.0226 O.3      1 ZINC000027439698   -0.3600
17     C17    -3.5097   -9.1378   -1.2567 C.3      1 ZINC000027439698    0.0400
18     C18    -2.0799   -8.5912   -1.2498 C.3      1 ZINC000027439698   -0.0500
19     C19     3.6511   -4.9670   -0.0151 C.ar     1 ZINC000027439698   -0.1900
20     C20     4.8831   -4.3018   -0.0151 C.ar     1 ZINC000027439698    0.2200
21     N21     6.0465   -4.9694    0.0380 N.ar     1 ZINC000027439698   -0.5500
22     C22     7.1867   -4.3207    0.0363 C.ar     1 ZINC000027439698    0.3600
23     N23     7.2638   -3.0005   -0.0165 N.ar     1 ZINC000027439698   -0.5800
24     C24     6.1751   -2.2444   -0.0716 C.ar     1 ZINC000027439698    0.4800
25     N25     6.2701   -0.8685   -0.1267 N.pl3    1 ZINC000027439698   -0.6300
26     C26     7.5240   -0.2578   -0.2357 C.ar     1 ZINC000027439698    0.1500
27     C27     8.5432   -0.8837   -0.9412 C.ar     1 ZINC000027439698   -0.0800
28     C28     9.7807   -0.2791   -1.0484 C.ar     1 ZINC000027439698   -0.1200
29     C29    10.0058    0.9501   -0.4532 C.ar     1 ZINC000027439698    0.1000
30     F30    11.2168    1.5395   -0.5594 F        1 ZINC000027439698   -0.1200
31     C31     8.9901    1.5774    0.2512 C.ar     1 ZINC000027439698   -0.0500
32     Cl32    9.2748    3.1196    0.9957 Cl       1 ZINC000027439698   -0.0400
33     C33     7.7494    0.9781    0.3566 C.ar     1 ZINC000027439698   -0.1100
34     C34     4.9135   -2.8862   -0.0729 C.ar     1 ZINC000027439698   -0.2000
35     C35     3.7163   -2.1638   -0.1353 C.ar     1 ZINC000027439698   -0.0400
36     H36     0.8016    1.2823   -2.1646 H        1 ZINC000027439698    0.1200
37     H37    -1.0350    1.3882   -1.8258 H        1 ZINC000027439698    0.1200
38     H38    -0.9235   -0.6710   -0.5783 H        1 ZINC000027439698    0.1300
39     H39     0.5284   -2.4498    0.2742 H        1 ZINC000027439698    0.4200
40     H40     1.8653   -6.7003   -0.8736 H        1 ZINC000027439698    0.0800
41     H41     1.8253   -6.6262    0.9043 H        1 ZINC000027439698    0.0800
42     H42    -0.6488   -6.4714    0.8422 H        1 ZINC000027439698    0.1000
43     H43    -0.6087   -6.5455   -0.9358 H        1 ZINC000027439698    0.1000
44     H44     0.4726   -8.7739   -0.8186 H        1 ZINC000027439698    0.1400
45     H45     0.4325   -8.6998    0.9594 H        1 ZINC000027439698    0.1400
46     H46    -0.8443  -10.8240   -0.5946 H        1 ZINC000027439698    0.1400
47     H47    -0.9389  -10.6059    1.1698 H        1 ZINC000027439698    0.1400
48     H48    -2.8206  -11.9972    0.2988 H        1 ZINC000027439698    0.1400
49     H49    -3.3990  -10.4861    1.0427 H        1 ZINC000027439698    0.0800
50     H50    -3.9702   -8.9402   -2.2247 H        1 ZINC000027439698    0.1400
51     H51    -4.0888   -8.6520   -0.4714 H        1 ZINC000027439698    0.0800
52     H52    -2.1033   -7.5100   -1.3857 H        1 ZINC000027439698    0.1400
53     H53    -1.5122   -9.0477   -2.0606 H        1 ZINC000027439698    0.1400
54     H54     3.6168   -6.0456    0.0290 H        1 ZINC000027439698    0.1500
55     H55     8.1037   -4.8896    0.0802 H        1 ZINC000027439698    0.2000
56     H56     5.4675   -0.3251   -0.0898 H        1 ZINC000027439698    0.4300
57     H57     8.3686   -1.8430   -1.4057 H        1 ZINC000027439698    0.1500
58     H58    10.5735   -0.7662   -1.5968 H        1 ZINC000027439698    0.1500
59     H59     6.9580    1.4668    0.9055 H        1 ZINC000027439698    0.1500
60     H60     3.7343   -1.0851   -0.1848 H        1 ZINC000027439698    0.1600
@<TRIPOS>BOND
1     1     2     2
2     1     36    1
3     1     37    1
4     2     3     1
5     2     38    1
6     3     4     2
7     3     5     am
8     5     6     1
9     5     39    1
10    6     35    ar
11    6     7     ar
12    7     8     1
13    7     19    ar
14    8     9     1
15    9     10    1
16    9     40    1
17    9     41    1
18    10    11    1
19    10    42    1
20    10    43    1
21    11    12    1
22    11    44    1
23    11    45    1
24    12    13    1
25    12    18    1
26    12    14    1
27    14    15    1
28    14    46    1
29    14    47    1
30    15    16    1
31    15    48    1
32    15    49    1
33    16    17    1
34    17    18    1
35    17    50    1
36    17    51    1
37    18    52    1
38    18    53    1
39    19    20    ar
40    19    54    1
41    20    34    ar
42    20    21    ar
43    21    22    ar
44    22    23    ar
45    22    55    1
46    23    24    ar
47    24    25    1
48    24    34    ar
49    25    26    1
50    25    56    1
51    26    33    ar
52    26    27    ar
53    27    28    ar
54    27    57    1
55    28    29    ar
56    28    58    1
57    29    30    1
58    29    31    ar
59    31    32    1
60    31    33    ar
61    33    59    1
62    34    35    ar
63    35    60    1
@<TRIPOS>SUBSTRUCTURE
1   ZINC000027439698 1     RESIDUE    1   A     ZIN   1
