@<TRIPOS>MOLECULE
ZINC000001537480
  48   50    0    0    0
SMALL
USER_CHARGES
NO_NAME
@<TRIPOS>ATOM
    1 C1       -0.0184     1.5028     0.0103 C.3    1 <0>      -0.1100
    2 C2        0.0021    -0.0041     0.0020 C.ar   1 <0>       0.1700
    3 C3        0.0055    -0.6786    -1.2027 C.ar   1 <0>      -0.1900
    4 C4        0.0225    -2.0665    -1.1993 C.ar   1 <0>      -0.0400
    5 C5        0.0364    -2.7256     0.0183 C.ar   1 <0>      -0.2000
    6 C6        0.0544    -4.2282     0.0486 C.3    1 <0>      -0.0300
    7 C7       -0.3564    -4.7328     1.4055 C.ar   1 <0>      -0.1500
    8 C8       -0.7566    -6.0494     1.5468 C.ar   1 <0>      -0.0700
    9 C9       -1.1366    -6.5320     2.7849 C.ar   1 <0>      -0.1000
   10 C10      -1.5716    -7.9672     2.9329 C.3    1 <0>      -0.0300
   11 H11      -1.5215    -8.4638     1.9640 H      1 <0>       0.1200
   12 C12      -3.0087    -8.0132     3.4559 C.3    1 <0>      -0.1500
   13 C13      -0.6604    -8.6705     3.9056 C.2    1 <0>       0.4700
   14 O14       0.2490    -8.0681     4.4253 O.2    1 <0>      -0.4900
   15 O15      -0.8590    -9.9662     4.1946 O.3    1 <0>      -0.3300
   16 C16       0.0573   -10.5787     5.1400 C.3    1 <0>       0.0500
   17 C17      -0.3185   -12.0244     5.3390 C.2    1 <0>       0.5100
   18 O18      -1.2653   -12.4925     4.7429 O.2    1 <0>      -0.5100
   19 N19       0.3976   -12.7972     6.1795 N.am   1 <0>      -0.6200
   20 C20       0.0323   -14.2027     6.3731 C.3    1 <0>       0.0900
   21 C21       1.5413   -12.2318     6.8996 C.3    1 <0>       0.0700
   22 C22      -1.1173    -5.6984     3.8877 C.ar   1 <0>      -0.0500
   23 C23      -0.7186    -4.3837     3.7525 C.ar   1 <0>      -0.1200
   24 C24      -0.3368    -3.8947     2.5084 C.ar   1 <0>       0.1300
   25 O25       0.0504    -2.6015     2.3976 O.3    1 <0>      -0.2300
   26 C26       0.0338    -1.9865     1.1917 C.ar   1 <0>       0.3300
   27 N27       0.0218    -0.6603     1.1447 N.ar   1 <0>      -0.4900
   28 H28       1.0042     1.8801     0.0026 H      1 <0>       0.0800
   29 H29      -0.5455     1.8639    -0.8728 H      1 <0>       0.0800
   30 H30      -0.5286     1.8543     0.9071 H      1 <0>       0.0800
   31 H31      -0.0052    -0.1337    -2.1350 H      1 <0>       0.1400
   32 H32       0.0246    -2.6204    -2.1265 H      1 <0>       0.1400
   33 H33      -0.6368    -4.6115    -0.7021 H      1 <0>       0.0900
   34 H34       1.0609    -4.5805    -0.1767 H      1 <0>       0.0900
   35 H35      -0.7726    -6.7024     0.6867 H      1 <0>       0.1300
   36 H36      -3.0589    -7.5166     4.4248 H      1 <0>       0.0600
   37 H37      -3.6678    -7.5045     2.7523 H      1 <0>       0.0800
   38 H38      -3.3234    -9.0513     3.5629 H      1 <0>       0.0800
   39 H39       1.0741   -10.5177     4.7520 H      1 <0>       0.1000
   40 H40       0.0001   -10.0538     6.0935 H      1 <0>       0.1000
   41 H41       0.5617   -14.8191     5.6465 H      1 <0>       0.0600
   42 H42       0.3058   -14.5137     7.3813 H      1 <0>       0.0700
   43 H43      -1.0425   -14.3210     6.2353 H      1 <0>       0.0800
   44 H44       1.6576   -11.1822     6.6298 H      1 <0>       0.0800
   45 H45       1.3716   -12.3144     7.9732 H      1 <0>       0.0700
   46 H46       2.4456   -12.7782     6.6316 H      1 <0>       0.0700
   47 H47      -1.4137    -6.0760     4.8551 H      1 <0>       0.1300
   48 H48      -0.7042    -3.7336     4.6147 H      1 <0>       0.1400
@<TRIPOS>BOND
   1    1    2 1
   2    1   28 1
   3    1   29 1
   4    1   30 1
   5    2   27 ar
   6    2    3 ar
   7    3    4 ar
   8    3   31 1
   9    4    5 ar
  10    4   32 1
  11    5   26 ar
  12    5    6 1
  13    6    7 1
  14    6   33 1
  15    6   34 1
  16    7   24 ar
  17    7    8 ar
  18    8    9 ar
  19    8   35 1
  20    9   10 1
  21    9   22 ar
  22   10   11 1
  23   10   12 1
  24   10   13 1
  25   12   36 1
  26   12   37 1
  27   12   38 1
  28   13   14 2
  29   13   15 1
  30   15   16 1
  31   16   17 1
  32   16   39 1
  33   16   40 1
  34   17   18 2
  35   17   19 am
  36   19   20 1
  37   19   21 1
  38   20   41 1
  39   20   42 1
  40   20   43 1
  41   21   44 1
  42   21   45 1
  43   21   46 1
  44   22   23 ar
  45   22   47 1
  46   23   24 ar
  47   23   48 1
  48   24   25 1
  49   25   26 1
  50   26   27 ar
