@<TRIPOS>MOLECULE
ZINC000003827198
  45   49    0    0    0
SMALL
USER_CHARGES
NO_NAME
@<TRIPOS>ATOM
    1 C1        0.8753    -0.9153    -0.8629 C.3    1 <0>      -0.1700
    2 C2        0.0021    -0.0041     0.0020 C.3    1 <0>      -0.1700
    3 C3       -1.4333    -0.5336     0.0129 C.3    1 <0>       0.1800
    4 O4       -2.1307    -0.0544    -1.1386 O.3    1 <0>      -0.5400
    5 C5       -2.1475    -0.0623     1.2873 C.3    1 <0>      -0.1900
    6 C6       -1.1882    -0.1313     2.4452 C.2    1 <0>       0.4900
    7 O7       -0.9090     0.8819     3.0413 O.2    1 <0>      -0.4500
    8 O8       -0.6366    -1.2912     2.8307 O.3    1 <0>      -0.3700
    9 C9        0.2205    -1.9677     1.8702 C.3    1 <0>       0.1100
   10 C10      -0.6439    -2.7263     0.8900 C.2    1 <0>      -0.2400
   11 C11      -1.4173    -2.0418     0.0046 C.2    1 <0>       0.0500
   12 C12      -2.2040    -2.7483    -0.9098 C.2    1 <0>      -0.1500
   13 C13      -2.1925    -4.1288    -0.8997 C.2    1 <0>       0.2000
   14 C14      -2.9276    -5.0951    -1.7497 C.ar   1 <0>       0.1700
   15 C15      -2.5729    -6.3933    -1.3453 C.ar   1 <0>      -0.1600
   16 C16      -3.1075    -7.4791    -1.9653 C.ar   1 <0>      -0.0200
   17 C17      -4.0226    -7.2613    -3.0147 C.ar   1 <0>      -0.0900
   18 C18      -4.6177    -8.3335    -3.6970 C.ar   1 <0>      -0.1000
   19 C19      -5.4986    -8.0841    -4.7051 C.ar   1 <0>      -0.1000
   20 C20      -5.8165    -6.7771    -5.0702 C.ar   1 <0>      -0.1000
   21 C21      -5.2585    -5.7137    -4.4315 C.ar   1 <0>      -0.0900
   22 C22      -4.3449    -5.9297    -3.3823 C.ar   1 <0>       0.1400
   23 N23      -3.7870    -4.9041    -2.7384 N.ar   1 <0>      -0.4300
   24 C24      -1.5916    -6.2439    -0.2112 C.3    1 <0>       0.1400
   25 N25      -1.4141    -4.8013    -0.0009 N.am   1 <0>      -0.5000
   26 C26      -0.6497    -4.1299     0.8861 C.2    1 <0>       0.5500
   27 O27       0.0374    -4.7441     1.6859 O.2    1 <0>      -0.5300
   28 H28       1.8979    -0.5380    -0.8706 H      1 <0>       0.0700
   29 H29       0.8638    -1.9253    -0.4532 H      1 <0>       0.0700
   30 H30       0.4864    -0.9317    -1.8810 H      1 <0>       0.0700
   31 H31       0.3910     0.0124     1.0201 H      1 <0>       0.0800
   32 H32       0.0136     1.0059    -0.4077 H      1 <0>       0.0900
   33 H33      -2.1843     0.9096    -1.1931 H      1 <0>       0.3900
   34 H34      -2.4867     0.9652     1.1560 H      1 <0>       0.1200
   35 H35      -3.0038    -0.7072     1.4847 H      1 <0>       0.1200
   36 H36       0.8200    -1.2317     1.3344 H      1 <0>       0.1100
   37 H37       0.8763    -2.6638     2.3931 H      1 <0>       0.1300
   38 H38      -2.8185    -2.2164    -1.6210 H      1 <0>       0.1700
   39 H39      -2.8382    -8.4801    -1.6623 H      1 <0>       0.1500
   40 H40      -4.3782    -9.3507    -3.4243 H      1 <0>       0.1400
   41 H41      -5.9567    -8.9100    -5.2289 H      1 <0>       0.1300
   42 H42      -6.5173    -6.6059    -5.8739 H      1 <0>       0.1400
   43 H43      -5.5152    -4.7075    -4.7282 H      1 <0>       0.1400
   44 H44      -1.9902    -6.7070     0.6915 H      1 <0>       0.1200
   45 H45      -0.6394    -6.7027    -0.4779 H      1 <0>       0.1200
@<TRIPOS>BOND
   1    1    2 1
   2    1   28 1
   3    1   29 1
   4    1   30 1
   5    2    3 1
   6    2   31 1
   7    2   32 1
   8    3   11 1
   9    3    4 1
  10    3    5 1
  11    4   33 1
  12    5    6 1
  13    5   34 1
  14    5   35 1
  15    6    7 2
  16    6    8 1
  17    8    9 1
  18    9   10 1
  19    9   36 1
  20    9   37 1
  21   10   26 1
  22   10   11 2
  23   11   12 1
  24   12   13 2
  25   12   38 1
  26   13   25 1
  27   13   14 1
  28   14   23 ar
  29   14   15 ar
  30   15   16 ar
  31   15   24 1
  32   16   17 ar
  33   16   39 1
  34   17   22 ar
  35   17   18 ar
  36   18   19 ar
  37   18   40 1
  38   19   20 ar
  39   19   41 1
  40   20   21 ar
  41   20   42 1
  42   21   22 ar
  43   21   43 1
  44   22   23 ar
  45   24   25 1
  46   24   44 1
  47   24   45 1
  48   25   26 am
  49   26   27 2
