@<TRIPOS>MOLECULE
ZINC000003996018
  48   51    0    0    0
SMALL
USER_CHARGES
NO_NAME
@<TRIPOS>ATOM
    1 C1       -0.0173     1.4248     0.0099 C.3    1 <0>       0.0200
    2 O2        0.0021    -0.0041     0.0020 O.3    1 <0>      -0.3100
    3 C3        0.6262    -0.6188     1.0422 C.ar   1 <0>       0.1000
    4 C4        1.2015     0.1325     2.0496 C.ar   1 <0>      -0.2000
    5 C5        1.8432    -0.4864     3.1159 C.ar   1 <0>      -0.0300
    6 C6        1.9094    -1.8611     3.1686 C.ar   1 <0>      -0.1000
    7 C7        1.3291    -2.6202     2.1599 C.ar   1 <0>      -0.1100
    8 C8        0.6844    -2.0084     1.1012 C.ar   1 <0>       0.0700
    9 O9        0.1198    -2.7591     0.1179 O.3    1 <0>      -0.4900
   10 C10       2.6019    -2.5961     4.2867 C.3    1 <0>      -0.0800
   11 C11       2.7957    -1.6807     5.4935 C.3    1 <0>      -0.1200
   12 C12       3.4605    -0.3841     5.0165 C.3    1 <0>      -0.0700
   13 H13       3.7796     0.2120     5.8714 H      1 <0>       0.0900
   14 C14       4.6508    -0.7144     4.1338 C.3    1 <0>      -0.0800
   15 H15       4.3279    -1.2748     3.2565 H      1 <0>       0.0800
   16 C16       5.8152    -1.4314     4.8261 C.3    1 <0>      -0.1100
   17 C17       7.0229    -1.1000     3.9076 C.3    1 <0>      -0.1600
   18 C18       6.6580     0.2071     3.1608 C.3    1 <0>       0.1100
   19 H19       6.5759     0.0200     2.0901 H      1 <0>       0.0500
   20 O20       7.6418     1.2125     3.4129 O.3    1 <0>      -0.5600
   21 C21       5.2945     0.6333     3.7102 C.3    1 <0>      -0.0600
   22 C22       5.4856     1.5036     4.9539 C.3    1 <0>      -0.1400
   23 C23       4.3589     1.3226     2.7355 C.3    1 <0>      -0.1000
   24 C24       3.0668     1.6503     3.5013 C.3    1 <0>      -0.1200
   25 C25       2.4408     0.3945     4.1791 C.3    1 <0>      -0.0400
   26 H26       1.6206     0.7274     4.8152 H      1 <0>       0.0800
   27 H27       1.0053     1.8021     0.0021 H      1 <0>       0.0600
   28 H28      -0.5445     1.7859    -0.8732 H      1 <0>       0.1000
   29 H29      -0.5275     1.7763     0.9067 H      1 <0>       0.0500
   30 H30       1.1522     1.2106     2.0078 H      1 <0>       0.1300
   31 H31       1.3786    -3.6981     2.2056 H      1 <0>       0.1300
   32 H32      -0.8028    -2.9959     0.2845 H      1 <0>       0.3900
   33 H33       1.9981    -3.4547     4.5803 H      1 <0>       0.0700
   34 H34       3.5749    -2.9437     3.9395 H      1 <0>       0.0800
   35 H35       1.8281    -1.4539     5.9411 H      1 <0>       0.0700
   36 H36       3.4342    -2.1718     6.2278 H      1 <0>       0.0700
   37 H37       5.9722    -1.0330     5.8285 H      1 <0>       0.0700
   38 H38       5.6403    -2.5068     4.8604 H      1 <0>       0.0700
   39 H39       7.9198    -0.9496     4.5085 H      1 <0>       0.0700
   40 H40       7.1819    -1.9074     3.1928 H      1 <0>       0.0700
   41 H41       8.5296     0.9789     3.1091 H      1 <0>       0.3800
   42 H42       6.0394     2.4035     4.6861 H      1 <0>       0.0600
   43 H43       4.5114     1.7825     5.3555 H      1 <0>       0.0600
   44 H44       6.0423     0.9449     5.7063 H      1 <0>       0.0500
   45 H45       4.8163     2.2414     2.3685 H      1 <0>       0.0700
   46 H46       4.1372     0.6579     1.9005 H      1 <0>       0.0600
   47 H47       3.2960     2.3558     4.3000 H      1 <0>       0.0700
   48 H48       2.3543     2.1099     2.8163 H      1 <0>       0.0700
@<TRIPOS>BOND
   1    1    2 1
   2    1   27 1
   3    1   28 1
   4    1   29 1
   5    2    3 1
   6    3    8 ar
   7    3    4 ar
   8    4    5 ar
   9    4   30 1
  10    5   25 1
  11    5    6 ar
  12    6    7 ar
  13    6   10 1
  14    7    8 ar
  15    7   31 1
  16    8    9 1
  17    9   32 1
  18   10   11 1
  19   10   33 1
  20   10   34 1
  21   11   12 1
  22   11   35 1
  23   11   36 1
  24   12   13 1
  25   12   25 1
  26   12   14 1
  27   14   15 1
  28   14   21 1
  29   14   16 1
  30   16   17 1
  31   16   37 1
  32   16   38 1
  33   17   18 1
  34   17   39 1
  35   17   40 1
  36   18   19 1
  37   18   20 1
  38   18   21 1
  39   20   41 1
  40   21   22 1
  41   21   23 1
  42   22   42 1
  43   22   43 1
  44   22   44 1
  45   23   24 1
  46   23   45 1
  47   23   46 1
  48   24   25 1
  49   24   47 1
  50   24   48 1
  51   25   26 1
