@<TRIPOS>MOLECULE
ZINC000002005823
  24   23    0    0    0
SMALL
USER_CHARGES
NO_NAME
@<TRIPOS>ATOM
    1 C1       -0.0179     1.4678     0.0101 C.3    1 <0>      -0.0300
    2 C2        0.0021    -0.0041     0.0020 C.1    1 <0>      -0.2300
    3 C3        0.0180    -1.1779    -0.0044 C.1    1 <0>      -0.1500
    4 C4        0.0380    -2.6498    -0.0125 C.3    1 <0>       0.0100
    5 C5       -1.3974    -3.1794    -0.0017 C.3    1 <0>      -0.1600
    6 H6       -1.9503    -2.7476    -0.8359 H      1 <0>       0.0600
    7 C7       -1.3798    -4.7034    -0.1358 C.3    1 <0>      -0.0900
    8 C8       -2.8147    -5.2219    -0.2503 C.3    1 <0>      -0.1200
    9 C9       -2.7970    -6.7459    -0.3843 C.3    1 <0>      -0.1500
   10 C10      -2.0642    -2.7968     1.2945 C.2    1 <0>       0.5000
   11 O11      -3.0672    -2.1037     1.2828 O.co2  1 <0>      -0.7000
   12 O12      -1.6007    -3.1804     2.3549 O.co2  1 <0>      -0.7000
   13 H13       1.0047     1.8451     0.0024 H      1 <0>       0.0700
   14 H14      -0.5451     1.8289    -0.8729 H      1 <0>       0.0700
   15 H15      -0.5281     1.8193     0.9069 H      1 <0>       0.0700
   16 H16       0.5481    -3.0013    -0.9093 H      1 <0>       0.0700
   17 H17       0.5651    -3.0109     0.8705 H      1 <0>       0.0900
   18 H18      -0.8200    -4.9831    -1.0282 H      1 <0>       0.0500
   19 H19      -0.9047    -5.1399     0.7428 H      1 <0>       0.0700
   20 H20      -3.3744    -4.9422     0.6422 H      1 <0>       0.0700
   21 H21      -3.2897    -4.7854    -1.1288 H      1 <0>       0.0500
   22 H22      -2.2373    -7.0257    -1.2768 H      1 <0>       0.0500
   23 H23      -2.3219    -7.1825     0.4942 H      1 <0>       0.0500
   24 H24      -3.8193    -7.1154    -0.4659 H      1 <0>       0.0500
@<TRIPOS>BOND
   1    1    2 1
   2    1   13 1
   3    1   14 1
   4    1   15 1
   5    2    3 3
   6    3    4 1
   7    4    5 1
   8    4   16 1
   9    4   17 1
  10    5    6 1
  11    5    7 1
  12    5   10 1
  13    7    8 1
  14    7   18 1
  15    7   19 1
  16    8    9 1
  17    8   20 1
  18    8   21 1
  19    9   22 1
  20    9   23 1
  21    9   24 1
  22   10   11 ar
  23   10   12 ar
