@<TRIPOS>MOLECULE
ZINC000003816311
25    26    1     0     0
SMALL
USER_CHARGES
@<TRIPOS>ATOM
1      O1      0.0021   -0.0041    0.0020 O.2      1 ZINC000003816311   -0.6000
2      C2     -0.0144    1.2115    0.0087 C.2      1 ZINC000003816311    0.5600
3      N3      1.1435    1.9012    0.0014 N.pl3    1 ZINC000003816311   -1.1100
4      S4      2.5887    1.0928   -0.0168 S.o2     1 ZINC000003816311    2.6600
5      O5      2.6850    0.4151    1.2285 O.2      1 ZINC000003816311   -1.0000
6      O6      2.6611    0.4285   -1.2709 O.2      1 ZINC000003816311   -1.0100
7      C7      3.8655    2.3070   -0.0225 C.2      1 ZINC000003816311   -0.7100
8      C8      4.4365    2.8270    1.0648 C.2      1 ZINC000003816311   -0.0200
9      C9      5.4205    3.7681    0.8137 C.2      1 ZINC000003816311   -0.1100
10     C10     5.6481    4.0119   -0.4787 C.2      1 ZINC000003816311   -0.2000
11     Br11    6.9224    5.2378   -1.1489 Br       1 ZINC000003816311    0.0000
12     S12     4.5867    3.0128   -1.4630 S.3      1 ZINC000003816311    0.2600
13     C13    -1.3035    1.9326    0.0187 C.ar     1 ZINC000003816311   -0.0700
14     C14    -1.3259    3.3286    0.0207 C.ar     1 ZINC000003816311   -0.0400
15     C15    -2.5323    3.9962    0.0301 C.ar     1 ZINC000003816311   -0.1300
16     C16    -3.7213    3.2853    0.0381 C.ar     1 ZINC000003816311   -0.0200
17     Cl17   -5.2356    4.1342    0.0505 Cl       1 ZINC000003816311   -0.0800
18     C18    -3.7072    1.9008    0.0358 C.ar     1 ZINC000003816311   -0.1200
19     C19    -2.5061    1.2203    0.0206 C.ar     1 ZINC000003816311    0.0100
20     Cl20   -2.4894   -0.5156    0.0177 Cl       1 ZINC000003816311   -0.0300
21     H21     4.1525    2.5363    2.0654 H        1 ZINC000003816311    0.1600
22     H22     5.9624    4.2671    1.6035 H        1 ZINC000003816311    0.1500
23     H23    -0.4000    3.8846    0.0151 H        1 ZINC000003816311    0.1600
24     H24    -2.5503    5.0760    0.0316 H        1 ZINC000003816311    0.1400
25     H25    -4.6375    1.3522    0.0417 H        1 ZINC000003816311    0.1400
@<TRIPOS>BOND
1     1     2     2
2     2     3     1
3     2     13    1
4     3     4     1
5     4     5     2
6     4     6     2
7     4     7     1
8     7     12    1
9     7     8     2
10    8     9     1
11    8     21    1
12    9     10    2
13    9     22    1
14    10    11    1
15    10    12    1
16    13    19    ar
17    13    14    ar
18    14    15    ar
19    14    23    1
20    15    16    ar
21    15    24    1
22    16    17    1
23    16    18    ar
24    18    19    ar
25    18    25    1
26    19    20    1
@<TRIPOS>SUBSTRUCTURE
1   ZINC000003816311 1     RESIDUE    1   A     ZIN   1
