@<TRIPOS>MOLECULE
ZINC000043203165
61    65    1     0     0
SMALL
USER_CHARGES
@<TRIPOS>ATOM
1      N1     -0.0165    1.3684    0.0096 N.pl3    1 ZINC000043203165   -0.7900
2      C2      0.0021   -0.0041    0.0020 C.2      1 ZINC000043203165    0.6300
3      N3     -1.1394   -0.6782    0.0038 N.2      1 ZINC000043203165   -0.6400
4      C4     -1.1259   -2.0141   -0.0035 C.2      1 ZINC000043203165    0.6600
5      O5     -2.1732   -2.6383   -0.0023 O.2      1 ZINC000043203165   -0.5300
6      N6      0.0541   -2.6679   -0.0127 N.am     1 ZINC000043203165   -0.5500
7      C7      0.0853   -4.1325   -0.0213 C.3      1 ZINC000043203165    0.2800
8      H8     -0.9230   -4.5334    0.0826 H        1 ZINC000043203165    0.1300
9      C9      0.7379   -4.6489   -1.3228 C.3      1 ZINC000043203165   -0.1800
10     C10     1.5483   -5.8846   -0.8717 C.3      1 ZINC000043203165    0.1500
11     H11     2.6100   -5.7386   -1.0710 H        1 ZINC000043203165    0.0900
12     O12     1.0741   -7.0616   -1.5289 O.3      1 ZINC000043203165   -0.7400
13     P13     2.0132   -7.9908   -2.4491 P.3      1 ZINC000043203165    2.2200
14     O14     3.2528   -8.4322   -1.6393 O.co2    1 ZINC000043203165   -1.1000
15     O15     2.4672   -7.1935   -3.6921 O.co2    1 ZINC000043203165   -1.0900
16     O16     1.1875   -9.2911   -2.9177 O.3      1 ZINC000043203165   -0.7500
17     C17     1.7759  -10.3609   -3.6601 C.3      1 ZINC000043203165    0.1500
18     C18     0.7181  -11.4305   -3.9391 C.3      1 ZINC000043203165    0.0900
19     H19     0.2494  -11.7514   -3.0088 H        1 ZINC000043203165    0.1000
20     O20    -0.2776  -10.9259   -4.8556 O.3      1 ZINC000043203165   -0.3500
21     C21    -0.9017  -12.0984   -5.4227 C.3      1 ZINC000043203165    0.3000
22     H22    -1.6190  -12.5235   -4.7206 H        1 ZINC000043203165    0.1100
23     N23    -1.5634  -11.7633   -6.6861 N.pl3    1 ZINC000043203165   -0.4500
24     C24    -1.2577  -10.7143   -7.5039 C.2      1 ZINC000043203165    0.2300
25     N25    -2.0456  -10.7182   -8.5392 N.2      1 ZINC000043203165   -0.4300
26     C26    -2.9007  -11.7657   -8.4484 C.2      1 ZINC000043203165   -0.1400
27     C27    -2.5971  -12.4484   -7.2649 C.2      1 ZINC000043203165    0.3100
28     N28    -3.2996  -13.5363   -6.9282 N.2      1 ZINC000043203165   -0.5800
29     C29    -4.2743  -13.9786   -7.6910 C.2      1 ZINC000043203165    0.6500
30     N30    -4.9673  -15.0981   -7.3045 N.pl3    1 ZINC000043203165   -0.8200
31     N31    -4.6169  -13.3571   -8.8548 N.am     1 ZINC000043203165   -0.6600
32     C32    -3.9494  -12.2548   -9.2621 C.2      1 ZINC000043203165    0.6000
33     O33    -4.2483  -11.6918  -10.3013 O.2      1 ZINC000043203165   -0.5100
34     C34     0.2613  -13.0854   -5.6672 C.3      1 ZINC000043203165   -0.1900
35     C35     1.3520  -12.6371   -4.6661 C.3      1 ZINC000043203165    0.0800
36     H36     2.2541  -12.3313   -5.1958 H        1 ZINC000043203165    0.0900
37     O37     1.6466  -13.6876   -3.7431 O.3      1 ZINC000043203165   -0.5500
38     C38     1.2895   -5.9686    0.6489 C.3      1 ZINC000043203165    0.0700
39     H39     0.4667   -6.6527    0.8566 H        1 ZINC000043203165    0.1000
40     C40     2.5548   -6.4216    1.3803 C.3      1 ZINC000043203165    0.0800
41     O41     2.2634   -6.6049    2.7672 O.3      1 ZINC000043203165   -0.5700
42     O42     0.9333   -4.6236    1.0396 O.3      1 ZINC000043203165   -0.3700
43     C43     1.2070   -1.9634   -0.0144 C.2      1 ZINC000043203165    0.4600
44     N44     1.1744   -0.6542   -0.0127 N.2      1 ZINC000043203165   -0.6100
45     H45     0.8168    1.8648    0.0043 H        1 ZINC000043203165    0.4200
46     H46    -0.8631    1.8419    0.0162 H        1 ZINC000043203165    0.4200
47     H47    -0.0261   -4.9361   -2.0452 H        1 ZINC000043203165    0.1100
48     H48     1.3988   -3.8920   -1.7450 H        1 ZINC000043203165    0.0900
49     H49     2.1632   -9.9780   -4.6043 H        1 ZINC000043203165    0.0700
50     H50     2.5912  -10.7979   -3.0835 H        1 ZINC000043203165    0.0800
51     H51    -0.4788   -9.9894   -7.3192 H        1 ZINC000043203165    0.2300
52     H52    -4.7353  -15.5511   -6.4787 H        1 ZINC000043203165    0.4300
53     H53    -5.6892  -15.4365   -7.8570 H        1 ZINC000043203165    0.4200
54     H54    -5.3413  -13.7096   -9.3950 H        1 ZINC000043203165    0.4200
55     H55    -0.0537  -14.1070   -5.4544 H        1 ZINC000043203165    0.1000
56     H56     0.6239  -13.0020   -6.6917 H        1 ZINC000043203165    0.0900
57     H57     1.9917  -14.4901   -4.1577 H        1 ZINC000043203165    0.3800
58     H58     2.9033   -7.3626    0.9548 H        1 ZINC000043203165    0.0900
59     H59     3.3299   -5.6633    1.2690 H        1 ZINC000043203165    0.0600
60     H60     3.0218   -6.8926    3.2937 H        1 ZINC000043203165    0.3800
61     H61     2.1554   -2.4800   -0.0214 H        1 ZINC000043203165    0.2200
@<TRIPOS>BOND
1     1     2     1
2     1     45    1
3     1     46    1
4     2     44    1
5     2     3     2
6     3     4     1
7     4     5     2
8     4     6     am
9     6     7     1
10    6     43    1
11    7     8     1
12    7     42    1
13    7     9     1
14    9     10    1
15    9     47    1
16    9     48    1
17    10    11    1
18    10    12    1
19    10    38    1
20    12    13    1
21    13    14    ar
22    13    15    ar
23    13    16    1
24    16    17    1
25    17    18    1
26    17    49    1
27    17    50    1
28    18    19    1
29    18    35    1
30    18    20    1
31    20    21    1
32    21    22    1
33    21    23    1
34    21    34    1
35    23    27    1
36    23    24    1
37    24    25    2
38    24    51    1
39    25    26    1
40    26    32    1
41    26    27    2
42    27    28    1
43    28    29    2
44    29    30    1
45    29    31    1
46    30    52    1
47    30    53    1
48    31    32    am
49    31    54    1
50    32    33    2
51    34    35    1
52    34    55    1
53    34    56    1
54    35    36    1
55    35    37    1
56    37    57    1
57    38    39    1
58    38    40    1
59    38    42    1
60    40    41    1
61    40    58    1
62    40    59    1
63    41    60    1
64    43    44    2
65    43    61    1
@<TRIPOS>SUBSTRUCTURE
1   ZINC000043203165 1     RESIDUE    1   A     ZIN   1
