@<TRIPOS>MOLECULE
ZINC000059047060
49    51    1     0     0
SMALL
USER_CHARGES
@<TRIPOS>ATOM
1      C1     -3.0061   -2.1899    0.3194 C.3      1 ZINC000059047060   -0.1500
2      C2     -1.5231   -1.8380    0.1857 C.3      1 ZINC000059047060   -0.1200
3      C3     -0.7629   -2.3604    1.4064 C.3      1 ZINC000059047060   -0.1300
4      C4      0.7200   -2.0085    1.2727 C.3      1 ZINC000059047060    0.0900
5      N5      1.4479   -2.5087    2.4416 N.am     1 ZINC000059047060   -0.5000
6      C6      1.5822   -1.7130    3.5360 C.2      1 ZINC000059047060    0.1500
7      C7      2.2466   -2.1435    4.6286 C.2      1 ZINC000059047060   -0.2400
8      C8      2.8118   -3.4366    4.6410 C.2      1 ZINC000059047060    0.3000
9      N9      3.4962   -3.8943    5.7536 N.pl3    1 ZINC000059047060   -0.6600
10     C10     4.9287   -4.2107    5.6735 C.3      1 ZINC000059047060    0.1400
11     C11     5.6665   -3.4379    6.7713 C.3      1 ZINC000059047060   -0.1300
12     C12     5.0285   -3.7509    8.1267 C.3      1 ZINC000059047060   -0.0400
13     C13     5.7733   -3.0188    9.2132 C.ar     1 ZINC000059047060   -0.0800
14     C14     5.8441   -1.6385    9.1933 C.ar     1 ZINC000059047060   -0.1100
15     C15     6.5272   -0.9670   10.1899 C.ar     1 ZINC000059047060   -0.1200
16     C16     7.1392   -1.6758   11.2067 C.ar     1 ZINC000059047060   -0.1200
17     C17     7.0676   -3.0562   11.2271 C.ar     1 ZINC000059047060   -0.1200
18     C18     6.3808   -3.7274   10.2329 C.ar     1 ZINC000059047060   -0.1200
19     C19     3.5655   -3.3017    8.1197 C.3      1 ZINC000059047060   -0.1300
20     C20     2.8053   -4.0671    7.0387 C.3      1 ZINC000059047060    0.1400
21     C21     2.6702   -4.2408    3.5214 C.2      1 ZINC000059047060   -0.2100
22     Cl22    3.3497   -5.8380    3.4936 Cl       1 ZINC000059047060   -0.0300
23     C23     1.9676   -3.7499    2.4159 C.2      1 ZINC000059047060    0.5300
24     O24     1.8336   -4.4459    1.4210 O.2      1 ZINC000059047060   -0.5300
25     H25    -3.4086   -1.7303    1.2221 H        1 ZINC000059047060    0.0500
26     H26    -3.5476   -1.8178   -0.5503 H        1 ZINC000059047060    0.0600
27     H27    -3.1185   -3.2723    0.3816 H        1 ZINC000059047060    0.0600
28     H28    -1.1206   -2.2976   -0.7170 H        1 ZINC000059047060    0.0700
29     H29    -1.4107   -0.7556    0.1234 H        1 ZINC000059047060    0.0600
30     H30    -1.1654   -1.9008    2.3091 H        1 ZINC000059047060    0.0700
31     H31    -0.8754   -3.4428    1.4686 H        1 ZINC000059047060    0.0700
32     H32     1.1225   -2.4681    0.3700 H        1 ZINC000059047060    0.1000
33     H33     0.8325   -0.9261    1.2105 H        1 ZINC000059047060    0.0900
34     H34     1.1515   -0.7226    3.5305 H        1 ZINC000059047060    0.1700
35     H35     2.3457   -1.5005    5.4907 H        1 ZINC000059047060    0.1500
36     H36     5.0751   -5.2811    5.8187 H        1 ZINC000059047060    0.0600
37     H37     5.3140   -3.9162    4.6974 H        1 ZINC000059047060    0.0700
38     H38     6.7147   -3.7368    6.7849 H        1 ZINC000059047060    0.0700
39     H39     5.5952   -2.3683    6.5740 H        1 ZINC000059047060    0.0700
40     H40     5.0778   -4.8239    8.3122 H        1 ZINC000059047060    0.0800
41     H41     5.3659   -1.0846    8.3989 H        1 ZINC000059047060    0.1200
42     H42     6.5831    0.1115   10.1740 H        1 ZINC000059047060    0.1200
43     H43     7.6736   -1.1512   11.9850 H        1 ZINC000059047060    0.1200
44     H44     7.5461   -3.6100   12.0214 H        1 ZINC000059047060    0.1200
45     H45     6.3249   -4.8059   10.2488 H        1 ZINC000059047060    0.1200
46     H46     3.1183   -3.5035    9.0930 H        1 ZINC000059047060    0.0700
47     H47     3.5140   -2.2333    7.9096 H        1 ZINC000059047060    0.0700
48     H48     1.7889   -3.6806    6.9636 H        1 ZINC000059047060    0.0800
49     H49     2.7775   -5.1268    7.2924 H        1 ZINC000059047060    0.0600
@<TRIPOS>BOND
1     1     2     1
2     1     25    1
3     1     26    1
4     1     27    1
5     2     3     1
6     2     28    1
7     2     29    1
8     3     4     1
9     3     30    1
10    3     31    1
11    4     5     1
12    4     32    1
13    4     33    1
14    5     23    am
15    5     6     1
16    6     7     2
17    6     34    1
18    7     8     1
19    7     35    1
20    8     9     1
21    8     21    2
22    9     20    1
23    9     10    1
24    10    11    1
25    10    36    1
26    10    37    1
27    11    12    1
28    11    38    1
29    11    39    1
30    12    13    1
31    12    19    1
32    12    40    1
33    13    18    ar
34    13    14    ar
35    14    15    ar
36    14    41    1
37    15    16    ar
38    15    42    1
39    16    17    ar
40    16    43    1
41    17    18    ar
42    17    44    1
43    18    45    1
44    19    20    1
45    19    46    1
46    19    47    1
47    20    48    1
48    20    49    1
49    21    22    1
50    21    23    1
51    23    24    2
@<TRIPOS>SUBSTRUCTURE
1   ZINC000059047060 1     RESIDUE    1   A     ZIN   1
