@<TRIPOS>MOLECULE
ZINC000064527459
79    85    1     0     0
SMALL
USER_CHARGES
@<TRIPOS>ATOM
1      C1      0.9905    1.0839    1.0053 C.3      1 ZINC000064527459   -0.1700
2      C2     -0.3337    1.8138    0.7712 C.3      1 ZINC000064527459    0.1300
3      C3     -0.1375    2.8985   -0.2898 C.3      1 ZINC000064527459   -0.1700
4      N4     -1.3437    0.8575    0.3111 N.am     1 ZINC000064527459   -0.6000
5      C5     -1.1360    0.1154   -0.9348 C.3      1 ZINC000064527459    0.1600
6      C6     -0.5462   -1.2357   -0.6223 C.ar     1 ZINC000064527459   -0.1100
7      C7      0.8212   -1.4260   -0.6925 C.ar     1 ZINC000064527459   -0.1100
8      C8      1.3622   -2.6654   -0.4059 C.ar     1 ZINC000064527459   -0.1300
9      C9      0.5358   -3.7144   -0.0487 C.ar     1 ZINC000064527459   -0.1100
10     C10    -0.8315   -3.5239    0.0223 C.ar     1 ZINC000064527459   -0.1200
11     C11    -1.3721   -2.2834   -0.2601 C.ar     1 ZINC000064527459   -0.0900
12     C12    -2.4640    0.6605    1.0341 C.2      1 ZINC000064527459    0.5100
13     O13    -3.2569   -0.1952    0.7026 O.2      1 ZINC000064527459   -0.5200
14     C14    -2.7313    1.5035    2.2543 C.3      1 ZINC000064527459    0.0700
15     N15    -3.9448    1.0257    2.9217 N.am     1 ZINC000064527459   -0.5300
16     C16    -5.1320    1.6063    2.5024 C.ar     1 ZINC000064527459    0.1700
17     C17    -5.1307    2.9872    2.2918 C.ar     1 ZINC000064527459   -0.1400
18     C18    -6.2615    3.6320    1.8396 C.ar     1 ZINC000064527459   -0.0800
19     C19    -7.4149    2.9127    1.5852 C.ar     1 ZINC000064527459   -0.1100
20     C20    -7.4346    1.5503    1.8022 C.ar     1 ZINC000064527459   -0.0900
21     C21    -6.3030    0.8934    2.2774 C.ar     1 ZINC000064527459    0.1000
22     N22    -6.4136   -0.4716    2.5605 N.pl3    1 ZINC000064527459   -0.4100
23     C23    -7.1140   -1.4147    1.8610 C.2      1 ZINC000064527459    0.2400
24     C24    -7.8758   -1.2018    0.6113 C.ar     1 ZINC000064527459   -0.0300
25     C25    -7.4499   -0.2493   -0.3152 C.ar     1 ZINC000064527459   -0.0900
26     C26    -8.1648   -0.0558   -1.4793 C.ar     1 ZINC000064527459   -0.1200
27     C27    -9.3016   -0.8038   -1.7289 C.ar     1 ZINC000064527459   -0.1000
28     C28    -9.7294   -1.7494   -0.8141 C.ar     1 ZINC000064527459   -0.1200
29     C29    -9.0202   -1.9566    0.3511 C.ar     1 ZINC000064527459   -0.0700
30     N30    -6.9785   -2.5498    2.5154 N.2      1 ZINC000064527459   -0.2700
31     N31    -6.2367   -2.3691    3.5526 N.2      1 ZINC000064527459   -0.2600
32     C32    -5.8538   -1.1260    3.6093 C.2      1 ZINC000064527459    0.1800
33     C33    -4.9284   -0.4909    4.6193 C.3      1 ZINC000064527459   -0.0100
34     H34    -4.5718   -1.2442    5.3217 H        1 ZINC000064527459    0.1500
35     C35    -5.6630    0.6190    5.3739 C.3      1 ZINC000064527459   -0.0400
36     C36    -4.7716    1.1624    6.4608 C.2      1 ZINC000064527459   -0.1900
37     C37    -4.7567    0.7792    7.7472 C.2      1 ZINC000064527459    0.0700
38     N38    -3.8157    1.4946    8.4364 N.pl3    1 ZINC000064527459   -0.5900
39     C39    -3.1860    2.3783    7.5886 C.ar     1 ZINC000064527459    0.1000
40     C40    -2.1775    3.3199    7.7637 C.ar     1 ZINC000064527459   -0.1300
41     C41    -1.7509    4.0731    6.6917 C.ar     1 ZINC000064527459   -0.1000
42     C42    -2.3175    3.9023    5.4363 C.ar     1 ZINC000064527459   -0.1400
43     C43    -3.3097    2.9828    5.2418 C.ar     1 ZINC000064527459   -0.0800
44     C44    -3.7528    2.2045    6.3126 C.ar     1 ZINC000064527459   -0.0900
45     C45    -3.7645    0.0864    3.8486 C.2      1 ZINC000064527459    0.5500
46     O46    -2.6421   -0.3090    4.0829 O.2      1 ZINC000064527459   -0.5000
47     H47     1.7344    1.7901    1.3741 H        1 ZINC000064527459    0.0700
48     H48     0.8443    0.2929    1.7408 H        1 ZINC000064527459    0.0600
49     H49     1.3362    0.6487    0.0676 H        1 ZINC000064527459    0.0700
50     H50    -0.6653    2.2725    1.7028 H        1 ZINC000064527459    0.0900
51     H51     0.1138    2.4332   -1.2429 H        1 ZINC000064527459    0.0600
52     H52    -1.0580    3.4724   -0.3971 H        1 ZINC000064527459    0.0600
53     H53     0.6713    3.5626    0.0148 H        1 ZINC000064527459    0.0700
54     H54    -2.0909   -0.0139   -1.4442 H        1 ZINC000064527459    0.0900
55     H55    -0.4530    0.6699   -1.5784 H        1 ZINC000064527459    0.0900
56     H56     1.4668   -0.6065   -0.9716 H        1 ZINC000064527459    0.1200
57     H57     2.4304   -2.8143   -0.4614 H        1 ZINC000064527459    0.1200
58     H58     0.9584   -4.6829    0.1745 H        1 ZINC000064527459    0.1200
59     H59    -1.4772   -4.3435    0.3011 H        1 ZINC000064527459    0.1200
60     H60    -2.4404   -2.1345   -0.2046 H        1 ZINC000064527459    0.1300
61     H61    -1.8867    1.4293    2.9393 H        1 ZINC000064527459    0.1300
62     H62    -2.8664    2.5430    1.9553 H        1 ZINC000064527459    0.1200
63     H63    -4.2335    3.5561    2.4860 H        1 ZINC000064527459    0.1400
64     H64    -6.2471    4.7006    1.6840 H        1 ZINC000064527459    0.1400
65     H65    -8.2973    3.4157    1.2183 H        1 ZINC000064527459    0.1400
66     H66    -8.3355    0.9892    1.6025 H        1 ZINC000064527459    0.1400
67     H67    -6.5629    0.3354   -0.1214 H        1 ZINC000064527459    0.1200
68     H68    -7.8364    0.6813   -2.1971 H        1 ZINC000064527459    0.1300
69     H69    -9.8577   -0.6486   -2.6416 H        1 ZINC000064527459    0.1300
70     H70   -10.6178   -2.3298   -1.0146 H        1 ZINC000064527459    0.1300
71     H71    -9.3550   -2.6953    1.0643 H        1 ZINC000064527459    0.1300
72     H72    -5.9209    1.4201    4.6813 H        1 ZINC000064527459    0.0800
73     H73    -6.5730    0.2156    5.8181 H        1 ZINC000064527459    0.0900
74     H74    -5.3934    0.0189    8.1751 H        1 ZINC000064527459    0.1700
75     H75    -3.6211    1.3943    9.3813 H        1 ZINC000064527459    0.4200
76     H76    -1.7305    3.4604    8.7368 H        1 ZINC000064527459    0.1200
77     H77    -0.9679    4.8040    6.8298 H        1 ZINC000064527459    0.1300
78     H78    -1.9719    4.5011    4.6066 H        1 ZINC000064527459    0.1200
79     H79    -3.7460    2.8554    4.2621 H        1 ZINC000064527459    0.1200
@<TRIPOS>BOND
1     1     2     1
2     1     47    1
3     1     48    1
4     1     49    1
5     2     3     1
6     2     4     1
7     2     50    1
8     3     51    1
9     3     52    1
10    3     53    1
11    4     5     1
12    4     12    am
13    5     6     1
14    5     54    1
15    5     55    1
16    6     11    ar
17    6     7     ar
18    7     8     ar
19    7     56    1
20    8     9     ar
21    8     57    1
22    9     10    ar
23    9     58    1
24    10    11    ar
25    10    59    1
26    11    60    1
27    12    13    2
28    12    14    1
29    14    15    1
30    14    61    1
31    14    62    1
32    15    45    am
33    15    16    1
34    16    21    ar
35    16    17    ar
36    17    18    ar
37    17    63    1
38    18    19    ar
39    18    64    1
40    19    20    ar
41    19    65    1
42    20    21    ar
43    20    66    1
44    21    22    1
45    22    32    1
46    22    23    1
47    23    24    1
48    23    30    2
49    24    29    ar
50    24    25    ar
51    25    26    ar
52    25    67    1
53    26    27    ar
54    26    68    1
55    27    28    ar
56    27    69    1
57    28    29    ar
58    28    70    1
59    29    71    1
60    30    31    1
61    31    32    2
62    32    33    1
63    33    34    1
64    33    35    1
65    33    45    1
66    35    36    1
67    35    72    1
68    35    73    1
69    36    44    1
70    36    37    2
71    37    38    1
72    37    74    1
73    38    39    1
74    38    75    1
75    39    44    ar
76    39    40    ar
77    40    41    ar
78    40    76    1
79    41    42    ar
80    41    77    1
81    42    43    ar
82    42    78    1
83    43    44    ar
84    43    79    1
85    45    46    2
@<TRIPOS>SUBSTRUCTURE
1   ZINC000064527459 1     RESIDUE    1   A     ZIN   1
