@<TRIPOS>MOLECULE
ZINC000004489632
  61   61    0    0    0
SMALL
USER_CHARGES
NO_NAME
@<TRIPOS>ATOM
    1 C1       -0.2042     1.5453    -0.6366 C.3    1 <0>      -0.1500
    2 C2       -0.1649     0.0158    -0.6247 C.3    1 <0>      -0.1300
    3 C3       -1.5661    -0.5282    -0.3393 C.3    1 <0>      -0.1200
    4 C4       -1.5268    -2.0576    -0.3274 C.3    1 <0>      -0.1100
    5 C5       -2.9281    -2.6016    -0.0420 C.3    1 <0>      -0.1000
    6 C6       -2.8894    -4.1080    -0.0303 C.2    1 <0>      -0.1600
    7 C7       -3.3764    -4.7678     0.9913 C.2    1 <0>      -0.1500
    8 C8       -4.1261    -4.0347     2.0736 C.3    1 <0>      -0.1300
    9 C9       -5.4957    -4.6858     2.2761 C.3    1 <0>       0.1400
   10 H10      -6.0269    -4.7179     1.3249 H      1 <0>       0.1000
   11 O11      -5.3227    -6.0154     2.7702 O.3    1 <0>      -0.5500
   12 C12      -6.2928    -3.8804     3.2696 C.2    1 <0>      -0.1400
   13 C13      -7.4519    -3.3450     2.9114 C.2    1 <0>      -0.1200
   14 C14      -8.2334    -2.5554     3.8855 C.ar   1 <0>       0.1600
   15 C15      -9.4548    -1.9994     3.5047 C.ar   1 <0>      -0.1700
   16 C16     -10.1752    -1.2628     4.4287 C.ar   1 <0>      -0.0700
   17 C17      -9.6515    -1.1055     5.7041 C.ar   1 <0>      -0.1800
   18 C18      -8.4343    -1.6842     6.0146 C.ar   1 <0>       0.1300
   19 C19      -7.8629    -1.5158     7.3988 C.3    1 <0>      -0.1000
   20 C20      -7.5664    -2.8915     7.9990 C.3    1 <0>       0.1200
   21 H21      -8.4693    -3.5016     7.9728 H      1 <0>       0.0900
   22 O22      -6.5376    -3.5305     7.2406 O.3    1 <0>      -0.5400
   23 C23      -7.1042    -2.7269     9.4482 C.3    1 <0>      -0.1500
   24 C24      -6.9274    -4.1059    10.0870 C.3    1 <0>      -0.1100
   25 C25      -6.4652    -3.9412    11.5362 C.3    1 <0>      -0.1200
   26 C26      -6.2884    -5.3202    12.1749 C.3    1 <0>       0.0700
   27 O27      -5.8567    -5.1664    13.5284 O.3    1 <0>      -0.5800
   28 N28      -7.7702    -2.3850     5.1187 N.ar   1 <0>      -0.4500
   29 H29       0.7941     1.9328    -0.8399 H      1 <0>       0.0500
   30 H30      -0.8907     1.8850    -1.4121 H      1 <0>       0.0500
   31 H31      -0.5439     1.9076     0.3336 H      1 <0>       0.0500
   32 H32       0.1749    -0.3465    -1.5950 H      1 <0>       0.0600
   33 H33       0.5217    -0.3240     0.1507 H      1 <0>       0.0600
   34 H34      -1.9059    -0.1659     0.6309 H      1 <0>       0.0600
   35 H35      -2.2527    -0.1884    -1.1148 H      1 <0>       0.0600
   36 H36      -1.1871    -2.4199    -1.2977 H      1 <0>       0.0600
   37 H37      -0.8403    -2.3974     0.4480 H      1 <0>       0.0600
   38 H38      -3.2678    -2.2393     0.9282 H      1 <0>       0.0700
   39 H39      -3.6146    -2.2618    -0.8175 H      1 <0>       0.0700
   40 H40      -2.4601    -4.6437    -0.8641 H      1 <0>       0.1100
   41 H41      -3.2407    -5.8372     1.0577 H      1 <0>       0.1100
   42 H42      -3.5600    -4.0824     3.0039 H      1 <0>       0.0800
   43 H43      -4.2586    -2.9928     1.7820 H      1 <0>       0.0900
   44 H44      -4.8563    -6.0631     3.6160 H      1 <0>       0.3800
   45 H45      -5.9201    -3.7393     4.2734 H      1 <0>       0.1300
   46 H46      -7.8246    -3.4861     1.9076 H      1 <0>       0.1300
   47 H47      -9.8327    -2.1414     2.5030 H      1 <0>       0.1300
   48 H48     -11.1237    -0.8200     4.1629 H      1 <0>       0.1400
   49 H49     -10.1895    -0.5360     6.4476 H      1 <0>       0.1300
   50 H50      -6.9408    -0.9372     7.3434 H      1 <0>       0.0900
   51 H51      -8.5830    -0.9924     8.0279 H      1 <0>       0.0900
   52 H52      -5.7032    -3.0422     7.2201 H      1 <0>       0.3700
   53 H53      -6.1542    -2.1928     9.4681 H      1 <0>       0.0700
   54 H54      -7.8507    -2.1612    10.0057 H      1 <0>       0.0700
   55 H55      -7.8774    -4.6399    10.0671 H      1 <0>       0.0600
   56 H56      -6.1809    -4.6715     9.5295 H      1 <0>       0.0700
   57 H57      -5.5152    -3.4071    11.5560 H      1 <0>       0.0700
   58 H58      -7.2117    -3.3755    12.0936 H      1 <0>       0.0700
   59 H59      -7.2384    -5.8543    12.1551 H      1 <0>       0.0400
   60 H60      -5.5419    -5.8858    11.6175 H      1 <0>       0.0500
   61 H61      -5.7240    -6.0022    13.9963 H      1 <0>       0.3800
@<TRIPOS>BOND
   1    1    2 1
   2    1   29 1
   3    1   30 1
   4    1   31 1
   5    2    3 1
   6    2   32 1
   7    2   33 1
   8    3    4 1
   9    3   34 1
  10    3   35 1
  11    4    5 1
  12    4   36 1
  13    4   37 1
  14    5    6 1
  15    5   38 1
  16    5   39 1
  17    6    7 2
  18    6   40 1
  19    7    8 1
  20    7   41 1
  21    8    9 1
  22    8   42 1
  23    8   43 1
  24    9   10 1
  25    9   11 1
  26    9   12 1
  27   11   44 1
  28   12   13 2
  29   12   45 1
  30   13   14 1
  31   13   46 1
  32   14   28 ar
  33   14   15 ar
  34   15   16 ar
  35   15   47 1
  36   16   17 ar
  37   16   48 1
  38   17   18 ar
  39   17   49 1
  40   18   19 1
  41   18   28 ar
  42   19   20 1
  43   19   50 1
  44   19   51 1
  45   20   21 1
  46   20   22 1
  47   20   23 1
  48   22   52 1
  49   23   24 1
  50   23   53 1
  51   23   54 1
  52   24   25 1
  53   24   55 1
  54   24   56 1
  55   25   26 1
  56   25   57 1
  57   25   58 1
  58   26   27 1
  59   26   59 1
  60   26   60 1
  61   27   61 1
