@<TRIPOS>MOLECULE
ZINC000006093425
41    42    1     0     0
SMALL
USER_CHARGES
@<TRIPOS>ATOM
1      O1     -0.0173    1.4248    0.0099 O.3      1 ZINC000006093425   -0.5400
2      C2      0.0021   -0.0041    0.0020 C.3      1 ZINC000006093425    0.0900
3      H3     -1.0205   -0.3814    0.0098 H        1 ZINC000006093425    0.1300
4      C4      0.7182   -0.4975   -1.2568 C.3      1 ZINC000006093425    0.0400
5      O5     -0.0359   -0.1233   -2.4115 O.3      1 ZINC000006093425   -0.2000
6      N6      0.5437   -0.5347   -3.6361 N.2      1 ZINC000006093425   -0.3200
7      C7     -0.0433   -0.2564   -4.7559 C.2      1 ZINC000006093425    0.2600
8      Cl8    -1.5412    0.6213   -4.7560 Cl       1 ZINC000006093425   -0.0500
9      C9      0.5614   -0.6856   -6.0335 C.ar     1 ZINC000006093425   -0.1300
10     C10    -0.0603   -0.3859   -7.2514 C.ar     1 ZINC000006093425   -0.0300
11     C11     0.5476   -0.8104   -8.4200 C.ar     1 ZINC000006093425   -0.1700
12     C12     1.7383   -1.5103   -8.3482 C.ar     1 ZINC000006093425    0.1300
13     N13     2.3015   -1.7790   -7.1857 N.ar     1 ZINC000006093425   -0.4800
14     C14     1.7653   -1.3918   -6.0471 C.ar     1 ZINC000006093425    0.1600
15     C15     0.7421   -0.5109    1.2415 C.3      1 ZINC000006093425   -0.0400
16     N16    -0.0103   -0.1391    2.4472 N.4      1 ZINC000006093425   -0.3800
17     H17    -0.1666    0.8577    2.4508 H        1 ZINC000006093425    0.4300
18     C18     0.7597   -0.5165    3.6385 C.3      1 ZINC000006093425   -0.0100
19     C19     0.0179   -0.0586    4.8961 C.3      1 ZINC000006093425   -0.1500
20     C20    -1.3585   -0.7285    4.9426 C.3      1 ZINC000006093425   -0.1400
21     C21    -2.1244   -0.3884    3.6609 C.3      1 ZINC000006093425   -0.1500
22     C22    -1.3025   -0.8354    2.4499 C.3      1 ZINC000006093425   -0.0100
23     H23     0.8606    1.8301    0.0037 H        1 ZINC000006093425    0.3900
24     H24     1.7103   -0.0491   -1.3098 H        1 ZINC000006093425    0.0800
25     H25     0.8116   -1.5829   -1.2198 H        1 ZINC000006093425    0.0800
26     H26    -0.9905    0.1621   -7.2783 H        1 ZINC000006093425    0.1500
27     H27     0.0967   -0.5976   -9.3780 H        1 ZINC000006093425    0.1500
28     H28     2.2147   -1.8426   -9.2587 H        1 ZINC000006093425    0.1700
29     H29     2.2563   -1.6309   -5.1154 H        1 ZINC000006093425    0.1700
30     H30     0.8346   -1.5958    1.1912 H        1 ZINC000006093425    0.1400
31     H31     1.7350   -0.0630    1.2804 H        1 ZINC000006093425    0.1400
32     H32     0.8822   -1.5993    3.6634 H        1 ZINC000006093425    0.1300
33     H33     1.7401   -0.0415    3.6023 H        1 ZINC000006093425    0.1300
34     H34     0.5903   -0.3413    5.7795 H        1 ZINC000006093425    0.1100
35     H35    -0.1050    1.0242    4.8723 H        1 ZINC000006093425    0.0900
36     H36    -1.2356   -1.8089    5.0180 H        1 ZINC000006093425    0.0800
37     H37    -1.9130   -0.3624    5.8066 H        1 ZINC000006093425    0.1000
38     H38    -3.0832   -0.9069    3.6614 H        1 ZINC000006093425    0.1100
39     H39    -2.2917    0.6875    3.6115 H        1 ZINC000006093425    0.0900
40     H40    -1.8442   -0.5953    1.5350 H        1 ZINC000006093425    0.1300
41     H41    -1.1366   -1.9115    2.5011 H        1 ZINC000006093425    0.1300
@<TRIPOS>BOND
1     1     2     1
2     1     23    1
3     2     3     1
4     2     4     1
5     2     15    1
6     4     5     1
7     4     24    1
8     4     25    1
9     5     6     1
10    6     7     2
11    7     8     1
12    7     9     1
13    9     14    ar
14    9     10    ar
15    10    11    ar
16    10    26    1
17    11    12    ar
18    11    27    1
19    12    13    ar
20    12    28    1
21    13    14    ar
22    14    29    1
23    15    16    1
24    15    30    1
25    15    31    1
26    16    17    1
27    16    22    1
28    16    18    1
29    18    19    1
30    18    32    1
31    18    33    1
32    19    20    1
33    19    34    1
34    19    35    1
35    20    21    1
36    20    36    1
37    20    37    1
38    21    22    1
39    21    38    1
40    21    39    1
41    22    40    1
42    22    41    1
@<TRIPOS>SUBSTRUCTURE
1   ZINC000006093425 1     RESIDUE    1   A     ZIN   1
