@<TRIPOS>MOLECULE
ZINC000034662892
62    64    1     0     0
SMALL
USER_CHARGES
@<TRIPOS>ATOM
1      C1     -0.0402   -2.7146    4.4989 C.3      1 ZINC000034662892    0.0300
2      O2      0.2139   -3.6441    3.4438 O.3      1 ZINC000034662892   -0.3800
3      C3      0.3546   -3.0386    2.1571 C.3      1 ZINC000034662892    0.0300
4      C4      0.6224   -4.1217    1.1102 C.3      1 ZINC000034662892    0.1000
5      H5     -0.1671   -4.8720    1.1534 H        1 ZINC000034662892    0.1100
6      O6      1.8826   -4.7405    1.3766 O.3      1 ZINC000034662892   -0.5400
7      C7      0.6492   -3.4892   -0.2827 C.3      1 ZINC000034662892    0.0800
8      N8      0.7863   -4.5405   -1.2938 N.am     1 ZINC000034662892   -0.5400
9      C9      2.0128   -4.9375   -1.6916 C.2      1 ZINC000034662892    0.5200
10     O10     3.0101   -4.4276   -1.2151 O.2      1 ZINC000034662892   -0.4700
11     C11     2.1293   -5.9903   -2.7040 C.2      1 ZINC000034662892    0.0700
12     N12     1.0430   -6.5188   -3.1966 N.2      1 ZINC000034662892   -0.1700
13     N13    -0.2097   -6.0764   -2.7549 N.am     1 ZINC000034662892   -0.4000
14     C14    -1.3715   -6.6479   -3.2878 C.ar     1 ZINC000034662892    0.1500
15     C15    -2.3978   -5.8322   -3.7503 C.ar     1 ZINC000034662892   -0.0600
16     C16    -3.5468   -6.3905   -4.2772 C.ar     1 ZINC000034662892   -0.1000
17     C17    -3.6831   -7.7634   -4.3484 C.ar     1 ZINC000034662892    0.0200
18     Cl18   -5.1285   -8.4594   -5.0119 Cl       1 ZINC000034662892   -0.0200
19     C19    -2.6566   -8.5917   -3.8865 C.ar     1 ZINC000034662892   -0.1200
20     C20    -2.7986  -10.0608   -3.9614 C.2      1 ZINC000034662892    0.5600
21     O21    -3.8096  -10.5508   -4.4255 O.2      1 ZINC000034662892   -0.5000
22     N22    -1.8071  -10.8572   -3.5152 N.am     1 ZINC000034662892   -0.7300
23     C23    -1.9478  -12.3135   -3.5895 C.3      1 ZINC000034662892    0.1000
24     C24    -0.6915  -12.9769   -3.0216 C.3      1 ZINC000034662892    0.1300
25     O25     0.4511  -12.5642   -3.7741 O.3      1 ZINC000034662892   -0.5400
26     C26    -0.5205  -12.5842   -1.5791 C.3      1 ZINC000034662892   -0.1500
27     C27     0.9606  -12.4572   -1.1743 C.3      1 ZINC000034662892   -0.1100
28     C28     1.8373  -13.5833   -1.7548 C.3      1 ZINC000034662892   -0.1200
29     C29     1.1695  -14.9296   -1.6797 C.3      1 ZINC000034662892   -0.1200
30     C30     0.4470  -15.1933   -3.0167 C.3      1 ZINC000034662892   -0.1200
31     C31    -0.8358  -14.5107   -3.0981 C.3      1 ZINC000034662892   -0.1000
32     C32    -1.4954   -8.0266   -3.3593 C.ar     1 ZINC000034662892   -0.0600
33     C33    -0.3116   -5.1136   -1.8215 C.2      1 ZINC000034662892    0.6800
34     O34    -1.4122   -4.7485   -1.4557 O.2      1 ZINC000034662892   -0.5200
35     H35     0.7853   -2.0059    4.5656 H        1 ZINC000034662892    0.0400
36     H36    -0.9656   -2.1763    4.2939 H        1 ZINC000034662892    0.0400
37     H37    -0.1343   -3.2526    5.4423 H        1 ZINC000034662892    0.0900
38     H38    -0.5625   -2.5070    1.9034 H        1 ZINC000034662892    0.0600
39     H39     1.1883   -2.3366    2.1751 H        1 ZINC000034662892    0.0600
40     H40     2.6328   -4.1307    1.3546 H        1 ZINC000034662892    0.3800
41     H41    -0.2783   -2.9419   -0.4511 H        1 ZINC000034662892    0.1200
42     H42     1.4937   -2.8039   -0.3544 H        1 ZINC000034662892    0.1100
43     H43     3.1007   -6.3239   -3.0379 H        1 ZINC000034662892    0.2300
44     H44    -2.2969   -4.7583   -3.6972 H        1 ZINC000034662892    0.1500
45     H45    -4.3409   -5.7514   -4.6342 H        1 ZINC000034662892    0.1500
46     H46    -1.0004  -10.4662   -3.1448 H        1 ZINC000034662892    0.3900
47     H47    -2.8167  -12.6247   -3.0095 H        1 ZINC000034662892    0.0800
48     H48    -2.0787  -12.6134   -4.6292 H        1 ZINC000034662892    0.0800
49     H49     0.6048  -11.6096   -3.7640 H        1 ZINC000034662892    0.3700
50     H50    -1.0147  -11.6269   -1.4133 H        1 ZINC000034662892    0.0600
51     H51    -0.9947  -13.3374   -0.9500 H        1 ZINC000034662892    0.0800
52     H52     1.3406  -11.4985   -1.5274 H        1 ZINC000034662892    0.0500
53     H53     1.0312  -12.4819   -0.0869 H        1 ZINC000034662892    0.0600
54     H54     2.0576  -13.3566   -2.7980 H        1 ZINC000034662892    0.0900
55     H55     2.7742  -13.6229   -1.1991 H        1 ZINC000034662892    0.0500
56     H56     1.9201  -15.7017   -1.5106 H        1 ZINC000034662892    0.0600
57     H57     0.4454  -14.9343   -0.8650 H        1 ZINC000034662892    0.0600
58     H58     1.0815  -14.8511   -3.8343 H        1 ZINC000034662892    0.0700
59     H59     0.2836  -16.2657   -3.1241 H        1 ZINC000034662892    0.0600
60     H60    -1.4676  -14.8472   -2.2760 H        1 ZINC000034662892    0.0700
61     H61    -1.3163  -14.7735   -4.0405 H        1 ZINC000034662892    0.0700
62     H62    -0.6985   -8.6614   -3.0010 H        1 ZINC000034662892    0.1400
@<TRIPOS>BOND
1     1     2     1
2     1     35    1
3     1     36    1
4     1     37    1
5     2     3     1
6     3     4     1
7     3     38    1
8     3     39    1
9     4     5     1
10    4     6     1
11    4     7     1
12    6     40    1
13    7     8     1
14    7     41    1
15    7     42    1
16    8     33    am
17    8     9     am
18    9     10    2
19    9     11    1
20    11    12    2
21    11    43    1
22    12    13    1
23    13    14    1
24    13    33    am
25    14    32    ar
26    14    15    ar
27    15    16    ar
28    15    44    1
29    16    17    ar
30    16    45    1
31    17    18    1
32    17    19    ar
33    19    20    1
34    19    32    ar
35    20    21    2
36    20    22    am
37    22    23    1
38    22    46    1
39    23    24    1
40    23    47    1
41    23    48    1
42    24    31    1
43    24    25    1
44    24    26    1
45    25    49    1
46    26    27    1
47    26    50    1
48    26    51    1
49    27    28    1
50    27    52    1
51    27    53    1
52    28    29    1
53    28    54    1
54    28    55    1
55    29    30    1
56    29    56    1
57    29    57    1
58    30    31    1
59    30    58    1
60    30    59    1
61    31    60    1
62    31    61    1
63    32    62    1
64    33    34    2
@<TRIPOS>SUBSTRUCTURE
1   ZINC000034662892 1     RESIDUE    1   A     ZIN   1
