@<TRIPOS>MOLECULE
ZINC000003952216
82    83    1     0     0
SMALL
USER_CHARGES
@<TRIPOS>ATOM
1      C1     -0.0187    1.5258    0.0104 C.3      1 ZINC000003952216   -0.1400
2      C2      0.0021   -0.0041    0.0020 C.3      1 ZINC000003952216   -0.1100
3      C3      0.7421   -0.5109    1.2415 C.3      1 ZINC000003952216   -0.1400
4      C4     -1.4318   -0.5331    0.0129 C.3      1 ZINC000003952216    0.1400
5      H5     -1.8925   -0.1046    1.0064 H        1 ZINC000003952216    0.0700
6      C6     -2.1916    0.0956   -1.1189 C.2      1 ZINC000003952216    0.4800
7      O7     -1.8075   -0.1021   -2.2534 O.2      1 ZINC000003952216   -0.4000
8      N8     -3.3234    0.7512   -0.8902 N.am     1 ZINC000003952216   -0.7200
9      C9     -3.9294    1.5159   -2.0735 C.3      1 ZINC000003952216    0.1200
10     H10    -4.8203    2.0448   -1.7267 H        1 ZINC000003952216    0.1000
11     C11    -2.9217    2.5917   -2.5728 C.3      1 ZINC000003952216   -0.1300
12     C12    -2.7130    3.6415   -1.4796 C.3      1 ZINC000003952216   -0.1300
13     C13    -1.7224    4.6992   -1.9705 C.3      1 ZINC000003952216    0.0900
14     N14    -1.5225    5.7044   -0.9237 N.pl3    1 ZINC000003952216   -0.6900
15     C15    -0.6729    6.7548   -1.1374 C.cat    1 ZINC000003952216    0.7400
16     N16    -0.0272    6.8638   -2.2973 N.pl3    1 ZINC000003952216   -0.7900
17     N17    -0.4912    7.6687   -0.1857 N.pl3    1 ZINC000003952216   -0.8000
18     H18    -0.9614    7.5894    0.6590 H        1 ZINC000003952216    0.4400
19     H19     0.1114    8.4136   -0.3372 H        1 ZINC000003952216    0.4400
20     C20    -4.2270    0.5125   -3.1526 C.2      1 ZINC000003952216    0.5400
21     O21    -4.6012   -0.6051   -2.7998 O.2      1 ZINC000003952216   -0.4800
22     N22    -4.1249    0.9194   -4.4077 N.am     1 ZINC000003952216   -0.7100
23     C23    -4.4118   -0.1896   -5.4455 C.3      1 ZINC000003952216    0.0800
24     C24    -3.3344   -1.2730   -5.2137 C.2      1 ZINC000003952216    0.4800
25     O25    -2.2298   -0.9243   -4.6996 O.2      1 ZINC000003952216   -0.5000
26     N26    -3.6609   -2.5703   -5.4432 N.am     1 ZINC000003952216   -0.6800
27     C27    -2.6980   -3.6366   -5.0225 C.3      1 ZINC000003952216    0.1900
28     H28    -3.1798   -4.5996   -5.1757 H        1 ZINC000003952216    0.0900
29     C29    -1.3604   -3.5130   -5.6818 C.3      1 ZINC000003952216   -0.1900
30     C30    -1.5093   -3.7337   -7.1651 C.2      1 ZINC000003952216    0.5000
31     O31    -2.6074   -3.9702   -7.6391 O.co2    1 ZINC000003952216   -0.7000
32     O32    -0.5315   -3.6758   -7.8912 O.co2    1 ZINC000003952216   -0.7000
33     C33    -2.5495   -3.4032   -3.4921 C.2      1 ZINC000003952216    0.4900
34     O34    -3.0652   -2.4112   -2.9217 O.2      1 ZINC000003952216   -0.4600
35     N35    -1.7785   -4.3205   -2.8294 N.am     1 ZINC000003952216   -0.7200
36     C36    -1.6981   -4.0594   -1.3267 C.3      1 ZINC000003952216    0.1400
37     H37    -0.9821   -4.7238   -0.8407 H        1 ZINC000003952216    0.0900
38     C38    -3.1612   -4.3175   -0.7669 C.3      1 ZINC000003952216   -0.0800
39     C39    -3.5180   -5.7708   -0.9447 C.ar     1 ZINC000003952216   -0.0700
40     C40    -4.1327   -6.1942   -2.1082 C.ar     1 ZINC000003952216   -0.1000
41     C41    -4.4600   -7.5273   -2.2713 C.ar     1 ZINC000003952216   -0.1200
42     C42    -4.1722   -8.4371   -1.2711 C.ar     1 ZINC000003952216   -0.1200
43     C43    -3.5567   -8.0138   -0.1079 C.ar     1 ZINC000003952216   -0.1200
44     C44    -3.2255   -6.6814    0.0534 C.ar     1 ZINC000003952216   -0.1200
45     C45    -1.2422   -2.5809   -1.0865 C.2      1 ZINC000003952216    0.4900
46     O46    -0.7144   -2.0343   -2.0802 O.2      1 ZINC000003952216   -0.4600
47     N47    -1.3904   -1.9641    0.0613 N.am     1 ZINC000003952216   -0.5900
48     C48    -1.4762   -2.6409    1.4303 C.3      1 ZINC000003952216    0.0900
49     H49     1.0039    1.9031    0.0027 H        1 ZINC000003952216    0.0500
50     H50    -0.5459    1.8868   -0.8726 H        1 ZINC000003952216    0.0500
51     H51    -0.5289    1.8773    0.9072 H        1 ZINC000003952216    0.0500
52     H52     0.5123   -0.3556   -0.8948 H        1 ZINC000003952216    0.0900
53     H53     0.2319   -0.1594    2.1383 H        1 ZINC000003952216    0.0500
54     H54     0.7568   -1.6008    1.2356 H        1 ZINC000003952216    0.0600
55     H55     1.7647   -0.1336    1.2338 H        1 ZINC000003952216    0.0500
56     H56    -3.6779    0.8716   -0.0292 H        1 ZINC000003952216    0.3900
57     H57    -1.9691    2.1165   -2.8068 H        1 ZINC000003952216    0.1000
58     H58    -3.3173    3.0726   -3.4675 H        1 ZINC000003952216    0.0800
59     H59    -3.6656    4.1168   -1.2456 H        1 ZINC000003952216    0.0800
60     H60    -2.3174    3.1607   -0.5849 H        1 ZINC000003952216    0.0800
61     H61    -0.7698    4.2239   -2.2045 H        1 ZINC000003952216    0.0900
62     H62    -2.1180    5.1800   -2.8652 H        1 ZINC000003952216    0.0900
63     H63    -1.9927    5.6250   -0.0790 H        1 ZINC000003952216    0.4300
64     H64    -0.1595    6.1982   -2.9904 H        1 ZINC000003952216    0.4400
65     H65     0.5753    7.6087   -2.4489 H        1 ZINC000003952216    0.4400
66     H66    -4.0056    1.7746   -4.8053 H        1 ZINC000003952216    0.4100
67     H67    -5.4343   -0.6301   -5.1906 H        1 ZINC000003952216    0.0900
68     H68    -4.3705    0.1583   -6.4653 H        1 ZINC000003952216    0.1100
69     H69    -4.4233   -2.7410   -5.9935 H        1 ZINC000003952216    0.4000
70     H70    -0.9572   -2.5165   -5.5015 H        1 ZINC000003952216    0.0900
71     H71    -0.6817   -4.2597   -5.2697 H        1 ZINC000003952216    0.0600
72     H72    -1.2702   -4.9963   -3.2507 H        1 ZINC000003952216    0.4000
73     H73    -3.1953   -4.0619    0.2922 H        1 ZINC000003952216    0.0700
74     H74    -3.8735   -3.6990   -1.3131 H        1 ZINC000003952216    0.1000
75     H75    -4.3575   -5.4835   -2.8897 H        1 ZINC000003952216    0.1200
76     H76    -4.9408   -7.8580   -3.1801 H        1 ZINC000003952216    0.1200
77     H77    -4.4285   -9.4785   -1.3982 H        1 ZINC000003952216    0.1200
78     H78    -3.3322   -8.7244    0.6737 H        1 ZINC000003952216    0.1200
79     H79    -2.7447   -6.3507    0.9621 H        1 ZINC000003952216    0.1200
80     H80    -1.3951   -3.7209    1.3074 H        1 ZINC000003952216    0.0800
81     H81    -0.6631   -2.2852    2.0631 H        1 ZINC000003952216    0.0700
82     H82    -2.4316   -2.3990    1.8960 H        1 ZINC000003952216    0.0700
@<TRIPOS>BOND
1     1     2     1
2     1     49    1
3     1     50    1
4     1     51    1
5     2     3     1
6     2     4     1
7     2     52    1
8     3     53    1
9     3     54    1
10    3     55    1
11    4     5     1
12    4     47    1
13    4     6     1
14    6     7     2
15    6     8     am
16    8     9     1
17    8     56    1
18    9     10    1
19    9     11    1
20    9     20    1
21    11    12    1
22    11    57    1
23    11    58    1
24    12    13    1
25    12    59    1
26    12    60    1
27    13    14    1
28    13    61    1
29    13    62    1
30    14    15    ar
31    14    63    1
32    15    16    ar
33    15    17    ar
34    16    64    1
35    16    65    1
36    17    18    1
37    17    19    1
38    20    21    2
39    20    22    am
40    22    23    1
41    22    66    1
42    23    24    1
43    23    67    1
44    23    68    1
45    24    25    2
46    24    26    am
47    26    27    1
48    26    69    1
49    27    28    1
50    27    29    1
51    27    33    1
52    29    30    1
53    29    70    1
54    29    71    1
55    30    31    ar
56    30    32    ar
57    33    34    2
58    33    35    am
59    35    36    1
60    35    72    1
61    36    37    1
62    36    38    1
63    36    45    1
64    38    39    1
65    38    73    1
66    38    74    1
67    39    44    ar
68    39    40    ar
69    40    41    ar
70    40    75    1
71    41    42    ar
72    41    76    1
73    42    43    ar
74    42    77    1
75    43    44    ar
76    43    78    1
77    44    79    1
78    45    46    2
79    45    47    am
80    47    48    1
81    48    80    1
82    48    81    1
83    48    82    1
@<TRIPOS>SUBSTRUCTURE
1   ZINC000003952216 1     RESIDUE    1   A     ZIN   1
