@<TRIPOS>MOLECULE
ZINC000011677432
57    59    1     0     0
SMALL
USER_CHARGES
@<TRIPOS>ATOM
1      C1      0.3694   -4.8197    3.1549 C.3      1 ZINC000011677432   -0.1500
2      C2      0.2344   -3.9086    1.9332 C.3      1 ZINC000011677432    0.0600
3      O3      0.9296   -4.5042    0.8061 O.3      1 ZINC000011677432   -0.3300
4      C4      0.9069   -3.8237   -0.3544 C.2      1 ZINC000011677432    0.4600
5      O5      0.3233   -2.7629   -0.4240 O.2      1 ZINC000011677432   -0.4800
6      C6      1.6002   -4.3746   -1.5566 C.2      1 ZINC000011677432    0.5300
7      O7      2.1844   -5.4364   -1.4869 O.2      1 ZINC000011677432   -0.4600
8      N8      1.5775   -3.6929   -2.7190 N.am     1 ZINC000011677432   -0.6400
9      C9      2.3064   -4.1594   -3.8175 C.ar     1 ZINC000011677432    0.1500
10     C10     2.9053   -3.2573   -4.6880 C.ar     1 ZINC000011677432   -0.1300
11     C11     3.6250   -3.7186   -5.7718 C.ar     1 ZINC000011677432   -0.0600
12     C12     4.2751   -2.7403   -6.7160 C.3      1 ZINC000011677432   -0.1200
13     C13     3.7506   -5.0831   -5.9920 C.ar     1 ZINC000011677432    0.0700
14     O14     4.4596   -5.5365   -7.0594 O.3      1 ZINC000011677432   -0.2500
15     C15     5.7892   -5.7656   -6.8918 C.ar     1 ZINC000011677432    0.1200
16     C16     6.3815   -5.5416   -5.6577 C.ar     1 ZINC000011677432   -0.1700
17     C17     7.7324   -5.7744   -5.4875 C.ar     1 ZINC000011677432   -0.1000
18     C18     8.4966   -6.2319   -6.5506 C.ar     1 ZINC000011677432    0.0900
19     O19     9.8264   -6.4610   -6.3830 O.3      1 ZINC000011677432   -0.4900
20     C20     7.9043   -6.4564   -7.7848 C.ar     1 ZINC000011677432   -0.1000
21     C21     8.7347   -6.9541   -8.9397 C.3      1 ZINC000011677432    0.2000
22     H22     9.5021   -7.6336   -8.5692 H        1 ZINC000011677432    0.1200
23     O23     7.8951   -7.6441   -9.8676 O.3      1 ZINC000011677432   -0.5400
24     C24     9.3895   -5.7844   -9.6284 C.ar     1 ZINC000011677432   -0.1200
25     C25     8.6655   -5.0135  -10.5187 C.ar     1 ZINC000011677432   -0.0800
26     C26     9.2649   -3.9407  -11.1509 C.ar     1 ZINC000011677432   -0.1500
27     C27    10.5909   -3.6378  -10.8919 C.ar     1 ZINC000011677432    0.1000
28     F28    11.1778   -2.5890  -11.5089 F        1 ZINC000011677432   -0.1400
29     C29    11.3148   -4.4104   -9.9996 C.ar     1 ZINC000011677432   -0.1500
30     C30    10.7119   -5.4798   -9.3650 C.ar     1 ZINC000011677432   -0.0600
31     C31     6.5527   -6.2288   -7.9537 C.ar     1 ZINC000011677432   -0.1200
32     C32     3.1532   -5.9849   -5.1226 C.ar     1 ZINC000011677432   -0.0600
33     C33     3.2906   -7.4663   -5.3623 C.3      1 ZINC000011677432   -0.1200
34     C34     2.4371   -5.5253   -4.0356 C.ar     1 ZINC000011677432   -0.1200
35     H35    -0.0671   -5.7933    2.9321 H        1 ZINC000011677432    0.0700
36     H36     1.4239   -4.9423    3.4020 H        1 ZINC000011677432    0.0700
37     H37    -0.1525   -4.3726    4.0010 H        1 ZINC000011677432    0.0900
38     H38    -0.8202   -3.7861    1.6861 H        1 ZINC000011677432    0.0800
39     H39     0.6709   -2.9350    2.1560 H        1 ZINC000011677432    0.0800
40     H40     1.0555   -2.8788   -2.7937 H        1 ZINC000011677432    0.4300
41     H41     2.8073   -2.1954   -4.5171 H        1 ZINC000011677432    0.1400
42     H42     5.2850   -2.5186   -6.3709 H        1 ZINC000011677432    0.0800
43     H43     4.3195   -3.1741   -7.7149 H        1 ZINC000011677432    0.0800
44     H44     3.6909   -1.8205   -6.7450 H        1 ZINC000011677432    0.0700
45     H45     5.7865   -5.1850   -4.8299 H        1 ZINC000011677432    0.1300
46     H46     8.1937   -5.5997   -4.5267 H        1 ZINC000011677432    0.1300
47     H47    10.0379   -7.3612   -6.1001 H        1 ZINC000011677432    0.3900
48     H48     7.1878   -7.0990  -10.2387 H        1 ZINC000011677432    0.3800
49     H49     7.6312   -5.2499  -10.7206 H        1 ZINC000011677432    0.1300
50     H50     8.6993   -3.3389  -11.8470 H        1 ZINC000011677432    0.1400
51     H51    12.3493   -4.1752   -9.7971 H        1 ZINC000011677432    0.1400
52     H52    11.2763   -6.0824   -8.6687 H        1 ZINC000011677432    0.1400
53     H53     6.0916   -6.4035   -8.9146 H        1 ZINC000011677432    0.1400
54     H54     4.1771   -7.8370   -4.8476 H        1 ZINC000011677432    0.0800
55     H55     2.4079   -7.9795   -4.9809 H        1 ZINC000011677432    0.0700
56     H56     3.3863   -7.6540   -6.4317 H        1 ZINC000011677432    0.0800
57     H57     1.9725   -6.2272   -3.3589 H        1 ZINC000011677432    0.1500
@<TRIPOS>BOND
1     1     2     1
2     1     35    1
3     1     36    1
4     1     37    1
5     2     3     1
6     2     38    1
7     2     39    1
8     3     4     1
9     4     5     2
10    4     6     1
11    6     7     2
12    6     8     am
13    8     9     1
14    8     40    1
15    9     34    ar
16    9     10    ar
17    10    11    ar
18    10    41    1
19    11    12    1
20    11    13    ar
21    12    42    1
22    12    43    1
23    12    44    1
24    13    14    1
25    13    32    ar
26    14    15    1
27    15    31    ar
28    15    16    ar
29    16    17    ar
30    16    45    1
31    17    18    ar
32    17    46    1
33    18    19    1
34    18    20    ar
35    19    47    1
36    20    21    1
37    20    31    ar
38    21    22    1
39    21    23    1
40    21    24    1
41    23    48    1
42    24    30    ar
43    24    25    ar
44    25    26    ar
45    25    49    1
46    26    27    ar
47    26    50    1
48    27    28    1
49    27    29    ar
50    29    30    ar
51    29    51    1
52    30    52    1
53    31    53    1
54    32    33    1
55    32    34    ar
56    33    54    1
57    33    55    1
58    33    56    1
59    34    57    1
@<TRIPOS>SUBSTRUCTURE
1   ZINC000011677432 1     RESIDUE    1   A     ZIN   1
