@<TRIPOS>MOLECULE
ZINC000001607492
  46   47    0    0    0
SMALL
USER_CHARGES
NO_NAME
@<TRIPOS>ATOM
    1 C1       -0.0173     1.4248     0.0099 C.3    1 <0>       0.0200
    2 O2        0.0021    -0.0041     0.0020 O.3    1 <0>      -0.3100
    3 C3        0.6262    -0.6188     1.0422 C.ar   1 <0>       0.1000
    4 C4        1.2019     0.1365     2.0506 C.ar   1 <0>      -0.1900
    5 C5        1.8358    -0.4901     3.1079 C.ar   1 <0>      -0.0800
    6 C6        1.8971    -1.8698     3.1612 C.ar   1 <0>      -0.1000
    7 C7        2.5896    -2.5476     4.3154 C.3    1 <0>      -0.1000
    8 C8        1.5803    -2.8040     5.4363 C.3    1 <0>       0.1500
    9 H9        1.0954    -1.8670     5.7099 H      1 <0>       0.1100
   10 O10       0.5953    -3.7364     4.9862 O.3    1 <0>      -0.5400
   11 C11       2.2952    -3.3690     6.6366 C.ar   1 <0>      -0.0400
   12 C12       2.6312    -4.7094     6.6710 C.ar   1 <0>      -0.2300
   13 C13       3.2895    -5.2330     7.7734 C.ar   1 <0>       0.1600
   14 O14       3.6200    -6.5518     7.8061 O.3    1 <0>      -0.3000
   15 C15       3.2583    -7.3396     6.6700 C.3    1 <0>       0.0200
   16 C16       3.6115    -4.4082     8.8446 C.ar   1 <0>       0.0300
   17 O17       4.2580    -4.9181     9.9281 O.3    1 <0>      -0.3100
   18 C18       5.6866    -4.8939     9.9020 C.3    1 <0>       0.0400
   19 C19       3.2720    -3.0610     8.8060 C.ar   1 <0>       0.1500
   20 O20       3.5853    -2.2497     9.8516 O.3    1 <0>      -0.3000
   21 C21       3.2057    -0.8763     9.7434 C.3    1 <0>       0.0200
   22 C22       2.6184    -2.5441     7.6977 C.ar   1 <0>      -0.2200
   23 C23       1.3241    -2.6298     2.1580 C.ar   1 <0>      -0.0900
   24 C24       0.6830    -2.0084     1.0988 C.ar   1 <0>       0.0800
   25 O25       0.1189    -2.7543     0.1114 O.3    1 <0>      -0.4900
   26 H26       1.0053     1.8021     0.0021 H      1 <0>       0.0600
   27 H27      -0.5445     1.7859    -0.8732 H      1 <0>       0.1000
   28 H28      -0.5275     1.7763     0.9067 H      1 <0>       0.0600
   29 H29       1.1560     1.2148     2.0110 H      1 <0>       0.1300
   30 H30       2.2843     0.0999     3.8935 H      1 <0>       0.1300
   31 H31       3.0097    -3.4961     3.9808 H      1 <0>       0.0800
   32 H32       3.3894    -1.9066     4.6863 H      1 <0>       0.0900
   33 H33       0.9563    -4.5947     4.7254 H      1 <0>       0.3700
   34 H34       2.3803    -5.3498     5.8383 H      1 <0>       0.1300
   35 H35       2.1767    -7.3119     6.5382 H      1 <0>       0.0600
   36 H36       3.7432    -6.9381     5.7802 H      1 <0>       0.0600
   37 H37       3.5792    -8.3697     6.8252 H      1 <0>       0.1000
   38 H38       6.0742    -5.3288    10.8233 H      1 <0>       0.0900
   39 H39       6.0442    -5.4709     9.0492 H      1 <0>       0.0400
   40 H40       6.0309    -3.8635     9.8137 H      1 <0>       0.0400
   41 H41       3.6900    -0.4330     8.8733 H      1 <0>       0.0600
   42 H42       2.1237    -0.8060     9.6321 H      1 <0>       0.0600
   43 H43       3.5140    -0.3423    10.6422 H      1 <0>       0.1000
   44 H44       2.3545    -1.4973     7.6668 H      1 <0>       0.1400
   45 H45       1.3734    -3.7078     2.2020 H      1 <0>       0.1300
   46 H46      -0.8047    -2.9893     0.2749 H      1 <0>       0.3900
@<TRIPOS>BOND
   1    1    2 1
   2    1   26 1
   3    1   27 1
   4    1   28 1
   5    2    3 1
   6    3   24 ar
   7    3    4 ar
   8    4    5 ar
   9    4   29 1
  10    5    6 ar
  11    5   30 1
  12    6    7 1
  13    6   23 ar
  14    7    8 1
  15    7   31 1
  16    7   32 1
  17    8    9 1
  18    8   10 1
  19    8   11 1
  20   10   33 1
  21   11   22 ar
  22   11   12 ar
  23   12   13 ar
  24   12   34 1
  25   13   14 1
  26   13   16 ar
  27   14   15 1
  28   15   35 1
  29   15   36 1
  30   15   37 1
  31   16   17 1
  32   16   19 ar
  33   17   18 1
  34   18   38 1
  35   18   39 1
  36   18   40 1
  37   19   20 1
  38   19   22 ar
  39   20   21 1
  40   21   41 1
  41   21   42 1
  42   21   43 1
  43   22   44 1
  44   23   24 ar
  45   23   45 1
  46   24   25 1
  47   25   46 1
