@<TRIPOS>MOLECULE
ZINC000040939534
56    60    1     0     0
SMALL
USER_CHARGES
@<TRIPOS>ATOM
1      C1      0.7331    1.4727    0.4104 C.3      1 ZINC000040939534    0.0200
2      O2      0.6387    0.0476    0.3638 O.3      1 ZINC000040939534   -0.3000
3      C3     -0.5931   -0.4945    0.5403 C.ar     1 ZINC000040939534    0.1800
4      C4     -1.6905    0.3256    0.7483 C.ar     1 ZINC000040939534   -0.2200
5      C5     -2.9448   -0.2260    0.9285 C.ar     1 ZINC000040939534   -0.0400
6      C6     -3.1162   -1.5987    0.9025 C.ar     1 ZINC000040939534   -0.1900
7      C7     -2.0328   -2.4317    0.6963 C.ar     1 ZINC000040939534    0.1700
8      F8     -2.2041   -3.7716    0.6715 F        1 ZINC000040939534   -0.1200
9      C9     -0.7607   -1.8847    0.5071 C.ar     1 ZINC000040939534   -0.1200
10     C10     0.4033   -2.7688    0.2858 C.2      1 ZINC000040939534    0.2700
11     N11     0.6854   -3.0773   -0.9287 N.2      1 ZINC000040939534   -0.4700
12     C12     1.8050   -3.9448   -1.2787 C.3      1 ZINC000040939534    0.1000
13     C13     1.5517   -5.3279   -0.7498 C.ar     1 ZINC000040939534   -0.2500
14     C14     1.4108   -6.3826   -1.6378 C.ar     1 ZINC000040939534    0.2100
15     N15     1.1775   -7.5965   -1.1649 N.ar     1 ZINC000040939534   -0.5300
16     C16     1.0767   -7.8090    0.1391 C.ar     1 ZINC000040939534    0.5700
17     N17     0.8257   -9.0934    0.5956 N.pl3    1 ZINC000040939534   -0.6300
18     C18     0.7986  -10.1574   -0.3006 C.ar     1 ZINC000040939534    0.1800
19     C19     1.6444  -10.1532   -1.4088 C.ar     1 ZINC000040939534   -0.1600
20     C20     1.6264  -11.1910   -2.2942 C.ar     1 ZINC000040939534   -0.0300
21     C21     0.7557  -12.2696   -2.0942 C.ar     1 ZINC000040939534   -0.1800
22     C22     0.7356  -13.3869   -3.0464 C.2      1 ZINC000040939534    0.5200
23     O23     1.4808  -13.3770   -4.0173 O.co2    1 ZINC000040939534   -0.7000
24     O24    -0.0263  -14.3282   -2.8693 O.co2    1 ZINC000040939534   -0.6700
25     C25    -0.0986  -12.2782   -0.9778 C.ar     1 ZINC000040939534    0.1700
26     O26    -0.9451  -13.3181   -0.7750 O.3      1 ZINC000040939534   -0.2600
27     C27    -1.7830  -13.2568    0.3810 C.3      1 ZINC000040939534    0.0200
28     C28    -0.0673  -11.2225   -0.0843 C.ar     1 ZINC000040939534   -0.2500
29     N29     1.2095   -6.8290    1.0167 N.ar     1 ZINC000040939534   -0.5600
30     C30     1.4531   -5.5787    0.6099 C.ar     1 ZINC000040939534    0.2500
31     C31     1.6238   -4.5217    1.6305 C.ar     1 ZINC000040939534   -0.0200
32     C32     2.3075   -4.8670    2.8026 C.ar     1 ZINC000040939534   -0.0700
33     C33     2.5095   -3.9349    3.7965 C.ar     1 ZINC000040939534   -0.1000
34     C34     2.0361   -2.6419    3.6425 C.ar     1 ZINC000040939534   -0.0200
35     Cl35    2.2955   -1.4692    4.8959 Cl       1 ZINC000040939534   -0.0600
36     C36     1.3599   -2.2849    2.4955 C.ar     1 ZINC000040939534   -0.0800
37     C37     1.1454   -3.2169    1.4752 C.ar     1 ZINC000040939534   -0.0600
38     H38     1.7692    1.7735    0.2552 H        1 ZINC000040939534    0.1000
39     H39     0.1085    1.9040   -0.3719 H        1 ZINC000040939534    0.0600
40     H40     0.3935    1.8277    1.3834 H        1 ZINC000040939534    0.0600
41     H41    -1.5654    1.3981    0.7700 H        1 ZINC000040939534    0.1400
42     H42    -3.7963    0.4182    1.0910 H        1 ZINC000040939534    0.1400
43     H43    -4.1001   -2.0208    1.0443 H        1 ZINC000040939534    0.1400
44     H44     1.9092   -3.9839   -2.3630 H        1 ZINC000040939534    0.1100
45     H45     2.7214   -3.5502   -0.8397 H        1 ZINC000040939534    0.0800
46     H46     1.4900   -6.2160   -2.7019 H        1 ZINC000040939534    0.1800
47     H47     0.6690   -9.2506    1.5398 H        1 ZINC000040939534    0.4200
48     H48     2.3173   -9.3235   -1.5675 H        1 ZINC000040939534    0.1300
49     H49     2.2843  -11.1806   -3.1506 H        1 ZINC000040939534    0.1400
50     H50    -2.4089  -14.1481    0.4238 H        1 ZINC000040939534    0.0900
51     H51    -1.1635  -13.2045    1.2763 H        1 ZINC000040939534    0.0500
52     H52    -2.4155  -12.3709    0.3247 H        1 ZINC000040939534    0.0500
53     H53    -0.7204  -11.2224    0.7758 H        1 ZINC000040939534    0.1200
54     H54     2.6794   -5.8731    2.9287 H        1 ZINC000040939534    0.1500
55     H55     3.0372   -4.2125    4.6971 H        1 ZINC000040939534    0.1400
56     H56     0.9938   -1.2751    2.3823 H        1 ZINC000040939534    0.1400
@<TRIPOS>BOND
1     1     2     1
2     1     38    1
3     1     39    1
4     1     40    1
5     2     3     1
6     3     9     ar
7     3     4     ar
8     4     5     ar
9     4     41    1
10    5     6     ar
11    5     42    1
12    6     7     ar
13    6     43    1
14    7     8     1
15    7     9     ar
16    9     10    1
17    10    37    1
18    10    11    2
19    11    12    1
20    12    13    1
21    12    44    1
22    12    45    1
23    13    30    ar
24    13    14    ar
25    14    15    ar
26    14    46    1
27    15    16    ar
28    16    17    1
29    16    29    ar
30    17    18    1
31    17    47    1
32    18    28    ar
33    18    19    ar
34    19    20    ar
35    19    48    1
36    20    21    ar
37    20    49    1
38    21    22    1
39    21    25    ar
40    22    23    ar
41    22    24    ar
42    25    26    1
43    25    28    ar
44    26    27    1
45    27    50    1
46    27    51    1
47    27    52    1
48    28    53    1
49    29    30    ar
50    30    31    1
51    31    37    ar
52    31    32    ar
53    32    33    ar
54    32    54    1
55    33    34    ar
56    33    55    1
57    34    35    1
58    34    36    ar
59    36    37    ar
60    36    56    1
@<TRIPOS>SUBSTRUCTURE
1   ZINC000040939534 1     RESIDUE    1   A     ZIN   1
