@<TRIPOS>MOLECULE
ZINC000002007450
54    57    1     0     0
SMALL
USER_CHARGES
@<TRIPOS>ATOM
1      C1     -0.0187    1.5258    0.0104 C.3      1 ZINC000002007450   -0.1500
2      C2      0.0021   -0.0041    0.0020 C.3      1 ZINC000002007450   -0.0900
3      C3      0.7074   -0.4901   -1.2379 C.ar     1 ZINC000002007450   -0.0800
4      C4     -0.0136   -0.7178   -2.3962 C.ar     1 ZINC000002007450   -0.1200
5      C5      0.6271   -1.1629   -3.5347 C.ar     1 ZINC000002007450   -0.1000
6      C6      2.0033   -1.3829   -3.5157 C.ar     1 ZINC000002007450   -0.0600
7      C7      2.6976   -1.8607   -4.7361 C.2      1 ZINC000002007450   -0.0300
8      C8      2.7253   -1.0551   -5.7859 C.2      1 ZINC000002007450   -0.1200
9      C9      3.3881   -1.4044   -7.0871 C.3      1 ZINC000002007450   -0.0100
10     C10     2.4299   -2.2394   -7.9389 C.3      1 ZINC000002007450   -0.1400
11     C11     3.7482   -0.1200   -7.8364 C.3      1 ZINC000002007450   -0.1300
12     S12     4.8985   -2.3590   -6.7646 S.3      1 ZINC000002007450   -0.1100
13     C13     4.3420   -3.5475   -5.5862 C.ar     1 ZINC000002007450   -0.0800
14     C14     4.9185   -4.8098   -5.5397 C.ar     1 ZINC000002007450   -0.0900
15     C15     4.4803   -5.7367   -4.6196 C.ar     1 ZINC000002007450   -0.0800
16     C16     3.4509   -5.4077   -3.7297 C.ar     1 ZINC000002007450    0.0400
17     C17     2.9954   -6.3732   -2.7753 C.1      1 ZINC000002007450   -0.1700
18     C18     2.6219   -7.1648   -1.9929 C.1      1 ZINC000002007450   -0.0600
19     C19     2.1663   -8.1303   -1.0385 C.ar     1 ZINC000002007450   -0.0200
20     C20     2.7543   -9.4004   -0.9922 C.ar     1 ZINC000002007450   -0.1000
21     C21     2.3200  -10.3205   -0.0827 C.ar     1 ZINC000002007450   -0.0900
22     C22     1.2864   -9.9948    0.8038 C.ar     1 ZINC000002007450   -0.1100
23     C23     0.8180  -10.9873    1.7848 C.2      1 ZINC000002007450    0.5200
24     O24     1.3321  -12.0969    1.8255 O.co2    1 ZINC000002007450   -0.6800
25     O25    -0.0852  -10.7027    2.5595 O.co2    1 ZINC000002007450   -0.6800
26     C26     0.6984   -8.7249    0.7576 C.ar     1 ZINC000002007450   -0.0900
27     C27     1.1368   -7.8026   -0.1477 C.ar     1 ZINC000002007450   -0.1000
28     C28     2.8681   -4.1397   -3.7707 C.ar     1 ZINC000002007450   -0.0700
29     C29     3.3159   -3.1999   -4.6962 C.ar     1 ZINC000002007450   -0.0400
30     C30     2.7247   -1.1518   -2.3457 C.ar     1 ZINC000002007450   -0.1000
31     C31     2.0743   -0.7014   -1.2149 C.ar     1 ZINC000002007450   -0.1200
32     H32     1.0039    1.9031    0.0027 H        1 ZINC000002007450    0.0600
33     H33    -0.5459    1.8868   -0.8726 H        1 ZINC000002007450    0.0500
34     H34    -0.5289    1.8773    0.9072 H        1 ZINC000002007450    0.0600
35     H35     0.5293   -0.3651    0.8851 H        1 ZINC000002007450    0.0700
36     H36    -1.0205   -0.3814    0.0098 H        1 ZINC000002007450    0.0700
37     H37    -1.0799   -0.5473   -2.4096 H        1 ZINC000002007450    0.1200
38     H38     0.0631   -1.3407   -4.4384 H        1 ZINC000002007450    0.1200
39     H39     2.2437   -0.0920   -5.7019 H        1 ZINC000002007450    0.1300
40     H40     1.5240   -1.6658   -8.1348 H        1 ZINC000002007450    0.0700
41     H41     2.9106   -2.4933   -8.8836 H        1 ZINC000002007450    0.0700
42     H42     2.1723   -3.1542   -7.4050 H        1 ZINC000002007450    0.0600
43     H43     4.4301    0.4757   -7.2295 H        1 ZINC000002007450    0.0700
44     H44     4.2294   -0.3731   -8.7811 H        1 ZINC000002007450    0.0700
45     H45     2.8417    0.4526   -8.0324 H        1 ZINC000002007450    0.0800
46     H46     5.7118   -5.0655   -6.2264 H        1 ZINC000002007450    0.1400
47     H47     4.9307   -6.7177   -4.5851 H        1 ZINC000002007450    0.1400
48     H48     3.5511   -9.6519   -1.6764 H        1 ZINC000002007450    0.1200
49     H49     2.7735  -11.3001   -0.0469 H        1 ZINC000002007450    0.1300
50     H50    -0.0991   -8.4739    1.4412 H        1 ZINC000002007450    0.1300
51     H51     0.6833   -6.8231   -0.1834 H        1 ZINC000002007450    0.1200
52     H52     2.0738   -3.8873   -3.0838 H        1 ZINC000002007450    0.1300
53     H53     3.7912   -1.3210   -2.3252 H        1 ZINC000002007450    0.1200
54     H54     2.6323   -0.5216   -0.3078 H        1 ZINC000002007450    0.1200
@<TRIPOS>BOND
1     1     2     1
2     1     32    1
3     1     33    1
4     1     34    1
5     2     3     1
6     2     35    1
7     2     36    1
8     3     31    ar
9     3     4     ar
10    4     5     ar
11    4     37    1
12    5     6     ar
13    5     38    1
14    6     7     1
15    6     30    ar
16    7     29    1
17    7     8     2
18    8     9     1
19    8     39    1
20    9     10    1
21    9     11    1
22    9     12    1
23    10    40    1
24    10    41    1
25    10    42    1
26    11    43    1
27    11    44    1
28    11    45    1
29    12    13    1
30    13    29    ar
31    13    14    ar
32    14    15    ar
33    14    46    1
34    15    16    ar
35    15    47    1
36    16    17    1
37    16    28    ar
38    17    18    3
39    18    19    1
40    19    27    ar
41    19    20    ar
42    20    21    ar
43    20    48    1
44    21    22    ar
45    21    49    1
46    22    23    1
47    22    26    ar
48    23    24    ar
49    23    25    ar
50    26    27    ar
51    26    50    1
52    27    51    1
53    28    29    ar
54    28    52    1
55    30    31    ar
56    30    53    1
57    31    54    1
@<TRIPOS>SUBSTRUCTURE
1   ZINC000002007450 1     RESIDUE    1   A     ZIN   1
