@<TRIPOS>MOLECULE
ZINC000000003665
47    49    1     0     0
SMALL
USER_CHARGES
@<TRIPOS>ATOM
1      C1      6.8036   -3.0458    1.1581 C.3      1 ZINC000000003665   -0.1500
2      C2      5.3851   -3.5708    0.9275 C.3      1 ZINC000000003665   -0.1100
3      C3      4.9443   -3.2391   -0.4996 C.3      1 ZINC000000003665   -0.1700
4      C4      3.5394   -3.7378   -0.7201 C.2      1 ZINC000000003665    0.4000
5      O5      2.9463   -4.2979    0.1783 O.2      1 ZINC000000003665   -0.4300
6      C6      2.8901   -3.5465   -2.0181 C.ar     1 ZINC000000003665   -0.2200
7      C7      3.5244   -2.8000   -3.0287 C.ar     1 ZINC000000003665    0.1600
8      N8      2.9657   -2.6149   -4.1959 N.ar     1 ZINC000000003665   -0.4500
9      C9      1.7623   -3.1227   -4.4981 C.ar     1 ZINC000000003665    0.1300
10     C10     1.1882   -2.9050   -5.7661 C.ar     1 ZINC000000003665    0.1500
11     O11     1.8517   -2.1747   -6.7003 O.3      1 ZINC000000003665   -0.2900
12     C12     1.2065   -1.9966   -7.9629 C.3      1 ZINC000000003665    0.0200
13     C13    -0.0492   -3.4371   -6.0535 C.ar     1 ZINC000000003665   -0.2000
14     C14    -0.7396   -4.1871   -5.1070 C.ar     1 ZINC000000003665   -0.0700
15     C15    -0.2083   -4.4131   -3.8721 C.ar     1 ZINC000000003665   -0.1200
16     C16     1.0496   -3.8870   -3.5454 C.ar     1 ZINC000000003665   -0.0800
17     C17     1.6274   -4.1114   -2.2724 C.ar     1 ZINC000000003665    0.2700
18     N18     0.9738   -4.8533   -1.3150 N.pl3    1 ZINC000000003665   -0.6900
19     C19     1.1900   -6.2313   -1.2309 C.ar     1 ZINC000000003665    0.2200
20     C20     2.1506   -6.8354   -2.0319 C.ar     1 ZINC000000003665   -0.1800
21     C21     2.3617   -8.1977   -1.9463 C.ar     1 ZINC000000003665   -0.0800
22     C22     1.6177   -8.9600   -1.0647 C.ar     1 ZINC000000003665   -0.1600
23     C23     0.6604   -8.3617   -0.2656 C.ar     1 ZINC000000003665   -0.0800
24     C24     0.4485   -6.9994   -0.3417 C.ar     1 ZINC000000003665   -0.1400
25     C25    -0.5948   -6.3484    0.5294 C.3      1 ZINC000000003665   -0.1100
26     H26     7.4848   -3.5159    0.4489 H        1 ZINC000000003665    0.0600
27     H27     6.8189   -1.9653    1.0150 H        1 ZINC000000003665    0.0600
28     H28     7.1176   -3.2821    2.1748 H        1 ZINC000000003665    0.0600
29     H29     5.3698   -4.6512    1.0706 H        1 ZINC000000003665    0.0700
30     H30     4.7039   -3.1007    1.6367 H        1 ZINC000000003665    0.0700
31     H31     4.9740   -2.1595   -0.6474 H        1 ZINC000000003665    0.1000
32     H32     5.6166   -3.7215   -1.2090 H        1 ZINC000000003665    0.1000
33     H33     4.4958   -2.3696   -2.8350 H        1 ZINC000000003665    0.1700
34     H34     1.8421   -1.3967   -8.6142 H        1 ZINC000000003665    0.1100
35     H35     1.0314   -2.9696   -8.4219 H        1 ZINC000000003665    0.0600
36     H36     0.2540   -1.4876   -7.8155 H        1 ZINC000000003665    0.0600
37     H37    -0.4891   -3.2697   -7.0255 H        1 ZINC000000003665    0.1400
38     H38    -1.7087   -4.5950   -5.3534 H        1 ZINC000000003665    0.1300
39     H39    -0.7555   -4.9966   -3.1465 H        1 ZINC000000003665    0.1300
40     H40     0.3632   -4.4197   -0.6986 H        1 ZINC000000003665    0.4200
41     H41     2.7316   -6.2406   -2.7212 H        1 ZINC000000003665    0.1100
42     H42     3.1084   -8.6680   -2.5688 H        1 ZINC000000003665    0.1200
43     H43     1.7843  -10.0251   -1.0002 H        1 ZINC000000003665    0.1200
44     H44     0.0810   -8.9601    0.4219 H        1 ZINC000000003665    0.1200
45     H45    -0.1411   -6.0409    1.4716 H        1 ZINC000000003665    0.0700
46     H46    -1.0004   -5.4748    0.0192 H        1 ZINC000000003665    0.0600
47     H47    -1.3975   -7.0587    0.7274 H        1 ZINC000000003665    0.0700
@<TRIPOS>BOND
1     1     2     1
2     1     26    1
3     1     27    1
4     1     28    1
5     2     3     1
6     2     29    1
7     2     30    1
8     3     4     1
9     3     31    1
10    3     32    1
11    4     5     2
12    4     6     1
13    6     17    ar
14    6     7     ar
15    7     8     ar
16    7     33    1
17    8     9     ar
18    9     16    ar
19    9     10    ar
20    10    11    1
21    10    13    ar
22    11    12    1
23    12    34    1
24    12    35    1
25    12    36    1
26    13    14    ar
27    13    37    1
28    14    15    ar
29    14    38    1
30    15    16    ar
31    15    39    1
32    16    17    ar
33    17    18    1
34    18    19    1
35    18    40    1
36    19    24    ar
37    19    20    ar
38    20    21    ar
39    20    41    1
40    21    22    ar
41    21    42    1
42    22    23    ar
43    22    43    1
44    23    24    ar
45    23    44    1
46    24    25    1
47    25    45    1
48    25    46    1
49    25    47    1
@<TRIPOS>SUBSTRUCTURE
1   ZINC000000003665 1     RESIDUE    1   A     ZIN   1
