@<TRIPOS>MOLECULE
ZINC000008551963
71    74    1     0     0
SMALL
USER_CHARGES
@<TRIPOS>ATOM
1      O1      0.0021   -0.0041    0.0020 O.2      1 ZINC000008551963   -0.5300
2      C2     -0.0144    1.2136    0.0087 C.2      1 ZINC000008551963    0.5600
3      C3     -1.2461    1.9113    0.0302 C.2      1 ZINC000008551963   -0.3100
4      C4     -1.2363    3.2615    0.0376 C.2      1 ZINC000008551963    0.2000
5      N5     -0.0428    3.9305    0.0245 N.am     1 ZINC000008551963   -0.5200
6      C6     -0.0320    5.3955    0.0326 C.3      1 ZINC000008551963    0.3100
7      H7     -1.0461    5.7861   -0.0522 H        1 ZINC000008551963    0.1300
8      O8      0.7993    5.9037   -1.0328 O.3      1 ZINC000008551963   -0.3300
9      C9      1.1710    7.2445   -0.6719 C.3      1 ZINC000008551963    0.0900
10     H10     0.4626    7.9536   -1.1005 H        1 ZINC000008551963    0.1000
11     C11     2.5820    7.5478   -1.1797 C.3      1 ZINC000008551963    0.1400
12     O12     2.5808    7.5638   -2.6086 O.3      1 ZINC000008551963   -0.7600
13     P13     3.9013    7.8521   -3.4834 P.3      1 ZINC000008551963    2.2900
14     O14     4.5234    9.1979   -3.0487 O.co2    1 ZINC000008551963   -1.1000
15     O15     4.9246    6.7161   -3.2611 O.co2    1 ZINC000008551963   -1.1100
16     O16     3.5073    7.9219   -5.0429 O.3      1 ZINC000008551963   -1.1000
17     P17     4.2559    8.4607   -6.3626 P.3      1 ZINC000008551963    2.3500
18     O18     5.0004    9.7736   -6.0325 O.co2    1 ZINC000008551963   -1.1100
19     O19     5.2704    7.4013   -6.8478 O.co2    1 ZINC000008551963   -1.1200
20     O20     3.1714    8.7352   -7.5204 O.3      1 ZINC000008551963   -1.1100
21     P21     3.2041    9.5373   -8.9160 P.3      1 ZINC000008551963    2.3500
22     O22     4.5007    9.1883   -9.6803 O.co2    1 ZINC000008551963   -1.1100
23     O23     3.1632   11.0565   -8.6379 O.co2    1 ZINC000008551963   -1.1200
24     O24     1.9283    9.1199   -9.8049 O.3      1 ZINC000008551963   -1.1000
25     P25     1.5803    9.2115  -11.3742 P.3      1 ZINC000008551963    2.2900
26     O26     2.7955    8.7334  -12.1999 O.co2    1 ZINC000008551963   -1.1000
27     O27     1.2500   10.6748  -11.7439 O.co2    1 ZINC000008551963   -1.1100
28     O28     0.3103    8.2764  -11.6978 O.3      1 ZINC000008551963   -0.7600
29     C29    -0.1803    8.0612  -13.0225 C.3      1 ZINC000008551963    0.1400
30     C30    -1.3906    7.1265  -12.9726 C.3      1 ZINC000008551963    0.0800
31     H31    -1.1368    6.2061  -12.4466 H        1 ZINC000008551963    0.1100
32     O32    -2.5057    7.7817  -12.3299 O.3      1 ZINC000008551963   -0.3400
33     C33    -3.6760    7.0564  -12.7660 C.3      1 ZINC000008551963    0.2900
34     H34    -3.7740    6.1243  -12.2096 H        1 ZINC000008551963    0.1400
35     N35    -4.8772    7.8782  -12.5982 N.am     1 ZINC000008551963   -0.5200
36     C36    -4.9255    9.1288  -13.1512 C.2      1 ZINC000008551963    0.1900
37     C37    -6.0328    9.8859  -12.9969 C.2      1 ZINC000008551963   -0.3100
38     C38    -7.1256    9.3662  -12.2620 C.2      1 ZINC000008551963    0.5600
39     O39    -8.1351   10.0302  -12.1097 O.2      1 ZINC000008551963   -0.5300
40     N40    -7.0386    8.1291  -11.7328 N.am     1 ZINC000008551963   -0.6600
41     C41    -5.9246    7.3939  -11.9064 C.2      1 ZINC000008551963    0.7100
42     O42    -5.8605    6.2798  -11.4237 O.2      1 ZINC000008551963   -0.5300
43     C43    -3.4253    6.7657  -14.2624 C.3      1 ZINC000008551963    0.0400
44     H44    -3.8885    7.5324  -14.8833 H        1 ZINC000008551963    0.0800
45     O45    -3.9229    5.4724  -14.6114 O.3      1 ZINC000008551963   -0.5400
46     C46    -1.8853    6.8104  -14.4015 C.3      1 ZINC000008551963    0.0500
47     H47    -1.5869    7.6002  -15.0909 H        1 ZINC000008551963    0.0900
48     O48    -1.3855    5.5466  -14.8432 O.3      1 ZINC000008551963   -0.5300
49     C49     1.1341    7.3318    0.8662 C.3      1 ZINC000008551963    0.0500
50     H50     2.1287    7.5403    1.2604 H        1 ZINC000008551963    0.0900
51     O51     0.2095    8.3364    1.2881 O.3      1 ZINC000008551963   -0.5400
52     C52     0.6528    5.9291    1.3166 C.3      1 ZINC000008551963    0.0300
53     H53     1.4975    5.2987    1.5944 H        1 ZINC000008551963    0.1000
54     O54    -0.2800    6.0318    2.3942 O.3      1 ZINC000008551963   -0.5500
55     C55     1.1209    3.2557    0.0046 C.2      1 ZINC000008551963    0.6900
56     O56     2.1700    3.8702   -0.0065 O.2      1 ZINC000008551963   -0.4900
57     N57     1.1403    1.9098    0.0014 N.am     1 ZINC000008551963   -0.6600
58     H58    -2.1811    1.3708    0.0400 H        1 ZINC000008551963    0.1700
59     H59    -2.1661    3.8107    0.0536 H        1 ZINC000008551963    0.1800
60     H60     2.9015    8.5205   -0.8058 H        1 ZINC000008551963    0.0700
61     H61     3.2687    6.7790   -0.8255 H        1 ZINC000008551963    0.0600
62     H62    -0.4756    9.0149  -13.4600 H        1 ZINC000008551963    0.0600
63     H63     0.6029    7.6092  -13.6311 H        1 ZINC000008551963    0.0800
64     H64    -4.0818    9.5087  -13.7083 H        1 ZINC000008551963    0.1800
65     H65    -6.0840   10.8749  -13.4279 H        1 ZINC000008551963    0.1700
66     H66    -7.7831    7.7662  -11.2280 H        1 ZINC000008551963    0.4300
67     H67    -3.7917    5.2380  -15.5403 H        1 ZINC000008551963    0.3800
68     H68    -1.7148    5.2750  -15.7109 H        1 ZINC000008551963    0.3700
69     H69     0.1461    8.4342    2.2481 H        1 ZINC000008551963    0.3700
70     H70     0.0826    6.4437    3.1904 H        1 ZINC000008551963    0.3800
71     H71     1.9882    1.4389   -0.0127 H        1 ZINC000008551963    0.4300
@<TRIPOS>BOND
1     1     2     2
2     2     57    am
3     2     3     1
4     3     4     2
5     3     58    1
6     4     5     1
7     4     59    1
8     5     6     1
9     5     55    am
10    6     7     1
11    6     52    1
12    6     8     1
13    8     9     1
14    9     10    1
15    9     11    1
16    9     49    1
17    11    12    1
18    11    60    1
19    11    61    1
20    12    13    1
21    13    14    ar
22    13    15    ar
23    13    16    1
24    16    17    1
25    17    18    ar
26    17    19    ar
27    17    20    1
28    20    21    1
29    21    22    ar
30    21    23    ar
31    21    24    1
32    24    25    1
33    25    26    ar
34    25    27    ar
35    25    28    1
36    28    29    1
37    29    30    1
38    29    62    1
39    29    63    1
40    30    31    1
41    30    46    1
42    30    32    1
43    32    33    1
44    33    34    1
45    33    35    1
46    33    43    1
47    35    41    am
48    35    36    1
49    36    37    2
50    36    64    1
51    37    38    1
52    37    65    1
53    38    39    2
54    38    40    am
55    40    41    am
56    40    66    1
57    41    42    2
58    43    44    1
59    43    45    1
60    43    46    1
61    45    67    1
62    46    47    1
63    46    48    1
64    48    68    1
65    49    50    1
66    49    51    1
67    49    52    1
68    51    69    1
69    52    53    1
70    52    54    1
71    54    70    1
72    55    56    2
73    55    57    am
74    57    71    1
@<TRIPOS>SUBSTRUCTURE
1   ZINC000008551963 1     RESIDUE    1   A     ZIN   1
