@<TRIPOS>MOLECULE
ZINC000001664877
27    26    1     0     0
SMALL
USER_CHARGES
@<TRIPOS>ATOM
1      C1      0.1173    0.4667   -2.1110 C.3      1 ZINC000001664877   -0.1500
2      C2      0.0340   -0.6826   -1.1044 C.3      1 ZINC000001664877   -0.1200
3      C3     -1.4287   -1.0884   -0.9135 C.3      1 ZINC000001664877   -0.0800
4      H4     -2.0135   -0.2149   -0.6252 H        1 ZINC000001664877    0.0900
5      C5     -1.9752   -1.6580   -2.2242 C.3      1 ZINC000001664877   -0.1500
6      C6     -1.5243   -2.1508    0.1833 C.3      1 ZINC000001664877   -0.1000
7      H7     -0.9395   -3.0243   -0.1050 H        1 ZINC000001664877    0.0900
8      C8     -0.9778   -1.5812    1.4940 C.3      1 ZINC000001664877   -0.1100
9      C9     -1.8111   -0.3671    1.9092 C.3      1 ZINC000001664877   -0.1600
10     C10    -2.9651   -2.5505    0.3714 C.2      1 ZINC000001664877    0.5200
11     N11    -3.2720   -3.8075    0.7487 N.am     1 ZINC000001664877   -0.8600
12     O12    -3.8485   -1.7411    0.1832 O.2      1 ZINC000001664877   -0.5400
13     H13     1.1594    0.7558   -2.2470 H        1 ZINC000001664877    0.0500
14     H14    -0.2979    0.1441   -3.0659 H        1 ZINC000001664877    0.0600
15     H15    -0.4504    1.3188   -1.7373 H        1 ZINC000001664877    0.0500
16     H16     0.6017   -1.5347   -1.4781 H        1 ZINC000001664877    0.0600
17     H17     0.4492   -0.3600   -0.1496 H        1 ZINC000001664877    0.0700
18     H18    -1.3905   -2.5315   -2.5125 H        1 ZINC000001664877    0.0500
19     H19    -3.0173   -1.9471   -2.0882 H        1 ZINC000001664877    0.0600
20     H20    -1.9072   -0.9011   -3.0056 H        1 ZINC000001664877    0.0600
21     H21    -1.0327   -2.3427    2.2719 H        1 ZINC000001664877    0.0600
22     H22     0.0600   -1.2789    1.3541 H        1 ZINC000001664877    0.0800
23     H23    -1.4276    0.0331    2.8477 H        1 ZINC000001664877    0.0500
24     H24    -1.7487    0.3982    1.1355 H        1 ZINC000001664877    0.0600
25     H25    -2.8507   -0.6675    2.0401 H        1 ZINC000001664877    0.0600
26     H26    -2.5721   -4.4742    0.8291 H        1 ZINC000001664877    0.4000
27     H27    -4.1927   -4.0453    0.9398 H        1 ZINC000001664877    0.4000
@<TRIPOS>BOND
1     1     2     1
2     1     13    1
3     1     14    1
4     1     15    1
5     2     3     1
6     2     16    1
7     2     17    1
8     3     4     1
9     3     5     1
10    3     6     1
11    5     18    1
12    5     19    1
13    5     20    1
14    6     7     1
15    6     8     1
16    6     10    1
17    8     9     1
18    8     21    1
19    8     22    1
20    9     23    1
21    9     24    1
22    9     25    1
23    10    11    am
24    10    12    2
25    11    26    1
26    11    27    1
@<TRIPOS>SUBSTRUCTURE
1   ZINC000001664877 1     RESIDUE    1   A     ZIN   1
