@<TRIPOS>MOLECULE
ZINC000040863182
  39   42    0    0    0
SMALL
USER_CHARGES
NO_NAME
@<TRIPOS>ATOM
    1 C1       -0.0184     1.5028     0.0103 C.3    1 <0>      -0.1100
    2 C2        0.0021    -0.0041     0.0020 C.ar   1 <0>      -0.1700
    3 C3        0.0057    -0.6887    -1.1971 C.ar   1 <0>      -0.0400
    4 C4        0.0240    -2.0716    -1.2056 C.ar   1 <0>      -0.1800
    5 C5        0.0279    -2.8154    -2.5163 C.3    1 <0>       0.1800
    6 N6        1.4103    -3.0381    -2.9472 N.pl3  1 <0>      -0.3800
    7 N7        2.1881    -2.1844    -3.7441 N.2    1 <0>       0.0000
    8 N8        3.3523    -2.7058    -3.9180 N.2    1 <0>      -0.1700
    9 C9        3.4308    -3.8856    -3.2816 C.ar   1 <0>      -0.1500
   10 C10       4.4447    -4.8608    -3.1380 C.ar   1 <0>       0.4100
   11 C11       5.7610    -4.6774    -3.7716 C.2    1 <0>      -0.0100
   12 C12       6.9582    -5.0807    -3.2606 C.2    1 <0>      -0.1200
   13 C13       7.9430    -4.7047    -4.1919 C.2    1 <0>      -0.2200
   14 C14       7.3085    -4.0967    -5.2158 C.2    1 <0>       0.0000
   15 O15       5.9914    -4.0866    -4.9610 O.3    1 <0>      -0.1500
   16 N16       4.1819    -5.9488    -2.4160 N.ar   1 <0>      -0.5500
   17 C17       2.9994    -6.1216    -1.8417 C.ar   1 <0>       0.6200
   18 N18       2.7782    -7.2708    -1.1019 N.pl3  1 <0>      -0.8000
   19 N19       2.0233    -5.2347    -1.9500 N.ar   1 <0>      -0.5800
   20 C20       2.1966    -4.1160    -2.6465 C.ar   1 <0>       0.3600
   21 C21       0.0391    -2.7733    -0.0144 C.ar   1 <0>      -0.0400
   22 C22       0.0360    -2.0947     1.1887 C.ar   1 <0>      -0.2000
   23 C23       0.0230    -0.7059     1.2009 C.ar   1 <0>       0.2300
   24 N24       0.0198    -0.0165     2.4156 N.pl3  1 <0>      -0.8700
   25 H25       1.0042     1.8801     0.0026 H      1 <0>       0.0700
   26 H26      -0.5455     1.8639    -0.8728 H      1 <0>       0.0700
   27 H27      -0.5286     1.8543     0.9071 H      1 <0>       0.0600
   28 H28      -0.0060    -0.1437    -2.1294 H      1 <0>       0.1300
   29 H29      -0.4727    -3.7754    -2.3908 H      1 <0>       0.1100
   30 H30      -0.4971    -2.2275    -3.2692 H      1 <0>       0.1100
   31 H31       7.1197    -5.5900    -2.3221 H      1 <0>       0.1600
   32 H32       9.0064    -4.8713    -4.1041 H      1 <0>       0.1600
   33 H33       7.7822    -3.6888    -6.0965 H      1 <0>       0.2100
   34 H34       3.4820    -7.9321    -1.0111 H      1 <0>       0.4200
   35 H35       1.9195    -7.4146    -0.6744 H      1 <0>       0.4200
   36 H36       0.0529    -3.8531    -0.0245 H      1 <0>       0.1300
   37 H37       0.0474    -2.6434     2.1189 H      1 <0>       0.1200
   38 H38       0.0267    -0.5077     3.2520 H      1 <0>       0.4000
   39 H39       0.0108     0.9534     2.4228 H      1 <0>       0.4000
@<TRIPOS>BOND
   1    1    2 1
   2    1   25 1
   3    1   26 1
   4    1   27 1
   5    2   23 ar
   6    2    3 ar
   7    3    4 ar
   8    3   28 1
   9    4    5 1
  10    4   21 ar
  11    5    6 1
  12    5   29 1
  13    5   30 1
  14    6   20 1
  15    6    7 1
  16    7    8 2
  17    8    9 1
  18    9   20 ar
  19    9   10 ar
  20   10   11 1
  21   10   16 ar
  22   11   15 1
  23   11   12 2
  24   12   13 1
  25   12   31 1
  26   13   14 2
  27   13   32 1
  28   14   15 1
  29   14   33 1
  30   16   17 ar
  31   17   18 1
  32   17   19 ar
  33   18   34 1
  34   18   35 1
  35   19   20 ar
  36   21   22 ar
  37   21   36 1
  38   22   23 ar
  39   22   37 1
  40   23   24 1
  41   24   38 1
  42   24   39 1
