@<TRIPOS>MOLECULE
ZINC000000600360
43    45    1     0     0
SMALL
USER_CHARGES
@<TRIPOS>ATOM
1      C1     -0.0187    1.5258    0.0104 C.3      1 ZINC000000600360   -0.1500
2      C2      0.0021   -0.0041    0.0020 C.3      1 ZINC000000600360    0.0500
3      O3      0.6709   -0.4649   -1.1737 O.3      1 ZINC000000600360   -0.3000
4      C4      0.7768   -1.8104   -1.3362 C.ar     1 ZINC000000600360    0.1200
5      C5      0.2420   -2.6664   -0.3853 C.ar     1 ZINC000000600360   -0.1800
6      C6      0.3465   -4.0327   -0.5460 C.ar     1 ZINC000000600360   -0.0700
7      C7      0.9918   -4.5560   -1.6670 C.ar     1 ZINC000000600360   -0.0200
8      C8      1.1046   -6.0198   -1.8406 C.2      1 ZINC000000600360    0.1100
9      N9      0.6375   -6.9119   -1.0190 N.2      1 ZINC000000600360   -0.4400
10     C10     0.8308   -8.1804   -1.3359 C.2      1 ZINC000000600360    0.1100
11     C11     0.3473   -9.2925   -0.4837 C.ar     1 ZINC000000600360    0.1600
12     C12    -0.3440   -9.0087    0.6981 C.ar     1 ZINC000000600360   -0.1500
13     C13    -0.7919  -10.0526    1.4868 C.ar     1 ZINC000000600360   -0.1000
14     C14    -0.5376  -11.3532    1.0748 C.ar     1 ZINC000000600360   -0.1300
15     C15     0.1571  -11.5678   -0.1141 C.ar     1 ZINC000000600360    0.0800
16     C16     0.4325  -12.9508   -0.5618 C.2      1 ZINC000000600360    0.5300
17     O17     0.0511  -13.8981    0.1101 O.co2    1 ZINC000000600360   -0.6800
18     O18     1.0414  -13.1461   -1.6037 O.co2    1 ZINC000000600360   -0.6600
19     N19     0.5696  -10.5440   -0.8517 N.ar     1 ZINC000000600360   -0.4300
20     C20     1.4984   -8.3931   -2.4889 C.2      1 ZINC000000600360   -0.1900
21     S21     1.8862   -6.8266   -3.1969 S.3      1 ZINC000000600360    0.0800
22     C22     1.5304   -3.6944   -2.6246 C.ar     1 ZINC000000600360   -0.1500
23     C23     1.4173   -2.3266   -2.4607 C.ar     1 ZINC000000600360    0.1000
24     O24     1.9408   -1.4846   -3.3916 O.3      1 ZINC000000600360   -0.3000
25     C25     2.5938   -2.0827   -4.5132 C.3      1 ZINC000000600360    0.0500
26     C26     3.1141   -0.9862   -5.4448 C.3      1 ZINC000000600360   -0.1500
27     H27     1.0039    1.9031    0.0027 H        1 ZINC000000600360    0.0700
28     H28    -0.5459    1.8868   -0.8726 H        1 ZINC000000600360    0.0700
29     H29    -0.5289    1.8773    0.9072 H        1 ZINC000000600360    0.0800
30     H30     0.5293   -0.3651    0.8851 H        1 ZINC000000600360    0.0600
31     H31    -1.0205   -0.3814    0.0098 H        1 ZINC000000600360    0.0600
32     H32    -0.2571   -2.2626    0.4832 H        1 ZINC000000600360    0.1400
33     H33    -0.0709   -4.6972    0.1961 H        1 ZINC000000600360    0.1400
34     H34    -0.5259   -7.9854    0.9918 H        1 ZINC000000600360    0.1300
35     H35    -1.3280   -9.8597    2.4044 H        1 ZINC000000600360    0.1300
36     H36    -0.8741  -12.1898    1.6691 H        1 ZINC000000600360    0.1400
37     H37     1.7481   -9.3567   -2.9078 H        1 ZINC000000600360    0.2000
38     H38     2.0305   -4.0959   -3.4936 H        1 ZINC000000600360    0.1400
39     H39     3.4290   -2.6908   -4.1657 H        1 ZINC000000600360    0.0600
40     H40     1.8859   -2.7120   -5.0526 H        1 ZINC000000600360    0.0600
41     H41     2.2789   -0.3781   -5.7923 H        1 ZINC000000600360    0.0700
42     H42     3.8220   -0.3569   -4.9054 H        1 ZINC000000600360    0.0700
43     H43     3.6122   -1.4424   -6.3003 H        1 ZINC000000600360    0.0800
@<TRIPOS>BOND
1     1     2     1
2     1     27    1
3     1     28    1
4     1     29    1
5     2     3     1
6     2     30    1
7     2     31    1
8     3     4     1
9     4     23    ar
10    4     5     ar
11    5     6     ar
12    5     32    1
13    6     7     ar
14    6     33    1
15    7     8     1
16    7     22    ar
17    8     21    1
18    8     9     2
19    9     10    1
20    10    11    1
21    10    20    2
22    11    19    ar
23    11    12    ar
24    12    13    ar
25    12    34    1
26    13    14    ar
27    13    35    1
28    14    15    ar
29    14    36    1
30    15    16    1
31    15    19    ar
32    16    17    ar
33    16    18    ar
34    20    21    1
35    20    37    1
36    22    23    ar
37    22    38    1
38    23    24    1
39    24    25    1
40    25    26    1
41    25    39    1
42    25    40    1
43    26    41    1
44    26    42    1
45    26    43    1
@<TRIPOS>SUBSTRUCTURE
1   ZINC000000600360 1     RESIDUE    1   A     ZIN   1
