@<TRIPOS>MOLECULE
ZINC000006092213
  22   22    0    0    0
SMALL
NO_CHARGES
@<TRIPOS>ATOM
   1 N1            -0.0162     1.3436     0.0094 N.am    
   2 C2             0.0021    -0.0041     0.0020 C.2     
   3 S3             1.4961    -0.8398    -0.0167 S.2     
   4 N4            -1.1558    -0.6938     0.0094 N.am    
   5 N5            -2.3785    -0.0099     0.0247 N.2     
   6 C6            -3.4940    -0.6743     0.0318 C.2     
   7 C7            -4.7792     0.0446     0.0479 C.ar    
   8 N8            -4.7931     1.3735     0.0497 N.ar    
   9 C9            -5.9211     2.0529     0.0634 C.ar    
  10 C10           -7.1446     1.4069     0.0772 C.ar    
  11 C11           -7.1852     0.0209     0.0761 C.ar    
  12 C12           -5.9828    -0.6775     0.0555 C.ar    
  13 N13           -5.9729    -2.0713     0.0535 N.pl3   
  14 H14            0.8172     1.8399     0.0041 H       
  15 H15           -0.8627     1.8171     0.0160 H       
  16 H16           -1.1427    -1.6637     0.0040 H       
  17 H17           -3.4794    -1.7542     0.0259 H       
  18 H18           -5.8907     3.1325     0.0644 H       
  19 H19           -8.0612     1.9779     0.0892 H       
  20 H20           -8.1290    -0.5041     0.0867 H       
  21 H21           -6.8094    -2.5623     0.0665 H       
  22 H22           -5.1295    -2.5503     0.0392 H       
@<TRIPOS>BOND
   1    1    2 am
   2    1   14 1
   3    1   15 1
   4    2    3 2
   5    2    4 am
   6    4    5 1
   7    4   16 1
   8    5    6 2
   9    6    7 1
  10    6   17 1
  11    7   12 ar
  12    7    8 ar
  13    8    9 ar
  14    9   10 ar
  15    9   18 1
  16   10   11 ar
  17   10   19 1
  18   11   12 ar
  19   11   20 1
  20   12   13 1
  21   13   21 1
  22   13   22 1
