@<TRIPOS>MOLECULE
ZINC000253497434
101   106   1     0     0
SMALL
USER_CHARGES
@<TRIPOS>ATOM
1      C1     -2.1602    1.1669   -0.1408 C.3      1 ZINC000253497434   -0.1700
2      C2     -1.5712   -0.2192   -0.0881 C.2      1 ZINC000253497434    0.4700
3      O3     -1.4454   -0.7822    0.9735 O.2      1 ZINC000253497434   -0.5000
4      O4     -1.1862   -0.8283   -1.2206 O.3      1 ZINC000253497434   -0.3500
5      C5     -0.7422   -2.2063   -1.1097 C.3      1 ZINC000253497434    0.0700
6      H6     -0.9593   -2.5918   -0.1136 H        1 ZINC000253497434    0.1100
7      C7      0.7696   -2.3030   -1.3997 C.3      1 ZINC000253497434    0.0100
8      H8      1.2885   -2.7295   -0.5412 H        1 ZINC000253497434    0.1400
9      N9      1.3104   -0.9716   -1.7045 N.4      1 ZINC000253497434   -0.2500
10     C10     2.7604   -1.0709   -1.9184 C.3      1 ZINC000253497434   -0.0600
11     C11     0.6736   -0.4532   -2.9212 C.3      1 ZINC000253497434   -0.0400
12     C12     1.2912    0.8977   -3.2887 C.3      1 ZINC000253497434   -0.1500
13     C13     1.0727    1.8830   -2.1368 C.3      1 ZINC000253497434   -0.1400
14     C14     1.6759    1.2981   -0.8565 C.3      1 ZINC000253497434   -0.1500
15     C15     1.0442   -0.0677   -0.5791 C.3      1 ZINC000253497434   -0.0500
16     C16     0.9215   -3.2310   -2.6251 C.3      1 ZINC000253497434   -0.1500
17     C17    -0.3699   -4.1022   -2.5941 C.3      1 ZINC000253497434   -0.0700
18     H18    -0.5919   -4.5454   -3.5649 H        1 ZINC000253497434    0.1200
19     C19    -0.1443   -5.1685   -1.5154 C.3      1 ZINC000253497434   -0.0900
20     H20     0.3279   -4.7036   -0.6500 H        1 ZINC000253497434    0.0700
21     C21     0.8045   -6.2197   -2.0964 C.3      1 ZINC000253497434   -0.1200
22     C22     0.6638   -7.5511   -1.3659 C.3      1 ZINC000253497434   -0.1200
23     C23     0.2210   -7.2722    0.0788 C.3      1 ZINC000253497434   -0.0700
24     H24     0.2859   -8.1962    0.6532 H        1 ZINC000253497434    0.0900
25     C25     1.1560   -6.2468    0.6880 C.3      1 ZINC000253497434   -0.1400
26     C26     0.6405   -5.6149    1.9633 C.3      1 ZINC000253497434    0.0800
27     H27     1.2880   -4.7809    2.2342 H        1 ZINC000253497434    0.1000
28     O28     0.6699   -6.6026    3.0273 O.3      1 ZINC000253497434   -0.3500
29     C29     1.7943   -6.6798    3.7562 C.2      1 ZINC000253497434    0.4600
30     C30     1.8981   -7.6813    4.8776 C.3      1 ZINC000253497434   -0.1600
31     O31     2.7233   -5.9465    3.5133 O.2      1 ZINC000253497434   -0.4900
32     C32    -0.7870   -5.1042    1.7991 C.3      1 ZINC000253497434    0.0200
33     H33    -0.8133   -4.3365    1.0259 H        1 ZINC000253497434    0.1500
34     N34    -1.2562   -4.5379    3.0708 N.4      1 ZINC000253497434   -0.2600
35     C35    -2.5369   -3.8511    2.8564 C.3      1 ZINC000253497434   -0.0600
36     C36    -1.4410   -5.6181    4.0472 C.3      1 ZINC000253497434   -0.0300
37     C37    -2.0066   -5.0438    5.3479 C.3      1 ZINC000253497434   -0.1500
38     C38    -1.0289   -4.0076    5.9097 C.3      1 ZINC000253497434   -0.1400
39     C39    -0.7860   -2.9248    4.8544 C.3      1 ZINC000253497434   -0.1400
40     C40    -0.2656   -3.5776    3.5720 C.3      1 ZINC000253497434   -0.0100
41     C41    -1.6883   -6.2725    1.3922 C.3      1 ZINC000253497434   -0.1300
42     C42    -1.2222   -6.8094    0.0516 C.3      1 ZINC000253497434   -0.0400
43     C43    -2.0720   -8.0397   -0.2725 C.3      1 ZINC000253497434   -0.1600
44     C44    -1.4544   -5.8098   -1.0810 C.3      1 ZINC000253497434   -0.0700
45     H45    -1.9175   -6.3181   -1.9268 H        1 ZINC000253497434    0.1000
46     C46    -2.3999   -4.7192   -0.5564 C.3      1 ZINC000253497434   -0.1400
47     C47    -2.7068   -3.7438   -1.6899 C.3      1 ZINC000253497434   -0.1100
48     C48    -1.4308   -3.0713   -2.1735 C.3      1 ZINC000253497434   -0.0600
49     C49    -1.7593   -2.1814   -3.3740 C.3      1 ZINC000253497434   -0.1600
50     H50    -1.3626    1.9044   -0.0510 H        1 ZINC000253497434    0.1200
51     H51    -2.6782    1.3057   -1.0898 H        1 ZINC000253497434    0.1100
52     H52    -2.8660    1.2932    0.6802 H        1 ZINC000253497434    0.1200
53     H53     2.9605   -1.7649   -2.7347 H        1 ZINC000253497434    0.1200
54     H54     3.1584   -0.0882   -2.1712 H        1 ZINC000253497434    0.1300
55     H55     3.2380   -1.4332   -1.0081 H        1 ZINC000253497434    0.1200
56     H56     0.8272   -1.1570   -3.7392 H        1 ZINC000253497434    0.1300
57     H57    -0.3950   -0.3283   -2.7464 H        1 ZINC000253497434    0.1600
58     H58     2.3598    0.7738   -3.4639 H        1 ZINC000253497434    0.0900
59     H59     0.8158    1.2817   -4.1913 H        1 ZINC000253497434    0.1100
60     H60     1.5597    2.8298   -2.3698 H        1 ZINC000253497434    0.1000
61     H61     0.0044    2.0465   -1.9948 H        1 ZINC000253497434    0.0800
62     H62     2.7526    1.1825   -0.9812 H        1 ZINC000253497434    0.0900
63     H63     1.4756    1.9684   -0.0206 H        1 ZINC000253497434    0.1100
64     H64    -0.0324    0.0491   -0.4543 H        1 ZINC000253497434    0.1400
65     H65     1.4713   -0.4868    0.3319 H        1 ZINC000253497434    0.1200
66     H66     0.9672   -2.6469   -3.5443 H        1 ZINC000253497434    0.1000
67     H67     1.8080   -3.8570   -2.5237 H        1 ZINC000253497434    0.1100
68     H68     0.5740   -6.3649   -3.1519 H        1 ZINC000253497434    0.0800
69     H69     1.8312   -5.8663   -2.0010 H        1 ZINC000253497434    0.0600
70     H70    -0.0848   -8.1657   -1.8660 H        1 ZINC000253497434    0.0800
71     H71     1.6228   -8.0692   -1.3613 H        1 ZINC000253497434    0.0700
72     H72     2.1089   -6.7310    0.9020 H        1 ZINC000253497434    0.0900
73     H73     1.3291   -5.4579   -0.0439 H        1 ZINC000253497434    0.1000
74     H74     2.3005   -8.6180    4.4921 H        1 ZINC000253497434    0.1200
75     H75     2.5599   -7.2927    5.6516 H        1 ZINC000253497434    0.1100
76     H76     0.9089   -7.8574    5.3001 H        1 ZINC000253497434    0.1000
77     H77    -3.2725   -4.5628    2.4816 H        1 ZINC000253497434    0.1200
78     H78    -2.8860   -3.4304    3.7994 H        1 ZINC000253497434    0.1300
79     H79    -2.4026   -3.0505    2.1290 H        1 ZINC000253497434    0.1200
80     H80    -2.1346   -6.3564    3.6446 H        1 ZINC000253497434    0.1300
81     H81    -0.4812   -6.0941    4.2478 H        1 ZINC000253497434    0.1500
82     H82    -2.9667   -4.5678    5.1484 H        1 ZINC000253497434    0.0900
83     H83    -2.1415   -5.8472    6.0721 H        1 ZINC000253497434    0.1100
84     H84    -1.4530   -3.5547    6.8058 H        1 ZINC000253497434    0.1000
85     H85    -0.0851   -4.4936    6.1571 H        1 ZINC000253497434    0.0800
86     H86    -1.7207   -2.4047    4.6447 H        1 ZINC000253497434    0.0900
87     H87    -0.0484   -2.2134    5.2259 H        1 ZINC000253497434    0.1100
88     H88     0.6691   -4.0971    3.7827 H        1 ZINC000253497434    0.1200
89     H89    -0.0915   -2.8093    2.8186 H        1 ZINC000253497434    0.1200
90     H90    -1.6305   -7.0564    2.1474 H        1 ZINC000253497434    0.1100
91     H91    -2.7178   -5.9248    1.3069 H        1 ZINC000253497434    0.1000
92     H92    -3.1225   -7.7529   -0.3218 H        1 ZINC000253497434    0.0600
93     H93    -1.7626   -8.4522   -1.2328 H        1 ZINC000253497434    0.0700
94     H94    -1.9364   -8.7903    0.5061 H        1 ZINC000253497434    0.0600
95     H95    -3.3259   -5.1760   -0.2072 H        1 ZINC000253497434    0.0800
96     H96    -1.9216   -4.1856    0.2649 H        1 ZINC000253497434    0.0500
97     H97    -3.1803   -4.2834   -2.5100 H        1 ZINC000253497434    0.0900
98     H98    -3.3875   -2.9738   -1.3268 H        1 ZINC000253497434    0.0700
99     H99    -2.4931   -1.4310   -3.0800 H        1 ZINC000253497434    0.0700
100    H100   -0.8513   -1.6863   -3.7184 H        1 ZINC000253497434    0.0600
101    H101   -2.1673   -2.7929   -4.1787 H        1 ZINC000253497434    0.0800
@<TRIPOS>BOND
1     1     2     1
2     1     50    1
3     1     51    1
4     1     52    1
5     2     3     2
6     2     4     1
7     4     5     1
8     5     6     1
9     5     48    1
10    5     7     1
11    7     8     1
12    7     9     1
13    7     16    1
14    9     15    1
15    9     10    1
16    9     11    1
17    10    53    1
18    10    54    1
19    10    55    1
20    11    12    1
21    11    56    1
22    11    57    1
23    12    13    1
24    12    58    1
25    12    59    1
26    13    14    1
27    13    60    1
28    13    61    1
29    14    15    1
30    14    62    1
31    14    63    1
32    15    64    1
33    15    65    1
34    16    17    1
35    16    66    1
36    16    67    1
37    17    18    1
38    17    48    1
39    17    19    1
40    19    20    1
41    19    44    1
42    19    21    1
43    21    22    1
44    21    68    1
45    21    69    1
46    22    23    1
47    22    70    1
48    22    71    1
49    23    24    1
50    23    42    1
51    23    25    1
52    25    26    1
53    25    72    1
54    25    73    1
55    26    27    1
56    26    28    1
57    26    32    1
58    28    29    1
59    29    30    1
60    29    31    2
61    30    74    1
62    30    75    1
63    30    76    1
64    32    33    1
65    32    34    1
66    32    41    1
67    34    40    1
68    34    35    1
69    34    36    1
70    35    77    1
71    35    78    1
72    35    79    1
73    36    37    1
74    36    80    1
75    36    81    1
76    37    38    1
77    37    82    1
78    37    83    1
79    38    39    1
80    38    84    1
81    38    85    1
82    39    40    1
83    39    86    1
84    39    87    1
85    40    88    1
86    40    89    1
87    41    42    1
88    41    90    1
89    41    91    1
90    42    43    1
91    42    44    1
92    43    92    1
93    43    93    1
94    43    94    1
95    44    45    1
96    44    46    1
97    46    47    1
98    46    95    1
99    46    96    1
100   47    48    1
101   47    97    1
102   47    98    1
103   48    49    1
104   49    99    1
105   49    100   1
106   49    101   1
@<TRIPOS>SUBSTRUCTURE
1   ZINC000253497434 1     RESIDUE    1   A     ZIN   1
