@<TRIPOS>MOLECULE
ZINC000000004749
38    40    1     0     0
SMALL
USER_CHARGES
@<TRIPOS>ATOM
1      C1     -0.0184    1.5028    0.0103 C.3      1 ZINC000000004749   -0.0700
2      C2      0.0021   -0.0041    0.0020 C.ar     1 ZINC000000004749   -0.2800
3      C3      0.0058   -0.6914   -1.2052 C.ar     1 ZINC000000004749    0.3300
4      O4     -0.0126    0.0008   -2.3719 O.3      1 ZINC000000004749   -0.6800
5      C5      0.0287   -2.0803   -1.2302 C.ar     1 ZINC000000004749   -0.2700
6      C6      0.0344   -2.8078   -2.5500 C.3      1 ZINC000000004749   -0.0700
7      C7      0.0467   -2.7975   -0.0474 C.ar     1 ZINC000000004749    0.2100
8      O8      0.0809   -4.1505   -0.0778 O.3      1 ZINC000000004749   -0.3100
9      C9     -0.3772   -4.8728    1.0650 C.3      1 ZINC000000004749    0.1400
10     H10    -1.4518   -4.7300    1.1789 H        1 ZINC000000004749    0.0800
11     C11    -0.0810   -6.3394    0.8850 C.ar     1 ZINC000000004749   -0.0700
12     C12     1.1189   -6.7370    0.3260 C.ar     1 ZINC000000004749   -0.0800
13     C13     1.3952   -8.0815    0.1583 C.ar     1 ZINC000000004749   -0.1300
14     C14     0.4687   -9.0333    0.5513 C.ar     1 ZINC000000004749    0.0800
15     O15     0.7390  -10.3560    0.3874 O.3      1 ZINC000000004749   -0.4900
16     C16    -0.7396   -8.6329    1.1146 C.ar     1 ZINC000000004749    0.0800
17     O17    -1.6522   -9.5636    1.5024 O.3      1 ZINC000000004749   -0.4900
18     C18    -1.0079   -7.2846    1.2846 C.ar     1 ZINC000000004749   -0.1200
19     C19     0.3443   -4.3536    2.3173 C.3      1 ZINC000000004749   -0.1900
20     C20     0.0391   -2.8706    2.4292 C.2      1 ZINC000000004749    0.4000
21     O21    -0.1893   -2.3453    3.4993 O.2      1 ZINC000000004749   -0.4800
22     C22     0.0349   -2.1050    1.1779 C.ar     1 ZINC000000004749   -0.4000
23     C23     0.0229   -0.7016    1.1968 C.ar     1 ZINC000000004749    0.2200
24     O24     0.0268   -0.0344    2.3775 O.3      1 ZINC000000004749   -0.4900
25     H25     1.0042    1.8801    0.0026 H        1 ZINC000000004749    0.0400
26     H26    -0.5455    1.8639   -0.8728 H        1 ZINC000000004749    0.0600
27     H27    -0.5286    1.8543    0.9071 H        1 ZINC000000004749    0.0500
28     H28     1.0632   -2.9662   -2.8731 H        1 ZINC000000004749    0.0400
29     H29    -0.4631   -3.7710   -2.4361 H        1 ZINC000000004749    0.0400
30     H30    -0.4930   -2.2125   -3.2953 H        1 ZINC000000004749    0.0600
31     H31     1.8421   -5.9959    0.0192 H        1 ZINC000000004749    0.1400
32     H32     2.3333   -8.3895   -0.2794 H        1 ZINC000000004749    0.1400
33     H33     1.1834  -10.7632    1.1436 H        1 ZINC000000004749    0.3900
34     H34    -1.5497   -9.8573    2.4180 H        1 ZINC000000004749    0.3800
35     H35    -1.9446   -6.9713    1.7214 H        1 ZINC000000004749    0.1400
36     H36    -0.0231   -4.8758    3.2006 H        1 ZINC000000004749    0.1000
37     H37     1.4190   -4.5047    2.2159 H        1 ZINC000000004749    0.1000
38     H38     0.9112    0.1668    2.7126 H        1 ZINC000000004749    0.3800
@<TRIPOS>BOND
1     1     2     1
2     1     25    1
3     1     26    1
4     1     27    1
5     2     23    ar
6     2     3     ar
7     3     4     1
8     3     5     ar
9     5     6     1
10    5     7     ar
11    6     28    1
12    6     29    1
13    6     30    1
14    7     22    ar
15    7     8     1
16    8     9     1
17    9     10    1
18    9     11    1
19    9     19    1
20    11    18    ar
21    11    12    ar
22    12    13    ar
23    12    31    1
24    13    14    ar
25    13    32    1
26    14    15    1
27    14    16    ar
28    15    33    1
29    16    17    1
30    16    18    ar
31    17    34    1
32    18    35    1
33    19    20    1
34    19    36    1
35    19    37    1
36    20    21    2
37    20    22    1
38    22    23    ar
39    23    24    1
40    24    38    1
@<TRIPOS>SUBSTRUCTURE
1   ZINC000000004749 1     RESIDUE    1   A     ZIN   1
