@<TRIPOS>MOLECULE
ZINC000000056464
  29   30    0    0    0
SMALL
USER_CHARGES
NO_NAME
@<TRIPOS>ATOM
    1 F1        0.0207     0.0253    -0.0156 F      1 <0>      -0.1800
    2 C2       -0.0125     1.4238     0.0010 C.3    1 <0>       0.5100
    3 F3        1.2949     1.9216    -0.0086 F      1 <0>      -0.1800
    4 F4       -0.6963     1.8875    -1.1280 F      1 <0>      -0.1800
    5 C5       -0.7202     1.8947     1.2454 C.ar   1 <0>      -0.1300
    6 C6       -2.0893     2.0871     1.2303 C.ar   1 <0>      -0.1300
    7 C7       -2.7427     2.5187     2.3703 C.ar   1 <0>      -0.0700
    8 C8       -2.0292     2.7594     3.5277 C.ar   1 <0>      -0.1700
    9 C9       -0.6534     2.5671     3.5464 C.ar   1 <0>       0.2200
   10 N10       0.0714     2.8092     4.7155 N.pl3  1 <0>      -0.6300
   11 C11       1.5072     2.4995     4.7914 C.3    1 <0>       0.1200
   12 C12       1.7571     1.6529     6.0440 C.3    1 <0>       0.0400
   13 N13       1.2084     2.3461     7.2171 N.3    1 <0>      -0.6900
   14 C14      -0.2489     2.4991     7.1123 C.3    1 <0>       0.0400
   15 C15      -0.5796     3.3861     5.9015 C.3    1 <0>       0.1200
   16 C16      -0.0011     2.1281     2.4014 C.ar   1 <0>      -0.1600
   17 H17      -2.6497     1.9003     0.3262 H      1 <0>       0.1300
   18 H18      -3.8123     2.6680     2.3551 H      1 <0>       0.1300
   19 H19      -2.5400     3.0971     4.4174 H      1 <0>       0.1300
   20 H20       1.8086     1.9405     3.9055 H      1 <0>       0.0900
   21 H21       2.0786     3.4256     4.8554 H      1 <0>       0.0700
   22 H22       1.2688     0.6849     5.9321 H      1 <0>       0.0400
   23 H23       2.8292     1.5068     6.1763 H      1 <0>       0.0900
   24 H24       1.4616     1.8697     8.0698 H      1 <0>       0.3500
   25 H25      -0.7093     1.5193     6.9856 H      1 <0>       0.0400
   26 H26      -0.6317     2.9667     8.0195 H      1 <0>       0.0900
   27 H27      -0.2085     4.3961     6.0753 H      1 <0>       0.0700
   28 H28      -1.6587     3.4105     5.7494 H      1 <0>       0.0900
   29 H29       1.0683     1.9776     2.4125 H      1 <0>       0.1300
@<TRIPOS>BOND
   1    1    2 1
   2    2    3 1
   3    2    4 1
   4    2    5 1
   5    5   16 ar
   6    5    6 ar
   7    6    7 ar
   8    6   17 1
   9    7    8 ar
  10    7   18 1
  11    8    9 ar
  12    8   19 1
  13    9   10 1
  14    9   16 ar
  15   10   15 1
  16   10   11 1
  17   11   12 1
  18   11   20 1
  19   11   21 1
  20   12   13 1
  21   12   22 1
  22   12   23 1
  23   13   14 1
  24   13   24 1
  25   14   15 1
  26   14   25 1
  27   14   26 1
  28   15   27 1
  29   15   28 1
  30   16   29 1




