@<TRIPOS>MOLECULE
ZINC000003986719
70    72    1     0     0
SMALL
USER_CHARGES
@<TRIPOS>ATOM
1      N1     -0.0160    1.3282    0.0093 N.pl3    1 ZINC000003986719   -0.7600
2      C2      0.0021   -0.0041    0.0020 C.cat    1 ZINC000003986719    0.6000
3      N3      1.1649   -0.6545   -0.0126 N.pl3    1 ZINC000003986719   -0.7600
4      H4      1.9982   -0.1581   -0.0179 H        1 ZINC000003986719    0.4300
5      H5      1.1780   -1.6244   -0.0179 H        1 ZINC000003986719    0.4400
6      C6     -1.2673   -0.7602    0.0101 C.ar     1 ZINC000003986719   -0.2000
7      C7     -2.4000   -0.2200    0.6230 C.ar     1 ZINC000003986719   -0.0200
8      C8     -3.5817   -0.9275    0.6281 C.ar     1 ZINC000003986719   -0.1500
9      C9     -3.6478   -2.1775    0.0244 C.ar     1 ZINC000003986719    0.2000
10     O10    -4.8141   -2.8717    0.0310 O.3      1 ZINC000003986719   -0.3000
11     C11    -4.8118   -4.1500   -0.6076 C.3      1 ZINC000003986719    0.0500
12     C12    -6.2034   -4.7768   -0.4992 C.3      1 ZINC000003986719   -0.1200
13     C13    -6.2009   -6.1455   -1.1829 C.3      1 ZINC000003986719   -0.1100
14     C14    -7.5925   -6.7722   -1.0745 C.3      1 ZINC000003986719   -0.1000
15     C15    -8.5955   -5.9333   -1.8717 C.3      1 ZINC000003986719   -0.1500
16     C16    -9.9679   -6.6084   -1.8248 C.3      1 ZINC000003986719   -0.0100
17     N17    -9.8768   -7.9515   -2.4100 N.4      1 ZINC000003986719   -0.3800
18     H18    -9.5233   -7.8832   -3.3526 H        1 ZINC000003986719    0.4300
19     C19   -11.2109   -8.5659   -2.4321 C.3      1 ZINC000003986719   -0.0100
20     C20   -11.0993  -10.0099   -2.9254 C.3      1 ZINC000003986719   -0.1500
21     C21   -12.4888  -10.6498   -2.9485 C.3      1 ZINC000003986719    0.0600
22     O22   -12.3845  -11.9985   -3.4092 O.3      1 ZINC000003986719   -0.3000
23     C23   -13.5357  -12.7130   -3.4894 C.ar     1 ZINC000003986719    0.1900
24     C24   -14.7436  -12.1233   -3.1362 C.ar     1 ZINC000003986719   -0.2100
25     C25   -15.9139  -12.8450   -3.2167 C.ar     1 ZINC000003986719   -0.0100
26     C26   -15.8857  -14.1712   -3.6539 C.ar     1 ZINC000003986719   -0.1900
27     C27   -17.1390  -14.9487   -3.7421 C.cat    1 ZINC000003986719    0.6000
28     N28   -17.2618  -15.9133   -4.6529 N.pl3    1 ZINC000003986719   -0.7600
29     N29   -18.1464  -14.6851   -2.9108 N.pl3    1 ZINC000003986719   -0.7600
30     H30   -18.9692  -15.1956   -2.9687 H        1 ZINC000003986719    0.4400
31     H31   -18.0570  -13.9828   -2.2477 H        1 ZINC000003986719    0.4400
32     C32   -14.6700  -14.7604   -4.0080 C.ar     1 ZINC000003986719   -0.0200
33     C33   -13.5044  -14.0307   -3.9299 C.ar     1 ZINC000003986719   -0.1400
34     C34    -8.9714   -8.7836   -1.6085 C.3      1 ZINC000003986719   -0.0200
35     C35    -7.5606   -8.1922   -1.6471 C.3      1 ZINC000003986719   -0.1400
36     C36    -2.5227   -2.7183   -0.5865 C.ar     1 ZINC000003986719   -0.2100
37     C37    -1.3390   -2.0143   -0.6003 C.ar     1 ZINC000003986719   -0.0100
38     H38     0.8174    1.8246    0.0041 H        1 ZINC000003986719    0.4300
39     H39    -0.8625    1.8017    0.0159 H        1 ZINC000003986719    0.4500
40     H40    -2.3493    0.7512    1.0927 H        1 ZINC000003986719    0.1500
41     H41    -4.4579   -0.5106    1.1022 H        1 ZINC000003986719    0.1600
42     H42    -4.5479   -4.0308   -1.6585 H        1 ZINC000003986719    0.0700
43     H43    -4.0826   -4.7979   -0.1212 H        1 ZINC000003986719    0.0700
44     H44    -6.4673   -4.8960    0.5516 H        1 ZINC000003986719    0.0800
45     H45    -6.9325   -4.1289   -0.9857 H        1 ZINC000003986719    0.0800
46     H46    -5.9370   -6.0262   -2.2338 H        1 ZINC000003986719    0.0800
47     H47    -5.4718   -6.7934   -0.6965 H        1 ZINC000003986719    0.0800
48     H48    -7.8956   -6.8079   -0.0281 H        1 ZINC000003986719    0.0900
49     H49    -8.6649   -4.9370   -1.4351 H        1 ZINC000003986719    0.1200
50     H50    -8.2633   -5.8555   -2.9069 H        1 ZINC000003986719    0.0900
51     H51   -10.2992   -6.6855   -0.7892 H        1 ZINC000003986719    0.1300
52     H52   -10.6844   -6.0136   -2.3912 H        1 ZINC000003986719    0.1300
53     H53   -11.6318   -8.5569   -1.4267 H        1 ZINC000003986719    0.1300
54     H54   -11.8595   -8.0020   -3.1026 H        1 ZINC000003986719    0.1400
55     H55   -10.6784  -10.0189   -3.9308 H        1 ZINC000003986719    0.1000
56     H56   -10.4507  -10.5737   -2.2549 H        1 ZINC000003986719    0.1000
57     H57   -12.9097  -10.6408   -1.9431 H        1 ZINC000003986719    0.0800
58     H58   -13.1374  -10.0859   -3.6190 H        1 ZINC000003986719    0.0800
59     H59   -14.7645  -11.0978   -2.7979 H        1 ZINC000003986719    0.1500
60     H60   -16.8521  -12.3862   -2.9417 H        1 ZINC000003986719    0.1500
61     H61   -16.5285  -16.1052   -5.2581 H        1 ZINC000003986719    0.4500
62     H62   -18.0847  -16.4238   -4.7108 H        1 ZINC000003986719    0.4400
63     H63   -14.6443  -15.7856   -4.3465 H        1 ZINC000003986719    0.1500
64     H64   -12.5640  -14.4855   -4.2039 H        1 ZINC000003986719    0.1600
65     H65    -9.3239   -8.8143   -0.5776 H        1 ZINC000003986719    0.1300
66     H66    -8.9522   -9.7947   -2.0153 H        1 ZINC000003986719    0.1300
67     H67    -7.2070   -8.1612   -2.6777 H        1 ZINC000003986719    0.0900
68     H68    -6.8903   -8.8104   -1.0500 H        1 ZINC000003986719    0.1200
69     H69    -2.5778   -3.6900   -1.0547 H        1 ZINC000003986719    0.1500
70     H70    -0.4651   -2.4352   -1.0752 H        1 ZINC000003986719    0.1400
@<TRIPOS>BOND
1     1     2     ar
2     1     38    1
3     1     39    1
4     2     3     ar
5     2     6     1
6     3     4     1
7     3     5     1
8     6     37    ar
9     6     7     ar
10    7     8     ar
11    7     40    1
12    8     9     ar
13    8     41    1
14    9     10    1
15    9     36    ar
16    10    11    1
17    11    12    1
18    11    42    1
19    11    43    1
20    12    13    1
21    12    44    1
22    12    45    1
23    13    14    1
24    13    46    1
25    13    47    1
26    14    35    1
27    14    15    1
28    14    48    1
29    15    16    1
30    15    49    1
31    15    50    1
32    16    17    1
33    16    51    1
34    16    52    1
35    17    18    1
36    17    19    1
37    17    34    1
38    19    20    1
39    19    53    1
40    19    54    1
41    20    21    1
42    20    55    1
43    20    56    1
44    21    22    1
45    21    57    1
46    21    58    1
47    22    23    1
48    23    33    ar
49    23    24    ar
50    24    25    ar
51    24    59    1
52    25    26    ar
53    25    60    1
54    26    27    1
55    26    32    ar
56    27    28    ar
57    27    29    ar
58    28    61    1
59    28    62    1
60    29    30    1
61    29    31    1
62    32    33    ar
63    32    63    1
64    33    64    1
65    34    35    1
66    34    65    1
67    34    66    1
68    35    67    1
69    35    68    1
70    36    37    ar
71    36    69    1
72    37    70    1
@<TRIPOS>SUBSTRUCTURE
1   ZINC000003986719 1     RESIDUE    1   A     ZIN   1
