@<TRIPOS>MOLECULE
ZINC000098208742
52    57    1     0     0
SMALL
USER_CHARGES
@<TRIPOS>ATOM
1      C1      0.0440    1.3005    0.5820 C.2      1 ZINC000098208742    0.0200
2      C2      1.3018    1.7586    0.3768 C.2      1 ZINC000098208742   -0.0600
3      N3      2.0847    0.6763    0.1153 N.pl3    1 ZINC000098208742   -0.3300
4      C4      3.4154    0.5204   -0.1644 C.2      1 ZINC000098208742   -0.0500
5      C5      3.9187   -0.7230   -0.3861 C.2      1 ZINC000098208742    0.1700
6      C6      5.3616   -0.8826   -0.6879 C.ar     1 ZINC000098208742    0.0000
7      C7      5.8673   -2.1434   -0.9176 C.ar     1 ZINC000098208742   -0.0500
8      C8      7.2386   -2.2975   -1.2047 C.ar     1 ZINC000098208742    0.1000
9      N9      8.0202   -3.3306   -1.4655 N.2      1 ZINC000098208742   -0.3000
10     N10     9.3251   -2.8707   -1.6764 N.pl3    1 ZINC000098208742   -0.4200
11     C11     9.3665   -1.5373   -1.5476 C.2      1 ZINC000098208742    0.0900
12     C12     8.0903   -1.0984   -1.2499 C.ar     1 ZINC000098208742   -0.2100
13     C13     7.5090    0.1654   -1.0046 C.ar     1 ZINC000098208742   -0.0400
14     C14     6.1850    0.2578   -0.7395 C.ar     1 ZINC000098208742   -0.1400
15     N15     3.1294   -1.8107   -0.3356 N.2      1 ZINC000098208742   -0.5300
16     C16     1.8439   -1.7078   -0.0701 C.2      1 ZINC000098208742    0.4800
17     N17     1.0499   -2.8427   -0.0228 N.pl3    1 ZINC000098208742   -0.6300
18     C18     1.6328   -4.1103   -0.1404 C.ar     1 ZINC000098208742    0.1300
19     C19     2.8673   -4.3639    0.4432 C.ar     1 ZINC000098208742   -0.0800
20     C20     3.4421   -5.6138    0.3272 C.ar     1 ZINC000098208742   -0.1200
21     C21     2.7858   -6.6176   -0.3731 C.ar     1 ZINC000098208742    0.1000
22     N22     3.3685   -7.8846   -0.4907 N.3      1 ZINC000098208742   -0.4900
23     C23     4.7076   -7.7950   -1.0907 C.3      1 ZINC000098208742    0.0200
24     C24     5.3308   -9.1923   -1.1456 C.3      1 ZINC000098208742    0.0600
25     O25     4.4668  -10.0657   -1.8777 O.3      1 ZINC000098208742   -0.3800
26     C26     3.1543  -10.1770   -1.3207 C.3      1 ZINC000098208742    0.0600
27     C27     2.5090   -8.7897   -1.2676 C.3      1 ZINC000098208742    0.0100
28     C28     1.5512   -6.3643   -0.9564 C.ar     1 ZINC000098208742   -0.1500
29     C29     0.9739   -5.1158   -0.8359 C.ar     1 ZINC000098208742   -0.1100
30     C30     1.2753   -0.4300    0.1680 C.2      1 ZINC000098208742    0.1400
31     N31     0.0490   -0.0267    0.4511 N.2      1 ZINC000098208742   -0.4600
32     H32    -0.8178    1.9077    0.8168 H        1 ZINC000098208742    0.1900
33     H33     1.6232    2.7891    0.4134 H        1 ZINC000098208742    0.1900
34     H34     4.0639    1.3829   -0.2092 H        1 ZINC000098208742    0.1700
35     H35     5.2188   -3.0061   -0.8776 H        1 ZINC000098208742    0.1400
36     H36    10.0869   -3.4338   -1.8847 H        1 ZINC000098208742    0.4500
37     H37    10.2427   -0.9155   -1.6570 H        1 ZINC000098208742    0.1900
38     H38     8.1187    1.0564   -1.0337 H        1 ZINC000098208742    0.1300
39     H39     5.7516    1.2294   -0.5535 H        1 ZINC000098208742    0.1300
40     H40     0.0903   -2.7589    0.0917 H        1 ZINC000098208742    0.4300
41     H41     3.3778   -3.5832    0.9876 H        1 ZINC000098208742    0.1300
42     H42     4.4022   -5.8109    0.7808 H        1 ZINC000098208742    0.1300
43     H43     4.6278   -7.3921   -2.1004 H        1 ZINC000098208742    0.0500
44     H44     5.3346   -7.1404   -0.4854 H        1 ZINC000098208742    0.0900
45     H45     6.3000   -9.1394   -1.6416 H        1 ZINC000098208742    0.1000
46     H46     5.4600   -9.5733   -0.1326 H        1 ZINC000098208742    0.0600
47     H47     2.5494  -10.8362   -1.9433 H        1 ZINC000098208742    0.1000
48     H48     3.2202  -10.5866   -0.3128 H        1 ZINC000098208742    0.0600
49     H49     1.5312   -8.8611   -0.7914 H        1 ZINC000098208742    0.0900
50     H50     2.3941   -8.4027   -2.2801 H        1 ZINC000098208742    0.0600
51     H51     1.0409   -7.1449   -1.5010 H        1 ZINC000098208742    0.1300
52     H52     0.0136   -4.9189   -1.2892 H        1 ZINC000098208742    0.1300
@<TRIPOS>BOND
1     1     31    1
2     1     2     2
3     1     32    1
4     2     3     1
5     2     33    1
6     3     30    1
7     3     4     1
8     4     5     2
9     4     34    1
10    5     6     1
11    5     15    1
12    6     14    ar
13    6     7     ar
14    7     8     ar
15    7     35    1
16    8     12    ar
17    8     9     2
18    9     10    1
19    10    11    1
20    10    36    1
21    11    12    2
22    11    37    1
23    12    13    ar
24    13    14    ar
25    13    38    1
26    14    39    1
27    15    16    2
28    16    17    1
29    16    30    1
30    17    18    1
31    17    40    1
32    18    29    ar
33    18    19    ar
34    19    20    ar
35    19    41    1
36    20    21    ar
37    20    42    1
38    21    22    1
39    21    28    ar
40    22    27    1
41    22    23    1
42    23    24    1
43    23    43    1
44    23    44    1
45    24    25    1
46    24    45    1
47    24    46    1
48    25    26    1
49    26    27    1
50    26    47    1
51    26    48    1
52    27    49    1
53    27    50    1
54    28    29    ar
55    28    51    1
56    29    52    1
57    30    31    2
@<TRIPOS>SUBSTRUCTURE
1   ZINC000098208742 1     RESIDUE    1   A     ZIN   1
