@<TRIPOS>MOLECULE
ZINC000000022315
  37   38    0    0    0
SMALL
USER_CHARGES
NO_NAME
@<TRIPOS>ATOM
    1 C1       -1.5073     1.3512     1.4843 C.3    1 <0>      -0.1400
    2 C2       -1.3902    -0.1442     1.3384 C.2    1 <0>       0.4700
    3 O3       -1.4996    -0.8562     2.3085 O.2    1 <0>      -0.5000
    4 O4       -1.1643    -0.6854     0.1302 O.3    1 <0>      -0.2900
    5 C5       -0.9645    -2.0269     0.0836 C.ar   1 <0>       0.1500
    6 C6        0.3220    -2.5412     0.1295 C.ar   1 <0>      -0.1300
    7 C7        0.5241    -3.9068     0.0815 C.ar   1 <0>      -0.0600
    8 C8       -0.5535    -4.7717    -0.0126 C.ar   1 <0>      -0.1300
    9 C9       -1.8396    -4.2780    -0.0589 C.ar   1 <0>      -0.0500
   10 C10      -2.0586    -2.8993    -0.0054 C.ar   1 <0>      -0.1400
   11 C11      -3.4315    -2.3641    -0.0540 C.2    1 <0>       0.5100
   12 O12      -3.6180    -1.1642    -0.0072 O.2    1 <0>      -0.4800
   13 O13      -4.4797    -3.2056    -0.1503 O.3    1 <0>      -0.2900
   14 C14      -5.7086    -2.6455    -0.3034 C.ar   1 <0>       0.0900
   15 C15      -6.0209    -1.9637    -1.4704 C.ar   1 <0>      -0.1000
   16 C16      -7.2708    -1.3952    -1.6235 C.ar   1 <0>      -0.1000
   17 C17      -8.2097    -1.5050    -0.6147 C.ar   1 <0>      -0.0800
   18 C18      -7.9007    -2.1838     0.5498 C.ar   1 <0>      -0.0900
   19 C19      -8.9266    -2.3016     1.6474 C.3    1 <0>       0.0700
   20 O20      -9.7045    -3.4835     1.4475 O.3    1 <0>      -0.2100
   21 N21     -10.7031    -3.6889     2.4302 N.pl3  1 <0>       0.1200
   22 O22     -10.8352    -2.8903     3.3403 O.2    1 <0>      -0.1300
   23 O23     -11.4299    -4.6641     2.3653 O.2    1 <0>      -0.0700
   24 C24      -6.6549    -2.7596     0.7051 C.ar   1 <0>      -0.0900
   25 H25      -1.6890     1.6012     2.5295 H      1 <0>       0.1100
   26 H26      -0.5815     1.8220     1.1537 H      1 <0>       0.1000
   27 H27      -2.3360     1.7119     0.8750 H      1 <0>       0.1100
   28 H28       1.1675    -1.8732     0.2026 H      1 <0>       0.1400
   29 H29       1.5284    -4.3024     0.1173 H      1 <0>       0.1400
   30 H30      -0.3853    -5.8379    -0.0502 H      1 <0>       0.1400
   31 H31      -2.6769    -4.9561    -0.1327 H      1 <0>       0.1500
   32 H32      -5.2875    -1.8770    -2.2584 H      1 <0>       0.1400
   33 H33      -7.5144    -0.8643    -2.5319 H      1 <0>       0.1400
   34 H34      -9.1861    -1.0597    -0.7362 H      1 <0>       0.1400
   35 H35      -8.4220    -2.3576     2.6119 H      1 <0>       0.1000
   36 H36      -9.5799    -1.4293     1.6292 H      1 <0>       0.1000
   37 H37      -6.4141    -3.2900     1.6146 H      1 <0>       0.1400
@<TRIPOS>BOND
   1    1    2 1
   2    1   25 1
   3    1   26 1
   4    1   27 1
   5    2    3 2
   6    2    4 1
   7    4    5 1
   8    5   10 ar
   9    5    6 ar
  10    6    7 ar
  11    6   28 1
  12    7    8 ar
  13    7   29 1
  14    8    9 ar
  15    8   30 1
  16    9   10 ar
  17    9   31 1
  18   10   11 1
  19   11   12 2
  20   11   13 1
  21   13   14 1
  22   14   24 ar
  23   14   15 ar
  24   15   16 ar
  25   15   32 1
  26   16   17 ar
  27   16   33 1
  28   17   18 ar
  29   17   34 1
  30   18   19 1
  31   18   24 ar
  32   19   20 1
  33   19   35 1
  34   19   36 1
  35   20   21 1
  36   21   22 2
  37   21   23 2
  38   24   37 1
