@<TRIPOS>MOLECULE
ZINC000168212088
85    90    1     0     0
SMALL
USER_CHARGES
@<TRIPOS>ATOM
1      C1      0.8305   -0.1767    1.2061 C.3      1 ZINC000168212088   -0.1900
2      C2     -0.0066    0.1386   -0.0351 C.3      1 ZINC000168212088    0.0200
3      C3      0.7613   -0.2843   -1.2891 C.3      1 ZINC000168212088   -0.1800
4      N4     -1.2773   -0.5955    0.0318 N.4      1 ZINC000168212088   -0.3700
5      H5     -1.8092   -0.2753    0.8272 H        1 ZINC000168212088    0.4200
6      C6     -2.0450   -0.3586   -1.1980 C.3      1 ZINC000168212088   -0.0100
7      C7     -2.4523    1.1144   -1.2693 C.3      1 ZINC000168212088    0.0600
8      H8     -2.9258    1.4219   -0.3369 H        1 ZINC000168212088    0.1200
9      O9     -1.3011    1.9417   -1.5452 O.3      1 ZINC000168212088   -0.3600
10     C10    -1.8364    3.1751   -2.0724 C.3      1 ZINC000168212088    0.3300
11     H11    -2.2166    3.7999   -1.2642 H        1 ZINC000168212088    0.1300
12     N12    -0.8097    3.8935   -2.8314 N.pl3    1 ZINC000168212088   -0.4800
13     C13     0.2897    3.3441   -3.4211 C.2      1 ZINC000168212088    0.2400
14     N14     0.9876    4.2707   -4.0110 N.2      1 ZINC000168212088   -0.4400
15     C15     0.3822    5.4702   -3.8379 C.ar     1 ZINC000168212088   -0.1100
16     C16     0.6665    6.7872   -4.2365 C.ar     1 ZINC000168212088    0.5200
17     N17     1.7946    7.0724   -4.9857 N.pl3    1 ZINC000168212088   -0.8100
18     N18    -0.1734    7.7527   -3.8777 N.ar     1 ZINC000168212088   -0.5900
19     C19    -1.2524    7.4899   -3.1634 C.ar     1 ZINC000168212088    0.3800
20     N20    -1.5585    6.2723   -2.7675 N.ar     1 ZINC000168212088   -0.5600
21     C21    -0.7814    5.2418   -3.0839 C.ar     1 ZINC000168212088    0.3200
22     C22    -2.9898    2.7389   -3.0030 C.3      1 ZINC000168212088    0.0400
23     H23    -2.6405    2.6588   -4.0324 H        1 ZINC000168212088    0.0900
24     O24    -4.0792    3.6595   -2.9155 O.3      1 ZINC000168212088   -0.5200
25     C25    -3.4066    1.3515   -2.4607 C.3      1 ZINC000168212088    0.0500
26     H26    -3.2627    0.5848   -3.2220 H        1 ZINC000168212088    0.0900
27     O27    -4.7672    1.3727   -2.0242 O.3      1 ZINC000168212088   -0.5400
28     C28    -1.0059   -2.0325    0.1705 C.3      1 ZINC000168212088   -0.0200
29     H29    -0.2004   -2.3757   -0.4787 H        1 ZINC000168212088    0.1600
30     C30    -0.8595   -2.4936    1.6302 C.3      1 ZINC000168212088   -0.1400
31     C31    -2.3795   -2.7268    1.6265 C.3      1 ZINC000168212088   -0.1200
32     H32    -2.9564   -1.8504    1.9216 H        1 ZINC000168212088    0.1100
33     C33    -2.8067   -3.9960    2.3665 C.3      1 ZINC000168212088   -0.1100
34     C34    -4.3342   -4.0701    2.4122 C.3      1 ZINC000168212088   -0.0800
35     C35    -4.7549   -5.3202    3.1410 C.cat    1 ZINC000168212088    0.3900
36     N36    -4.9596   -6.4764    2.5806 N.pl3    1 ZINC000168212088   -0.4800
37     H37    -4.8646   -6.6630    1.6335 H        1 ZINC000168212088    0.4600
38     C38    -5.3259   -7.3823    3.5235 C.ar     1 ZINC000168212088    0.0500
39     C39    -5.6574   -8.7387    3.4791 C.ar     1 ZINC000168212088   -0.0800
40     C40    -5.9926   -9.3956    4.6294 C.ar     1 ZINC000168212088   -0.0200
41     C41    -6.3488  -10.8589    4.5759 C.3      1 ZINC000168212088   -0.0400
42     C42    -5.1631  -11.6526    4.0236 C.3      1 ZINC000168212088   -0.1400
43     C43    -6.6824  -11.3544    5.9845 C.3      1 ZINC000168212088   -0.1600
44     C44    -7.5626  -11.0554    3.6654 C.3      1 ZINC000168212088   -0.1500
45     C45    -6.0079   -8.7292    5.8461 C.ar     1 ZINC000168212088   -0.0600
46     C46    -5.6848   -7.3904    5.9138 C.ar     1 ZINC000168212088   -0.0800
47     C47    -5.3413   -6.7068    4.7558 C.ar     1 ZINC000168212088    0.0700
48     N48    -4.9704   -5.4055    4.4815 N.pl3    1 ZINC000168212088   -0.5300
49     C49    -2.2686   -2.9074    0.1006 C.3      1 ZINC000168212088   -0.1400
50     H50     1.7972    0.3209    1.1284 H        1 ZINC000168212088    0.1100
51     H51     0.3097    0.1782    2.0954 H        1 ZINC000168212088    0.0800
52     H52     0.9811   -1.2538    1.2788 H        1 ZINC000168212088    0.0800
53     H53    -0.2072    1.2092   -0.0757 H        1 ZINC000168212088    0.1500
54     H54     1.7435    0.1883   -1.2903 H        1 ZINC000168212088    0.1100
55     H55     0.8794   -1.3678   -1.2947 H        1 ZINC000168212088    0.0800
56     H56     0.2080    0.0255   -2.1757 H        1 ZINC000168212088    0.0800
57     H57    -1.4309   -0.6080   -2.0634 H        1 ZINC000168212088    0.1500
58     H58    -2.9385   -0.9829   -1.1945 H        1 ZINC000168212088    0.1500
59     H59     0.5443    2.2947   -3.4012 H        1 ZINC000168212088    0.2200
60     H60     2.3999    6.3590   -5.2416 H        1 ZINC000168212088    0.4200
61     H61     1.9800    7.9857   -5.2548 H        1 ZINC000168212088    0.4200
62     H62    -1.9082    8.3045   -2.8935 H        1 ZINC000168212088    0.2100
63     H63    -4.8313    3.4337   -3.4798 H        1 ZINC000168212088    0.3900
64     H64    -5.4018    1.5767   -2.7247 H        1 ZINC000168212088    0.4000
65     H65    -0.2777   -3.4085    1.7429 H        1 ZINC000168212088    0.1300
66     H66    -0.5409   -1.7020    2.3084 H        1 ZINC000168212088    0.1000
67     H67    -2.4160   -4.8697    1.8447 H        1 ZINC000168212088    0.0900
68     H68    -2.4134   -3.9738    3.3828 H        1 ZINC000168212088    0.0900
69     H69    -4.7248   -3.1964    2.9339 H        1 ZINC000168212088    0.1300
70     H70    -4.7275   -4.0923    1.3958 H        1 ZINC000168212088    0.1300
71     H71    -5.6490   -9.2671    2.5373 H        1 ZINC000168212088    0.1500
72     H72    -4.2984  -11.5126    4.6723 H        1 ZINC000168212088    0.0600
73     H73    -5.4208  -12.7110    3.9849 H        1 ZINC000168212088    0.0700
74     H74    -4.9255  -11.2996    3.0201 H        1 ZINC000168212088    0.0600
75     H75    -7.5272  -10.7890    6.3780 H        1 ZINC000168212088    0.0700
76     H76    -6.9401  -12.4128    5.9458 H        1 ZINC000168212088    0.0700
77     H77    -5.8177  -11.2145    6.6332 H        1 ZINC000168212088    0.0600
78     H78    -7.3249  -10.7024    2.6619 H        1 ZINC000168212088    0.0600
79     H79    -7.8203  -12.1138    3.6267 H        1 ZINC000168212088    0.0700
80     H80    -8.4073  -10.4899    4.0589 H        1 ZINC000168212088    0.0600
81     H81    -6.2751   -9.2626    6.7464 H        1 ZINC000168212088    0.1600
82     H82    -5.6989   -6.8762    6.8634 H        1 ZINC000168212088    0.1600
83     H83    -4.8810   -4.6854    5.1252 H        1 ZINC000168212088    0.4600
84     H84    -3.0877   -2.4496   -0.4539 H        1 ZINC000168212088    0.1000
85     H85    -2.0721   -3.9353   -0.2042 H        1 ZINC000168212088    0.1300
@<TRIPOS>BOND
1     1     2     1
2     1     50    1
3     1     51    1
4     1     52    1
5     2     3     1
6     2     4     1
7     2     53    1
8     3     54    1
9     3     55    1
10    3     56    1
11    4     5     1
12    4     6     1
13    4     28    1
14    6     7     1
15    6     57    1
16    6     58    1
17    7     8     1
18    7     25    1
19    7     9     1
20    9     10    1
21    10    11    1
22    10    12    1
23    10    22    1
24    12    21    1
25    12    13    1
26    13    14    2
27    13    59    1
28    14    15    1
29    15    21    ar
30    15    16    ar
31    16    17    1
32    16    18    ar
33    17    60    1
34    17    61    1
35    18    19    ar
36    19    20    ar
37    19    62    1
38    20    21    ar
39    22    23    1
40    22    24    1
41    22    25    1
42    24    63    1
43    25    26    1
44    25    27    1
45    27    64    1
46    28    29    1
47    28    49    1
48    28    30    1
49    30    31    1
50    30    65    1
51    30    66    1
52    31    32    1
53    31    33    1
54    31    49    1
55    33    34    1
56    33    67    1
57    33    68    1
58    34    35    1
59    34    69    1
60    34    70    1
61    35    48    ar
62    35    36    ar
63    36    37    1
64    36    38    1
65    38    47    ar
66    38    39    ar
67    39    40    ar
68    39    71    1
69    40    41    1
70    40    45    ar
71    41    42    1
72    41    43    1
73    41    44    1
74    42    72    1
75    42    73    1
76    42    74    1
77    43    75    1
78    43    76    1
79    43    77    1
80    44    78    1
81    44    79    1
82    44    80    1
83    45    46    ar
84    45    81    1
85    46    47    ar
86    46    82    1
87    47    48    1
88    48    83    1
89    49    84    1
90    49    85    1
@<TRIPOS>SUBSTRUCTURE
1   ZINC000168212088 1     RESIDUE    1   A     ZIN   1
