@<TRIPOS>MOLECULE
ZINC000000538498
  54   57    0    0    0
SMALL
USER_CHARGES
NO_NAME
@<TRIPOS>ATOM
    1 C1       -0.0178     1.4648     0.0101 C.3    1 <0>       0.0200
    2 N2        0.0021    -0.0041     0.0020 N.3    1 <0>      -0.5300
    3 C3        0.7062    -0.5275     1.1802 C.3    1 <0>       0.0300
    4 C4       -1.3597    -0.5486    -0.0825 C.3    1 <0>       0.0600
    5 C5       -1.9710    -0.1854    -1.4372 C.3    1 <0>       0.0600
    6 O6       -1.2392    -0.8339    -2.4793 O.3    1 <0>      -0.2500
    7 C7       -1.6553    -0.6149    -3.7532 C.ar   1 <0>       0.1700
    8 C8       -2.7406     0.2105    -3.9981 C.ar   1 <0>      -0.2100
    9 C9       -3.1633     0.4327    -5.2953 C.ar   1 <0>      -0.0700
   10 C10      -2.5073    -0.1656    -6.3570 C.ar   1 <0>      -0.1600
   11 C11      -1.4246    -0.9899    -6.1301 C.ar   1 <0>      -0.0700
   12 C12      -0.9854    -1.2182    -4.8254 C.ar   1 <0>      -0.0600
   13 C13       0.1733    -2.0997    -4.5756 C.2    1 <0>       0.2600
   14 N14       0.6689    -2.3900    -3.3938 N.2    1 <0>      -0.4200
   15 C15       1.7168    -3.2176    -3.5367 C.2    1 <0>       0.0700
   16 C16       2.5452    -3.7750    -2.4421 C.ar   1 <0>       0.0000
   17 C17       3.0679    -5.0638    -2.5464 C.ar   1 <0>      -0.1000
   18 C18       3.8387    -5.5774    -1.5236 C.ar   1 <0>      -0.1200
   19 C19       4.0928    -4.8169    -0.3962 C.ar   1 <0>      -0.1200
   20 C20       3.5767    -3.5380    -0.2868 C.ar   1 <0>      -0.1200
   21 C21       2.8101    -3.0110    -1.3059 C.ar   1 <0>      -0.0900
   22 C22       1.8839    -3.4574    -4.8900 C.2    1 <0>       0.0300
   23 C23       2.9132    -4.3098    -5.5163 C.ar   1 <0>      -0.0200
   24 C24       4.2422    -4.2309    -5.0931 C.ar   1 <0>      -0.0900
   25 C25       5.1989    -5.0305    -5.6830 C.ar   1 <0>      -0.1200
   26 C26       4.8449    -5.9089    -6.6919 C.ar   1 <0>      -0.1100
   27 C27       3.5303    -5.9923    -7.1161 C.ar   1 <0>      -0.1200
   28 C28       2.5621    -5.2033    -6.5311 C.ar   1 <0>      -0.1100
   29 N29       0.8966    -2.7477    -5.5354 N.pl3  1 <0>      -0.5600
   30 H30       1.0047     1.8421     0.0024 H      1 <0>       0.0700
   31 H31      -0.5450     1.8259    -0.8730 H      1 <0>       0.0700
   32 H32      -0.5280     1.8163     0.9069 H      1 <0>       0.0200
   33 H33       0.1617    -0.2488     2.0824 H      1 <0>       0.0200
   34 H34       0.7676    -1.6137     1.1140 H      1 <0>       0.0700
   35 H35       1.7116    -0.1084     1.2186 H      1 <0>       0.0700
   36 H36      -1.3244    -1.6331     0.0212 H      1 <0>       0.0900
   37 H37      -1.9698    -0.1268     0.7163 H      1 <0>       0.0500
   38 H38      -3.0106    -0.5117    -1.4659 H      1 <0>       0.0600
   39 H39      -1.9251     0.8944    -1.5788 H      1 <0>       0.0600
   40 H40      -3.2572     0.6807    -3.1745 H      1 <0>       0.1300
   41 H41      -4.0103     1.0764    -5.4813 H      1 <0>       0.1300
   42 H42      -2.8446     0.0133    -7.3673 H      1 <0>       0.1300
   43 H43      -0.9156    -1.4553    -6.9612 H      1 <0>       0.1200
   44 H44       2.8696    -5.6586    -3.4257 H      1 <0>       0.1200
   45 H45       4.2440    -6.5753    -1.6032 H      1 <0>       0.1200
   46 H46       4.6964    -5.2234     0.4019 H      1 <0>       0.1200
   47 H47       3.7782    -2.9492     0.5958 H      1 <0>       0.1200
   48 H48       2.4077    -2.0125    -1.2194 H      1 <0>       0.1300
   49 H49       4.5200    -3.5453    -4.3063 H      1 <0>       0.1300
   50 H50       6.2267    -4.9706    -5.3569 H      1 <0>       0.1300
   51 H51       5.5982    -6.5321    -7.1507 H      1 <0>       0.1200
   52 H52       3.2612    -6.6801    -7.9041 H      1 <0>       0.1300
   53 H53       1.5365    -5.2694    -6.8631 H      1 <0>       0.1200
   54 H54       0.7463    -2.7106    -6.4929 H      1 <0>       0.4200
@<TRIPOS>BOND
   1    1    2 1
   2    1   30 1
   3    1   31 1
   4    1   32 1
   5    2    3 1
   6    2    4 1
   7    3   33 1
   8    3   34 1
   9    3   35 1
  10    4    5 1
  11    4   36 1
  12    4   37 1
  13    5    6 1
  14    5   38 1
  15    5   39 1
  16    6    7 1
  17    7   12 ar
  18    7    8 ar
  19    8    9 ar
  20    8   40 1
  21    9   10 ar
  22    9   41 1
  23   10   11 ar
  24   10   42 1
  25   11   12 ar
  26   11   43 1
  27   12   13 1
  28   13   29 1
  29   13   14 2
  30   14   15 1
  31   15   16 1
  32   15   22 2
  33   16   21 ar
  34   16   17 ar
  35   17   18 ar
  36   17   44 1
  37   18   19 ar
  38   18   45 1
  39   19   20 ar
  40   19   46 1
  41   20   21 ar
  42   20   47 1
  43   21   48 1
  44   22   23 1
  45   22   29 1
  46   23   28 ar
  47   23   24 ar
  48   24   25 ar
  49   24   49 1
  50   25   26 ar
  51   25   50 1
  52   26   27 ar
  53   26   51 1
  54   27   28 ar
  55   27   52 1
  56   28   53 1
  57   29   54 1
