@<TRIPOS>MOLECULE
ZINC000095627912
  31   32    0    0    0
SMALL
USER_CHARGES
NO_NAME
@<TRIPOS>ATOM
    1 C1        0.0180    -1.1779    -0.0044 C.1    1 <0>      -0.1100
    2 C2        0.0021    -0.0041     0.0020 C.1    1 <0>      -0.1600
    3 C3       -0.0173     1.4278     0.0099 C.ar   1 <0>       0.2000
    4 C4       -1.2351     2.1083     0.0310 C.ar   1 <0>       0.1000
    5 N5       -1.2576     3.4290     0.0388 N.ar   1 <0>      -0.4200
    6 C6       -0.1226     4.1102     0.0265 C.ar   1 <0>       0.2600
    7 N7        0.1721     5.4661     0.0300 N.am   1 <0>      -0.6200
    8 C8        1.5103     5.6102     0.0118 C.2    1 <0>       0.7000
    9 O9        2.0997     6.6746     0.0098 O.2    1 <0>      -0.5200
   10 N10       2.0983     4.3994    -0.0034 N.am   1 <0>      -0.5100
   11 C11       3.5413     4.1474    -0.0257 C.3    1 <0>       0.1600
   12 C12       4.1495     4.7765    -1.2808 C.3    1 <0>      -0.1400
   13 C13       3.5967     4.0740    -2.5225 C.3    1 <0>      -0.1500
   14 C14       4.1860     4.7639     1.2174 C.3    1 <0>      -0.1400
   15 C15       3.6695     4.0488     2.4676 C.3    1 <0>      -0.1500
   16 C16       1.1047     3.4303     0.0053 C.ar   1 <0>       0.2800
   17 N17       1.1279     2.1093     0.0026 N.ar   1 <0>      -0.4200
   18 H18       0.0322    -2.2278    -0.0102 H      1 <0>       0.2300
   19 H19      -2.1618     1.5538     0.0407 H      1 <0>       0.1900
   20 H20      -0.4761     6.1875     0.0432 H      1 <0>       0.4400
   21 H21       3.7224     3.0726    -0.0338 H      1 <0>       0.1100
   22 H22       3.8926     5.8351    -1.3176 H      1 <0>       0.0800
   23 H23       5.2336     4.6665    -1.2535 H      1 <0>       0.0900
   24 H24       4.0300     4.5222    -3.4166 H      1 <0>       0.0600
   25 H25       3.8537     3.0154    -2.4856 H      1 <0>       0.0600
   26 H26       2.5126     4.1841    -2.5498 H      1 <0>       0.0500
   27 H27       5.2688     4.6543     1.1574 H      1 <0>       0.0900
   28 H28       3.9304     5.8220     1.2724 H      1 <0>       0.0800
   29 H29       2.5867     4.1584     2.5276 H      1 <0>       0.0500
   30 H30       3.9251     2.9906     2.4126 H      1 <0>       0.0600
   31 H31       4.1288     4.4880     3.3532 H      1 <0>       0.0600
@<TRIPOS>BOND
   1    1    2 3
   2    1   18 1
   3    2    3 1
   4    3   17 ar
   5    3    4 ar
   6    4    5 ar
   7    4   19 1
   8    5    6 ar
   9    6   16 ar
  10    6    7 1
  11    7    8 am
  12    7   20 1
  13    8    9 2
  14    8   10 am
  15   10   11 1
  16   10   16 1
  17   11   12 1
  18   11   14 1
  19   11   21 1
  20   12   13 1
  21   12   22 1
  22   12   23 1
  23   13   24 1
  24   13   25 1
  25   13   26 1
  26   14   15 1
  27   14   27 1
  28   14   28 1
  29   15   29 1
  30   15   30 1
  31   15   31 1
  32   16   17 ar
