@<TRIPOS>MOLECULE
ZINC000021983255
60    63    1     0     0
SMALL
USER_CHARGES
@<TRIPOS>ATOM
1      C1     -0.0178    1.4648    0.0101 C.3      1 ZINC000021983255    0.0200
2      N2      0.0021   -0.0041    0.0020 N.3      1 ZINC000021983255   -0.5500
3      C3     -1.3604   -0.5488   -0.0788 C.3      1 ZINC000021983255    0.0600
4      C4     -1.2923   -2.0754   -0.1650 C.3      1 ZINC000021983255    0.0600
5      N5     -0.5880   -2.5990    1.0137 N.3      1 ZINC000021983255   -0.5400
6      C6     -0.5680   -4.0678    1.0056 C.3      1 ZINC000021983255    0.0600
7      C7     -0.0549   -4.5783    2.3536 C.3      1 ZINC000021983255   -0.1100
8      C8     -0.0341   -6.1082    2.3452 C.3      1 ZINC000021983255   -0.1300
9      C9      0.4790   -6.6187    3.6931 C.3      1 ZINC000021983255    0.1200
10     N10     0.4989   -8.0835    3.6851 N.am     1 ZINC000021983255   -0.5700
11     C11    -0.5366   -8.8568    4.0671 C.2      1 ZINC000021983255    0.5300
12     O12    -1.6192   -8.4857    4.4672 O.2      1 ZINC000021983255   -0.4500
13     C13    -0.0665  -10.2872    3.8918 C.3      1 ZINC000021983255    0.0900
14     N14     1.3083  -10.1399    3.3836 N.am     1 ZINC000021983255   -0.4800
15     N15     2.1943  -11.1741    3.0542 N.2      1 ZINC000021983255   -0.2000
16     C16     3.3865  -10.8940    2.6138 C.2      1 ZINC000021983255    0.1500
17     C17     4.3126  -11.9750    2.2695 C.2      1 ZINC000021983255    0.0200
18     C18     5.5886  -11.8186    1.8037 C.2      1 ZINC000021983255   -0.1400
19     C19     6.1111  -13.1036    1.6059 C.2      1 ZINC000021983255   -0.1900
20     C20     5.1361  -13.9895    1.9578 C.2      1 ZINC000021983255    0.0500
21     C21     5.2483  -15.4607    1.9091 C.ar     1 ZINC000021983255   -0.0200
22     C22     6.4345  -16.0597    1.4784 C.ar     1 ZINC000021983255   -0.0800
23     C23     6.5329  -17.4346    1.4351 C.ar     1 ZINC000021983255   -0.1100
24     C24     5.4589  -18.2210    1.8176 C.ar     1 ZINC000021983255   -0.0300
25     Cl25    5.5909  -19.9511    1.7602 Cl       1 ZINC000021983255   -0.0600
26     C26     4.2803  -17.6333    2.2460 C.ar     1 ZINC000021983255   -0.1100
27     C27     4.1708  -16.2596    2.2989 C.ar     1 ZINC000021983255   -0.0900
28     O28     4.0552  -13.2953    2.3629 O.3      1 ZINC000021983255   -0.1500
29     C29     1.5453   -8.8189    3.2921 C.2      1 ZINC000021983255    0.6800
30     O30     2.5954   -8.3460    2.9029 O.2      1 ZINC000021983255   -0.5400
31     C31     0.7745   -2.0543    1.0946 C.3      1 ZINC000021983255    0.0500
32     C32     0.7064   -0.5277    1.1807 C.3      1 ZINC000021983255    0.0600
33     H33     1.0047    1.8421    0.0024 H        1 ZINC000021983255    0.0700
34     H34    -0.5450    1.8259   -0.8730 H        1 ZINC000021983255    0.0700
35     H35    -0.5280    1.8163    0.9069 H        1 ZINC000021983255    0.0300
36     H36    -1.9211   -0.2594    0.8100 H        1 ZINC000021983255    0.0400
37     H37    -1.8569   -0.1563   -0.9662 H        1 ZINC000021983255    0.0800
38     H38    -2.3026   -2.4833   -0.1958 H        1 ZINC000021983255    0.0800
39     H39    -0.7551   -2.3650   -1.0681 H        1 ZINC000021983255    0.0400
40     H40    -1.5767   -4.4440    0.8348 H        1 ZINC000021983255    0.0800
41     H41     0.0899   -4.4179    0.2102 H        1 ZINC000021983255    0.0400
42     H42     0.9538   -4.2022    2.5244 H        1 ZINC000021983255    0.0700
43     H43    -0.7128   -4.2283    3.1490 H        1 ZINC000021983255    0.0800
44     H44    -1.0428   -6.4843    2.1743 H        1 ZINC000021983255    0.0700
45     H45     0.6238   -6.4583    1.5497 H        1 ZINC000021983255    0.0700
46     H46     1.4877   -6.2426    3.8640 H        1 ZINC000021983255    0.1000
47     H47    -0.1789   -6.2686    4.4886 H        1 ZINC000021983255    0.1000
48     H48    -0.0680  -10.8113    4.8475 H        1 ZINC000021983255    0.1400
49     H49    -0.6897  -10.8095    3.1659 H        1 ZINC000021983255    0.1400
50     H50     3.6929   -9.8644    2.5023 H        1 ZINC000021983255    0.1900
51     H51     6.0967  -10.8829    1.6225 H        1 ZINC000021983255    0.1600
52     H52     7.0989  -13.3464    1.2429 H        1 ZINC000021983255    0.1600
53     H53     7.2725  -15.4475    1.1796 H        1 ZINC000021983255    0.1400
54     H54     7.4493  -17.8990    1.1020 H        1 ZINC000021983255    0.1400
55     H55     3.4466  -18.2522    2.5432 H        1 ZINC000021983255    0.1400
56     H56     3.2512  -15.8025    2.6331 H        1 ZINC000021983255    0.1400
57     H57     1.2710   -2.4468    1.9820 H        1 ZINC000021983255    0.0800
58     H58     1.3352   -2.3437    0.2058 H        1 ZINC000021983255    0.0400
59     H59     1.7168   -0.1198    1.2116 H        1 ZINC000021983255    0.0800
60     H60     0.1692   -0.2380    2.0838 H        1 ZINC000021983255    0.0400
@<TRIPOS>BOND
1     1     2     1
2     1     33    1
3     1     34    1
4     1     35    1
5     2     32    1
6     2     3     1
7     3     4     1
8     3     36    1
9     3     37    1
10    4     5     1
11    4     38    1
12    4     39    1
13    5     6     1
14    5     31    1
15    6     7     1
16    6     40    1
17    6     41    1
18    7     8     1
19    7     42    1
20    7     43    1
21    8     9     1
22    8     44    1
23    8     45    1
24    9     10    1
25    9     46    1
26    9     47    1
27    10    29    am
28    10    11    am
29    11    12    2
30    11    13    1
31    13    14    1
32    13    48    1
33    13    49    1
34    14    15    1
35    14    29    am
36    15    16    2
37    16    17    1
38    16    50    1
39    17    28    1
40    17    18    2
41    18    19    1
42    18    51    1
43    19    20    2
44    19    52    1
45    20    21    1
46    20    28    1
47    21    27    ar
48    21    22    ar
49    22    23    ar
50    22    53    1
51    23    24    ar
52    23    54    1
53    24    25    1
54    24    26    ar
55    26    27    ar
56    26    55    1
57    27    56    1
58    29    30    2
59    31    32    1
60    31    57    1
61    31    58    1
62    32    59    1
63    32    60    1
@<TRIPOS>SUBSTRUCTURE
1   ZINC000021983255 1     RESIDUE    1   A     ZIN   1
