@<TRIPOS>MOLECULE
ZINC000006091380
27    28    1     0     0
SMALL
USER_CHARGES
@<TRIPOS>ATOM
1      O1      0.0021   -0.0041    0.0020 O.2      1 ZINC000006091380   -0.4900
2      C2     -0.0145    1.2154    0.0087 C.2      1 ZINC000006091380    0.6300
3      N3     -1.1850    1.8573    0.0289 N.2      1 ZINC000006091380   -0.5300
4      C4     -1.2329    3.1740    0.0365 C.2      1 ZINC000006091380    0.2800
5      C5     -0.0459    3.9133    0.0235 C.2      1 ZINC000006091380   -0.2800
6      I6     -0.0988    6.0076    0.0360 I        1 ZINC000006091380    0.0200
7      C7      1.1438    3.2534    0.0030 C.2      1 ZINC000006091380    0.2300
8      N8      1.1478    1.8945    0.0013 N.am     1 ZINC000006091380   -0.5100
9      C9      2.4193    1.1672   -0.0207 C.3      1 ZINC000006091380    0.2800
10     H10     3.2512    1.8621   -0.1352 H        1 ZINC000006091380    0.1200
11     C11     2.5863    0.3368    1.2712 C.3      1 ZINC000006091380   -0.1900
12     C12     3.2753   -0.9620    0.7962 C.3      1 ZINC000006091380    0.0900
13     H13     2.6436   -1.8264    1.0009 H        1 ZINC000006091380    0.0900
14     O14     4.5484   -1.1131    1.4276 O.3      1 ZINC000006091380   -0.5600
15     C15     3.4432   -0.7627   -0.7264 C.3      1 ZINC000006091380    0.0900
16     H16     4.4332   -0.3651   -0.9502 H        1 ZINC000006091380    0.1000
17     C17     3.2221   -2.0846   -1.4643 C.3      1 ZINC000006091380    0.0800
18     O18     3.4953   -1.9052   -2.8554 O.3      1 ZINC000006091380   -0.5700
19     O19     2.4247    0.1961   -1.0897 O.3      1 ZINC000006091380   -0.3400
20     H20    -2.1864    3.6810    0.0525 H        1 ZINC000006091380    0.1800
21     H21     2.0736    3.8028   -0.0074 H        1 ZINC000006091380    0.1800
22     H22     3.2177    0.8648    1.9857 H        1 ZINC000006091380    0.1000
23     H23     1.6139    0.1145    1.7106 H        1 ZINC000006091380    0.1000
24     H24     4.5038   -1.1827    2.3910 H        1 ZINC000006091380    0.3900
25     H25     3.8902   -2.8438   -1.0577 H        1 ZINC000006091380    0.0700
26     H26     2.1879   -2.4041   -1.3354 H        1 ZINC000006091380    0.0600
27     H27     3.3754   -2.7046   -3.3861 H        1 ZINC000006091380    0.3900
@<TRIPOS>BOND
1     1     2     2
2     2     8     am
3     2     3     1
4     3     4     2
5     4     5     1
6     4     20    1
7     5     6     1
8     5     7     2
9     7     8     1
10    7     21    1
11    8     9     1
12    9     10    1
13    9     19    1
14    9     11    1
15    11    12    1
16    11    22    1
17    11    23    1
18    12    13    1
19    12    14    1
20    12    15    1
21    14    24    1
22    15    16    1
23    15    17    1
24    15    19    1
25    17    18    1
26    17    25    1
27    17    26    1
28    18    27    1
@<TRIPOS>SUBSTRUCTURE
1   ZINC000006091380 1     RESIDUE    1   A     ZIN   1
