@<TRIPOS>MOLECULE
ZINC000003811952
46    49    1     0     0
SMALL
USER_CHARGES
@<TRIPOS>ATOM
1      N1     -4.8709   -3.0056    1.3910 N.am     1 ZINC000003811952   -0.8500
2      C2     -3.6963   -3.4043    0.8638 C.2      1 ZINC000003811952    0.5600
3      O3     -2.8321   -3.8654    1.5838 O.2      1 ZINC000003811952   -0.5200
4      C4     -3.4591   -3.2810   -0.5892 C.ar     1 ZINC000003811952   -0.1200
5      C5     -4.4489   -2.7467   -1.4139 C.ar     1 ZINC000003811952   -0.0800
6      C6     -4.2242   -2.6322   -2.7700 C.ar     1 ZINC000003811952   -0.1300
7      C7     -3.0196   -3.0444   -3.3106 C.ar     1 ZINC000003811952    0.1000
8      F8     -2.8062   -2.9276   -4.6395 F        1 ZINC000003811952   -0.1200
9      C9     -2.0230   -3.5795   -2.4935 C.ar     1 ZINC000003811952    0.0900
10     C10    -2.2390   -3.6953   -1.1361 C.ar     1 ZINC000003811952   -0.0700
11     C11    -1.1939   -4.2780   -0.2193 C.3      1 ZINC000003811952   -0.0800
12     C12     0.1693   -4.2634   -0.9154 C.3      1 ZINC000003811952    0.0500
13     H13     0.5369   -3.2394   -0.9821 H        1 ZINC000003811952    0.1000
14     N14     1.1223   -5.0831   -0.1552 N.3      1 ZINC000003811952   -0.5000
15     C15     0.9311   -6.5117   -0.4386 C.3      1 ZINC000003811952    0.0400
16     C16     1.7428   -7.4368    0.4835 C.3      1 ZINC000003811952   -0.1300
17     C17     0.5093   -8.3544    0.5182 C.3      1 ZINC000003811952   -0.1400
18     C18    -0.3316   -7.1046    0.2087 C.3      1 ZINC000003811952   -0.1300
19     C19     2.5058   -4.6725   -0.4297 C.3      1 ZINC000003811952    0.0600
20     C20     2.6889   -4.0025   -1.8017 C.3      1 ZINC000003811952   -0.1900
21     C21     3.6463   -3.0202   -1.1064 C.3      1 ZINC000003811952   -0.1400
22     C22     2.8818   -3.3181    0.1942 C.3      1 ZINC000003811952   -0.1300
23     C23    -0.0039   -4.8436   -2.3249 C.3      1 ZINC000003811952    0.0200
24     O24    -0.8533   -3.9659   -3.0681 O.3      1 ZINC000003811952   -0.3000
25     H25    -5.0266   -3.0866    2.3450 H        1 ZINC000003811952    0.4100
26     H26    -5.5589   -2.6341    0.8171 H        1 ZINC000003811952    0.4000
27     H27    -5.3890   -2.4238   -0.9918 H        1 ZINC000003811952    0.1400
28     H28    -4.9901   -2.2205   -3.4106 H        1 ZINC000003811952    0.1500
29     H29    -1.1412   -3.6849    0.6938 H        1 ZINC000003811952    0.1200
30     H30    -1.4624   -5.3043    0.0308 H        1 ZINC000003811952    0.1000
31     H31     1.0321   -6.7504   -1.4974 H        1 ZINC000003811952    0.0700
32     H32     2.6085   -7.8871   -0.0021 H        1 ZINC000003811952    0.0600
33     H33     1.9822   -6.9904    1.4486 H        1 ZINC000003811952    0.0900
34     H34     0.4957   -9.0981   -0.2786 H        1 ZINC000003811952    0.0800
35     H35     0.3106   -8.7819    1.5010 H        1 ZINC000003811952    0.0700
36     H36    -0.6592   -6.5674    1.0988 H        1 ZINC000003811952    0.1000
37     H37    -1.1405   -7.2867   -0.4987 H        1 ZINC000003811952    0.0600
38     H38     3.2296   -5.4622   -0.2278 H        1 ZINC000003811952    0.1100
39     H39     3.1773   -4.6411   -2.5378 H        1 ZINC000003811952    0.0700
40     H40     1.7821   -3.5326   -2.1826 H        1 ZINC000003811952    0.1000
41     H41     4.6826   -3.3577   -1.0908 H        1 ZINC000003811952    0.0800
42     H42     3.5405   -1.9909   -1.4491 H        1 ZINC000003811952    0.0700
43     H43     2.0277   -2.6612    0.3589 H        1 ZINC000003811952    0.0800
44     H44     3.5258   -3.4042    1.0693 H        1 ZINC000003811952    0.0700
45     H45     0.9672   -4.9146   -2.8147 H        1 ZINC000003811952    0.1200
46     H46    -0.4570   -5.8330   -2.2616 H        1 ZINC000003811952    0.0700
@<TRIPOS>BOND
1     1     2     am
2     1     25    1
3     1     26    1
4     2     3     2
5     2     4     1
6     4     10    ar
7     4     5     ar
8     5     6     ar
9     5     27    1
10    6     7     ar
11    6     28    1
12    7     8     1
13    7     9     ar
14    9     24    1
15    9     10    ar
16    10    11    1
17    11    12    1
18    11    29    1
19    11    30    1
20    12    13    1
21    12    14    1
22    12    23    1
23    14    15    1
24    14    19    1
25    15    18    1
26    15    16    1
27    15    31    1
28    16    17    1
29    16    32    1
30    16    33    1
31    17    18    1
32    17    34    1
33    17    35    1
34    18    36    1
35    18    37    1
36    19    22    1
37    19    20    1
38    19    38    1
39    20    21    1
40    20    39    1
41    20    40    1
42    21    22    1
43    21    41    1
44    21    42    1
45    22    43    1
46    22    44    1
47    23    24    1
48    23    45    1
49    23    46    1
@<TRIPOS>SUBSTRUCTURE
1   ZINC000003811952 1     RESIDUE    1   A     ZIN   1
