@<TRIPOS>MOLECULE
ZINC000000003723
  30   31    0    0    0
SMALL
USER_CHARGES
NO_NAME
@<TRIPOS>ATOM
    1 C1       -0.0157     1.3058     0.0092 C.2    1 <0>      -0.1700
    2 C2        0.0021    -0.0041     0.0020 C.2    1 <0>      -0.1800
    3 C3        1.3172    -0.7397    -0.0145 C.3    1 <0>       0.1600
    4 N4        1.3674    -1.6756     1.1115 N.pl3  1 <0>      -0.5600
    5 C5        0.9078    -2.9636     0.9568 C.2    1 <0>       0.6100
    6 N6        0.9208    -3.8332     1.9138 N.2    1 <0>      -0.6200
    7 C7        0.3682    -5.1107     1.4427 C.3    1 <0>       0.0400
    8 C8        0.0062    -4.8399    -0.0312 C.3    1 <0>       0.0900
    9 N9        0.3929    -3.4318    -0.2211 N.pl3  1 <0>      -0.7600
   10 C10       1.8829    -1.2597     2.3450 C.ar   1 <0>       0.1900
   11 C11       3.2386    -1.3985     2.6156 C.ar   1 <0>      -0.0200
   12 Cl12      4.2964    -2.0883     1.4243 Cl     1 <0>      -0.0500
   13 C13       3.7442    -0.9864     3.8343 C.ar   1 <0>      -0.1000
   14 C14       2.9023    -0.4369     4.7837 C.ar   1 <0>      -0.0900
   15 C15       1.5526    -0.2972     4.5179 C.ar   1 <0>      -0.1100
   16 C16       1.0410    -0.7019     3.2991 C.ar   1 <0>      -0.0100
   17 Cl17     -0.6536    -0.5255     2.9662 Cl     1 <0>      -0.0400
   18 H18       0.9122     1.8585     0.0033 H      1 <0>       0.1000
   19 H19      -0.9582     1.8330     0.0166 H      1 <0>       0.1000
   20 H20      -0.9258    -0.5567     0.0079 H      1 <0>       0.1100
   21 H21       1.4134    -1.2911    -0.9498 H      1 <0>       0.0900
   22 H22       2.1349    -0.0241     0.0711 H      1 <0>       0.0900
   23 H23       1.1166    -5.9000     1.5135 H      1 <0>       0.0800
   24 H24      -0.5225    -5.3751     2.0126 H      1 <0>       0.0800
   25 H25       0.5763    -5.4916    -0.6933 H      1 <0>       0.0700
   26 H26      -1.0642    -4.9663    -0.1937 H      1 <0>       0.0700
   27 H27       0.3034    -2.9245    -1.0430 H      1 <0>       0.4100
   28 H28       4.7979    -1.0940     4.0454 H      1 <0>       0.1400
   29 H29       3.2999    -0.1164     5.7354 H      1 <0>       0.1400
   30 H30       0.8979     0.1320     5.2619 H      1 <0>       0.1400
@<TRIPOS>BOND
   1    1    2 2
   2    1   18 1
   3    1   19 1
   4    2    3 1
   5    2   20 1
   6    3    4 1
   7    3   21 1
   8    3   22 1
   9    4    5 1
  10    4   10 1
  11    5    9 1
  12    5    6 2
  13    6    7 1
  14    7    8 1
  15    7   23 1
  16    7   24 1
  17    8    9 1
  18    8   25 1
  19    8   26 1
  20    9   27 1
  21   10   16 ar
  22   10   11 ar
  23   11   12 1
  24   11   13 ar
  25   13   14 ar
  26   13   28 1
  27   14   15 ar
  28   14   29 1
  29   15   16 ar
  30   15   30 1
  31   16   17 1
