@<TRIPOS>MOLECULE
ZINC000004423231
  52   55    0    0    0
SMALL
USER_CHARGES
NO_NAME
@<TRIPOS>ATOM
    1 C1        0.2146     1.0726     0.3476 C.3    1 <0>      -0.1400
    2 C2        0.2696    -0.4517     0.2269 C.3    1 <0>       0.0300
    3 H3        0.8537    -0.8606     1.0514 H      1 <0>       0.1000
    4 C4        0.9149    -0.8291    -1.0816 C.2    1 <0>       0.0500
    5 N5        1.6844    -1.8576    -1.3032 N.2    1 <0>      -0.3700
    6 O6        2.0547    -1.9025    -2.4533 O.3    1 <0>       0.1300
    7 C7        1.5640    -0.8774    -3.1680 C.2    1 <0>       0.2500
    8 N8        1.7838    -0.6199    -4.5120 N.pl3  1 <0>      -0.6100
    9 C9        2.5806    -1.4643    -5.2539 C.2    1 <0>       0.6200
   10 N10       3.2094    -2.4457    -4.6715 N.2    1 <0>      -0.7800
   11 N11       2.7121    -1.2714    -6.6089 N.pl3  1 <0>      -0.6500
   12 C12       3.4515    -2.2324    -7.4427 C.3    1 <0>       0.0900
   13 C13       2.5712    -2.6123    -8.6388 C.3    1 <0>       0.0500
   14 O14       2.1218    -1.4214    -9.2895 O.3    1 <0>      -0.3700
   15 C15       1.3019    -0.5820    -8.4729 C.3    1 <0>       0.0500
   16 C16       2.1124    -0.1010    -7.2691 C.3    1 <0>       0.0800
   17 C17       0.7998    -0.1427    -2.3068 C.2    1 <0>      -0.2900
   18 C18      -1.1292    -1.0103     0.2767 C.ar   1 <0>      -0.0500
   19 C19      -2.0550    -0.6354    -0.6801 C.ar   1 <0>      -0.1100
   20 C20      -3.3382    -1.1428    -0.6403 C.ar   1 <0>      -0.0800
   21 C21      -3.7012    -2.0350     0.3660 C.ar   1 <0>      -0.0800
   22 C22      -5.0788    -2.5838     0.4134 C.ar   1 <0>      -0.0500
   23 C23      -6.1756    -1.7285     0.3291 C.ar   1 <0>      -0.1000
   24 C24      -7.4549    -2.2445     0.3738 C.ar   1 <0>      -0.1200
   25 C25      -7.6494    -3.6079     0.5023 C.ar   1 <0>      -0.1100
   26 C26      -6.5643    -4.4616     0.5868 C.ar   1 <0>      -0.1200
   27 C27      -5.2806    -3.9571     0.5365 C.ar   1 <0>      -0.1000
   28 C28      -2.7637    -2.4108     1.3292 C.ar   1 <0>       0.1100
   29 F29      -3.1081    -3.2756     2.3083 F      1 <0>      -0.1300
   30 C30      -1.4803    -1.8999     1.2757 C.ar   1 <0>      -0.1400
   31 H31       1.2263     1.4766     0.3115 H      1 <0>       0.0700
   32 H32      -0.3695     1.4815    -0.4769 H      1 <0>       0.0600
   33 H33      -0.2521     1.3456     1.2940 H      1 <0>       0.0700
   34 H34       1.3766     0.1548    -4.9302 H      1 <0>       0.4300
   35 H35       3.8304    -2.9923    -5.1780 H      1 <0>       0.3500
   36 H36       4.3756    -1.7758    -7.7973 H      1 <0>       0.0800
   37 H37       3.6822    -3.1235    -6.8589 H      1 <0>       0.0900
   38 H38       3.1495    -3.2142    -9.3398 H      1 <0>       0.1100
   39 H39       1.7108    -3.1838    -8.2906 H      1 <0>       0.0600
   40 H40       0.9669     0.2769    -9.0545 H      1 <0>       0.1100
   41 H41       0.4369    -1.1461    -8.1241 H      1 <0>       0.0600
   42 H42       1.4581     0.4211    -6.5709 H      1 <0>       0.0800
   43 H43       2.9033     0.5703    -7.6037 H      1 <0>       0.0800
   44 H44       0.2418     0.7582    -2.5151 H      1 <0>       0.1700
   45 H45      -1.7733     0.0563    -1.4602 H      1 <0>       0.1300
   46 H46      -4.0596    -0.8482    -1.3880 H      1 <0>       0.1300
   47 H47      -6.0249    -0.6637     0.2295 H      1 <0>       0.1200
   48 H48      -8.3057    -1.5825     0.3086 H      1 <0>       0.1300
   49 H49      -8.6522    -4.0074     0.5372 H      1 <0>       0.1200
   50 H50      -6.7218    -5.5253     0.6875 H      1 <0>       0.1300
   51 H51      -4.4340    -4.6245     0.6022 H      1 <0>       0.1200
   52 H52      -0.7532    -2.1893     2.0200 H      1 <0>       0.1400
@<TRIPOS>BOND
   1    1    2 1
   2    1   31 1
   3    1   32 1
   4    1   33 1
   5    2    3 1
   6    2    4 1
   7    2   18 1
   8    4   17 1
   9    4    5 2
  10    5    6 1
  11    6    7 1
  12    7    8 1
  13    7   17 2
  14    8    9 1
  15    8   34 1
  16    9   10 2
  17    9   11 1
  18   10   35 1
  19   11   16 1
  20   11   12 1
  21   12   13 1
  22   12   36 1
  23   12   37 1
  24   13   14 1
  25   13   38 1
  26   13   39 1
  27   14   15 1
  28   15   16 1
  29   15   40 1
  30   15   41 1
  31   16   42 1
  32   16   43 1
  33   17   44 1
  34   18   30 ar
  35   18   19 ar
  36   19   20 ar
  37   19   45 1
  38   20   21 ar
  39   20   46 1
  40   21   22 1
  41   21   28 ar
  42   22   27 ar
  43   22   23 ar
  44   23   24 ar
  45   23   47 1
  46   24   25 ar
  47   24   48 1
  48   25   26 ar
  49   25   49 1
  50   26   27 ar
  51   26   50 1
  52   27   51 1
  53   28   29 1
  54   28   30 ar
  55   30   52 1
