@<TRIPOS>MOLECULE
ZINC000072105034
69    72    1     0     0
SMALL
USER_CHARGES
@<TRIPOS>ATOM
1      C1    -16.7748    1.4600    7.9987 C.3      1 ZINC000072105034   -0.1600
2      C2    -16.3347    1.8979    6.6003 C.3      1 ZINC000072105034    0.0500
3      N3    -15.3434    0.9474    6.0790 N.3      1 ZINC000072105034   -0.5400
4      C4    -14.3233    0.6418    7.0918 C.3      1 ZINC000072105034    0.0500
5      C5    -13.3578   -0.4090    6.5386 C.3      1 ZINC000072105034    0.0500
6      N6    -12.7375    0.0994    5.3072 N.3      1 ZINC000072105034   -0.4900
7      C7    -11.7930   -0.8061    4.8106 C.ar     1 ZINC000072105034    0.0900
8      C8    -11.5607   -2.0024    5.4766 C.ar     1 ZINC000072105034   -0.1500
9      C9    -10.6289   -2.8957    4.9866 C.ar     1 ZINC000072105034   -0.0900
10     C10    -9.9240   -2.5980    3.8278 C.ar     1 ZINC000072105034    0.1300
11     N11    -8.9791   -3.5045    3.3304 N.pl3    1 ZINC000072105034   -0.6500
12     C12    -9.1278   -4.8623    3.5699 C.ar     1 ZINC000072105034    0.4500
13     C13    -8.1256   -5.7577    3.2062 C.ar     1 ZINC000072105034   -0.3300
14     C14    -8.3230   -7.1091    3.4680 C.ar     1 ZINC000072105034    0.4500
15     N15    -7.3519   -8.0434    3.1243 N.am     1 ZINC000072105034   -0.5500
16     C16    -6.0657   -7.5977    2.5828 C.3      1 ZINC000072105034    0.0600
17     C17    -7.5940   -9.3589    3.2895 C.2      1 ZINC000072105034    0.6900
18     O18    -8.6614   -9.7288    3.7389 O.2      1 ZINC000072105034   -0.4700
19     N19    -6.6529  -10.2643    2.9564 N.am     1 ZINC000072105034   -0.6800
20     C20    -6.9314  -11.6331    3.0571 C.ar     1 ZINC000072105034    0.2600
21     C21    -5.9791  -12.4995    3.5777 C.ar     1 ZINC000072105034   -0.1300
22     Cl22   -4.4429  -11.8861    4.1047 Cl       1 ZINC000072105034   -0.0400
23     C23    -6.2559  -13.8550    3.6769 C.ar     1 ZINC000072105034    0.2000
24     O24    -5.3238  -14.7033    4.1865 O.3      1 ZINC000072105034   -0.3000
25     C25    -5.6762  -16.0863    4.2594 C.3      1 ZINC000072105034    0.0200
26     C26    -7.4833  -14.3451    3.2568 C.ar     1 ZINC000072105034   -0.2900
27     C27    -8.4349  -13.4808    2.7368 C.ar     1 ZINC000072105034    0.2000
28     O28    -9.6377  -13.9625    2.3253 O.3      1 ZINC000072105034   -0.2900
29     C29    -9.8530  -15.3690    2.4578 C.3      1 ZINC000072105034    0.0200
30     C30    -8.1621  -12.1242    2.6416 C.ar     1 ZINC000072105034   -0.1000
31     Cl31   -9.3538  -11.0424    1.9911 Cl       1 ZINC000072105034   -0.0100
32     N32    -9.4548   -7.4955    4.0526 N.ar     1 ZINC000072105034   -0.5400
33     C33   -10.3802   -6.6174    4.3821 C.ar     1 ZINC000072105034    0.3700
34     N34   -10.2290   -5.3285    4.1562 N.ar     1 ZINC000072105034   -0.5800
35     C35   -10.1562   -1.4018    3.1617 C.ar     1 ZINC000072105034   -0.1300
36     C36   -11.0922   -0.5110    3.6485 C.ar     1 ZINC000072105034   -0.1200
37     C37   -13.7575    0.4050    4.2944 C.3      1 ZINC000072105034    0.0600
38     C38   -14.7230    1.4558    4.8476 C.3      1 ZINC000072105034    0.0500
39     H39   -17.5104    2.1653    8.3855 H        1 ZINC000072105034    0.0600
40     H40   -17.2179    0.4656    7.9454 H        1 ZINC000072105034    0.0600
41     H41   -15.9097    1.4373    8.6614 H        1 ZINC000072105034    0.0600
42     H42   -17.1998    1.9206    5.9376 H        1 ZINC000072105034    0.0800
43     H43   -15.8916    2.8923    6.6536 H        1 ZINC000072105034    0.0300
44     H44   -13.7715    1.5491    7.3374 H        1 ZINC000072105034    0.0400
45     H45   -14.8063    0.2553    7.9892 H        1 ZINC000072105034    0.0900
46     H46   -12.5834   -0.6160    7.2773 H        1 ZINC000072105034    0.0900
47     H47   -13.9050   -1.3256    6.3184 H        1 ZINC000072105034    0.0600
48     H48   -12.1087   -2.2338    6.3780 H        1 ZINC000072105034    0.1300
49     H49   -10.4480   -3.8259    5.5047 H        1 ZINC000072105034    0.1400
50     H50    -8.2207   -3.1824    2.8185 H        1 ZINC000072105034    0.4200
51     H51    -7.2186   -5.4118    2.7328 H        1 ZINC000072105034    0.1400
52     H52    -5.3628   -7.4382    3.4004 H        1 ZINC000072105034    0.0800
53     H53    -5.6722   -8.3583    1.9084 H        1 ZINC000072105034    0.0800
54     H54    -6.2052   -6.6648    2.0364 H        1 ZINC000072105034    0.0900
55     H55    -5.7826   -9.9679    2.6470 H        1 ZINC000072105034    0.4100
56     H56    -4.8459  -16.6509    4.6836 H        1 ZINC000072105034    0.1100
57     H57    -6.5563  -16.2041    4.8916 H        1 ZINC000072105034    0.0600
58     H58    -5.8951  -16.4587    3.2587 H        1 ZINC000072105034    0.0600
59     H59    -7.6980  -15.4007    3.3344 H        1 ZINC000072105034    0.1500
60     H60    -9.1066  -15.9074    1.8739 H        1 ZINC000072105034    0.0600
61     H61    -9.7673  -15.6524    3.5069 H        1 ZINC000072105034    0.0600
62     H62   -10.8493  -15.6199    2.0939 H        1 ZINC000072105034    0.1100
63     H63   -11.2871   -6.9639    4.8552 H        1 ZINC000072105034    0.2000
64     H64    -9.6077   -1.1701    2.2607 H        1 ZINC000072105034    0.1200
65     H65   -11.2730    0.4192    3.1303 H        1 ZINC000072105034    0.1300
66     H66   -13.2745    0.7915    3.3970 H        1 ZINC000072105034    0.0900
67     H67   -14.3093   -0.5023    4.0488 H        1 ZINC000072105034    0.0500
68     H68   -15.4974    1.6628    4.1089 H        1 ZINC000072105034    0.0800
69     H69   -14.1758    2.3724    5.0678 H        1 ZINC000072105034    0.0400
@<TRIPOS>BOND
1     1     2     1
2     1     39    1
3     1     40    1
4     1     41    1
5     2     3     1
6     2     42    1
7     2     43    1
8     3     38    1
9     3     4     1
10    4     5     1
11    4     44    1
12    4     45    1
13    5     6     1
14    5     46    1
15    5     47    1
16    6     7     1
17    6     37    1
18    7     36    ar
19    7     8     ar
20    8     9     ar
21    8     48    1
22    9     10    ar
23    9     49    1
24    10    11    1
25    10    35    ar
26    11    12    1
27    11    50    1
28    12    34    ar
29    12    13    ar
30    13    14    ar
31    13    51    1
32    14    15    1
33    14    32    ar
34    15    16    1
35    15    17    am
36    16    52    1
37    16    53    1
38    16    54    1
39    17    18    2
40    17    19    am
41    19    20    1
42    19    55    1
43    20    30    ar
44    20    21    ar
45    21    22    1
46    21    23    ar
47    23    24    1
48    23    26    ar
49    24    25    1
50    25    56    1
51    25    57    1
52    25    58    1
53    26    27    ar
54    26    59    1
55    27    28    1
56    27    30    ar
57    28    29    1
58    29    60    1
59    29    61    1
60    29    62    1
61    30    31    1
62    32    33    ar
63    33    34    ar
64    33    63    1
65    35    36    ar
66    35    64    1
67    36    65    1
68    37    38    1
69    37    66    1
70    37    67    1
71    38    68    1
72    38    69    1
@<TRIPOS>SUBSTRUCTURE
1   ZINC000072105034 1     RESIDUE    1   A     ZIN   1
