@<TRIPOS>MOLECULE
ZINC000013437583
39    40    1     0     0
SMALL
USER_CHARGES
@<TRIPOS>ATOM
1      O1      0.0021   -0.0041    0.0020 O.co2    1 ZINC000013437583   -0.7000
2      C2     -0.0145    1.2150    0.0087 C.2      1 ZINC000013437583    0.4900
3      O3      1.0330    1.8389    0.0021 O.co2    1 ZINC000013437583   -0.7100
4      C4     -1.3296    1.9507    0.0190 C.3      1 ZINC000013437583   -0.1800
5      C5     -2.4790    0.9408    0.0189 C.3      1 ZINC000013437583   -0.0900
6      C6     -3.8142    1.6877    0.0293 C.3      1 ZINC000013437583   -0.1100
7      C7     -4.9635    0.6777    0.0293 C.3      1 ZINC000013437583   -0.1000
8      C8     -6.2787    1.4134    0.0395 C.2      1 ZINC000013437583   -0.0900
9      C9     -7.1917    1.1651   -0.9069 C.2      1 ZINC000013437583   -0.0800
10     C10    -6.9092    0.1660   -1.9657 C.ar     1 ZINC000013437583   -0.0300
11     C11    -6.7937    0.5690   -3.2950 C.ar     1 ZINC000013437583   -0.1100
12     C12    -6.5308   -0.3652   -4.2762 C.ar     1 ZINC000013437583   -0.1200
13     C13    -6.3819   -1.6994   -3.9425 C.ar     1 ZINC000013437583   -0.1200
14     C14    -6.4955   -2.1051   -2.6249 C.ar     1 ZINC000013437583   -0.1200
15     C15    -6.7525   -1.1790   -1.6346 C.ar     1 ZINC000013437583   -0.1000
16     C16    -8.4859    1.8890   -0.8968 C.ar     1 ZINC000013437583   -0.0800
17     C17    -9.3923    1.7092    0.1520 C.ar     1 ZINC000013437583   -0.0700
18     C18   -10.5867    2.4081    0.1146 C.ar     1 ZINC000013437583   -0.1700
19     C19   -10.8426    3.2538   -0.9491 C.ar     1 ZINC000013437583    0.0900
20     N20    -9.9677    3.4034   -1.9251 N.ar     1 ZINC000013437583   -0.4800
21     C21    -8.8160    2.7644   -1.9302 C.ar     1 ZINC000013437583    0.1100
22     H22    -1.3917    2.5717    0.9126 H        1 ZINC000013437583    0.0500
23     H23    -1.4001    2.5813   -0.8673 H        1 ZINC000013437583    0.0500
24     H24    -2.4169    0.3198   -0.8748 H        1 ZINC000013437583    0.0600
25     H25    -2.4085    0.3101    0.9052 H        1 ZINC000013437583    0.0600
26     H26    -3.8762    2.3086    0.9230 H        1 ZINC000013437583    0.0600
27     H27    -3.8847    2.3183   -0.8569 H        1 ZINC000013437583    0.0600
28     H28    -4.9015    0.0568   -0.8644 H        1 ZINC000013437583    0.0800
29     H29    -4.8931    0.0471    0.9155 H        1 ZINC000013437583    0.0800
30     H30    -6.4845    2.1411    0.8106 H        1 ZINC000013437583    0.1200
31     H31    -6.9101    1.6104   -3.5567 H        1 ZINC000013437583    0.1200
32     H32    -6.4414   -0.0541   -5.3065 H        1 ZINC000013437583    0.1200
33     H33    -6.1766   -2.4271   -4.7136 H        1 ZINC000013437583    0.1200
34     H34    -6.3786   -3.1482   -2.3702 H        1 ZINC000013437583    0.1200
35     H35    -6.8407   -1.4968   -0.6062 H        1 ZINC000013437583    0.1200
36     H36    -9.1666    1.0417    0.9705 H        1 ZINC000013437583    0.1300
37     H37   -11.3110    2.2937    0.9074 H        1 ZINC000013437583    0.1400
38     H38   -11.7736    3.8002   -0.9816 H        1 ZINC000013437583    0.1500
39     H39    -8.1253    2.9127   -2.7470 H        1 ZINC000013437583    0.1500
@<TRIPOS>BOND
1     1     2     ar
2     2     3     ar
3     2     4     1
4     4     5     1
5     4     22    1
6     4     23    1
7     5     6     1
8     5     24    1
9     5     25    1
10    6     7     1
11    6     26    1
12    6     27    1
13    7     8     1
14    7     28    1
15    7     29    1
16    8     9     2
17    8     30    1
18    9     10    1
19    9     16    1
20    10    15    ar
21    10    11    ar
22    11    12    ar
23    11    31    1
24    12    13    ar
25    12    32    1
26    13    14    ar
27    13    33    1
28    14    15    ar
29    14    34    1
30    15    35    1
31    16    21    ar
32    16    17    ar
33    17    18    ar
34    17    36    1
35    18    19    ar
36    18    37    1
37    19    20    ar
38    19    38    1
39    20    21    ar
40    21    39    1
@<TRIPOS>SUBSTRUCTURE
1   ZINC000013437583 1     RESIDUE    1   A     ZIN   1
