@<TRIPOS>MOLECULE
ZINC000013217452
27    27    1     0     0
SMALL
USER_CHARGES
@<TRIPOS>ATOM
1      O1      0.0021   -0.0041    0.0020 O.2      1 ZINC000013217452   -0.5100
2      C2     -0.0144    1.2086    0.0087 C.2      1 ZINC000013217452    0.5100
3      C3      1.2803    1.9798    0.0005 C.3      1 ZINC000013217452    0.0700
4      N4      2.4066    1.0431   -0.0153 N.pl3    1 ZINC000013217452   -0.4100
5      C5      3.0991    0.5870    1.0738 C.2      1 ZINC000013217452    0.0200
6      C6      4.0461   -0.2508    0.6105 C.2      1 ZINC000013217452    0.0000
7      N7      3.9350   -0.3049   -0.7251 N.2      1 ZINC000013217452   -0.3900
8      C8      2.9517    0.4637   -1.1066 C.2      1 ZINC000013217452    0.2400
9      N9      2.5124    0.6726   -2.5046 N.pl3    1 ZINC000013217452    0.0700
10     O10     3.0854    0.1011   -3.4149 O.2      1 ZINC000013217452   -0.0900
11     O11     1.5779    1.4159   -2.7447 O.2      1 ZINC000013217452   -0.1600
12     N12    -1.1906    1.8666    0.0178 N.am     1 ZINC000013217452   -0.7200
13     C13    -2.4492    1.1169    0.0197 C.3      1 ZINC000013217452    0.0800
14     C14    -3.6255    2.0952    0.0306 C.3      1 ZINC000013217452    0.2500
15     F15    -3.5569    2.8942    1.1770 F        1 ZINC000013217452   -0.1500
16     F16    -3.5678    2.9067   -1.1075 F        1 ZINC000013217452   -0.1500
17     C17    -4.9400    1.3123    0.0326 C.3      1 ZINC000013217452    0.4300
18     F18    -4.9978    0.5009    1.1708 F        1 ZINC000013217452   -0.1500
19     F19    -6.0156    2.2069    0.0426 F        1 ZINC000013217452   -0.1500
20     F20    -5.0087    0.5133   -1.1137 F        1 ZINC000013217452   -0.1500
21     H21     1.3211    2.6120   -0.8866 H        1 ZINC000013217452    0.1500
22     H22     1.3381    2.6024    0.8933 H        1 ZINC000013217452    0.1400
23     H23     2.9205    0.8491    2.1062 H        1 ZINC000013217452    0.2100
24     H24     4.7686   -0.7855    1.2094 H        1 ZINC000013217452    0.2000
25     H25    -1.2037    2.8365    0.0232 H        1 ZINC000013217452    0.4100
26     H26    -2.5027    0.4944   -0.8734 H        1 ZINC000013217452    0.1200
27     H27    -2.4943    0.4847    0.9065 H        1 ZINC000013217452    0.1200
@<TRIPOS>BOND
1     1     2     2
2     2     3     1
3     2     12    am
4     3     4     1
5     3     21    1
6     3     22    1
7     4     8     1
8     4     5     1
9     5     6     2
10    5     23    1
11    6     7     1
12    6     24    1
13    7     8     2
14    8     9     1
15    9     10    2
16    9     11    2
17    12    13    1
18    12    25    1
19    13    14    1
20    13    26    1
21    13    27    1
22    14    15    1
23    14    16    1
24    14    17    1
25    17    18    1
26    17    19    1
27    17    20    1
@<TRIPOS>SUBSTRUCTURE
1   ZINC000013217452 1     RESIDUE    1   A     ZIN   1
