@<TRIPOS>MOLECULE
ZINC000043206251
79    82    1     0     0
SMALL
USER_CHARGES
@<TRIPOS>ATOM
1      C1      1.8242    1.5251   -0.0942 C.3      1 ZINC000043206251   -0.2100
2      C2      1.5022    0.0295   -0.0752 C.3      1 ZINC000043206251    0.0700
3      H3      1.8472   -0.4281   -1.0024 H        1 ZINC000043206251    0.0800
4      C4     -0.0095   -0.1648    0.0574 C.3      1 ZINC000043206251   -0.0100
5      N5     -0.5502   -0.6876   -1.2037 N.4      1 ZINC000043206251   -0.4900
6      H6     -0.9698    0.0658   -1.7275 H        1 ZINC000043206251    0.4400
7      H7      0.1958   -1.0985   -1.7447 H        1 ZINC000043206251    0.4300
8      C8     -1.5662   -1.7091   -0.9157 C.3      1 ZINC000043206251    0.0300
9      H9     -1.4715   -2.0341    0.1204 H        1 ZINC000043206251    0.1700
10     C10    -2.9602   -1.1200   -1.1403 C.3      1 ZINC000043206251   -0.2100
11     C11    -3.8175   -1.7360   -2.2478 C.3      1 ZINC000043206251   -0.1600
12     C12    -4.1632   -1.9940   -0.7799 C.3      1 ZINC000043206251   -0.1600
13     C13    -1.3645   -2.8883   -1.8330 C.2      1 ZINC000043206251    0.5000
14     O14    -0.9572   -2.7273   -2.9639 O.2      1 ZINC000043206251   -0.5000
15     N15    -1.6472   -4.1382   -1.3698 N.am     1 ZINC000043206251   -0.5900
16     C16    -2.2804   -4.3567   -0.0669 C.3      1 ZINC000043206251    0.0600
17     C17    -1.2777   -5.2610   -2.2574 C.3      1 ZINC000043206251    0.1200
18     H18    -0.8397   -4.8720   -3.1766 H        1 ZINC000043206251    0.1300
19     C19    -2.5238   -6.0839   -2.5905 C.3      1 ZINC000043206251   -0.1600
20     C20    -0.2712   -6.1266   -1.5443 C.2      1 ZINC000043206251    0.5100
21     O21    -0.6176   -6.8556   -0.6391 O.2      1 ZINC000043206251   -0.5000
22     N22     1.0387   -6.0778   -1.9340 N.am     1 ZINC000043206251   -0.7200
23     C23     1.9508   -6.9437   -1.1472 C.3      1 ZINC000043206251    0.1300
24     H24     2.0253   -7.9225   -1.6209 H        1 ZINC000043206251    0.1100
25     C25     1.4094   -7.1014    0.2751 C.3      1 ZINC000043206251   -0.1000
26     C26     2.4315   -7.8103    1.1259 C.ar     1 ZINC000043206251   -0.1100
27     C27     2.5804   -9.1812    1.0282 C.ar     1 ZINC000043206251   -0.0800
28     C28     3.5173   -9.8324    1.8079 C.ar     1 ZINC000043206251   -0.1500
29     C29     4.3075   -9.1111    2.6868 C.ar     1 ZINC000043206251    0.1000
30     F30     5.2241   -9.7466    3.4492 F        1 ZINC000043206251   -0.1400
31     C31     4.1579   -7.7380    2.7835 C.ar     1 ZINC000043206251   -0.1500
32     C32     3.2235   -7.0884    1.9993 C.ar     1 ZINC000043206251   -0.0800
33     C33     3.3105   -6.2972   -1.1058 C.2      1 ZINC000043206251    0.5100
34     O34     4.1187   -6.5115   -1.9843 O.2      1 ZINC000043206251   -0.5200
35     N35     3.6216   -5.4687   -0.0702 N.am     1 ZINC000043206251   -0.7300
36     C36     4.9752   -4.8782   -0.0903 C.3      1 ZINC000043206251    0.1100
37     C37     5.0530   -3.7796    0.9716 C.3      1 ZINC000043206251   -0.1500
38     C38     3.9110   -2.7839    0.7579 C.3      1 ZINC000043206251   -0.0700
39     C39     4.3996   -1.3887    1.0523 C.ar     1 ZINC000043206251   -0.0900
40     C40     5.7508   -1.1445    1.1977 C.ar     1 ZINC000043206251   -0.1100
41     C41     6.1996    0.1358    1.4668 C.ar     1 ZINC000043206251   -0.1100
42     C42     5.2956    1.1742    1.5915 C.ar     1 ZINC000043206251   -0.1100
43     C43     3.9429    0.9360    1.4449 C.ar     1 ZINC000043206251   -0.1500
44     C44     3.4909   -0.3466    1.1753 C.ar     1 ZINC000043206251    0.0800
45     O45     2.1610   -0.5851    1.0328 O.3      1 ZINC000043206251   -0.3200
46     H46     2.9012    1.6637   -0.1889 H        1 ZINC000043206251    0.1000
47     H47     1.3216    1.9943   -0.9400 H        1 ZINC000043206251    0.0800
48     H48     1.4792    1.9829    0.8330 H        1 ZINC000043206251    0.0900
49     H49    -0.2156   -0.8714    0.8614 H        1 ZINC000043206251    0.1500
50     H50    -0.4800    0.7916    0.2854 H        1 ZINC000043206251    0.1500
51     H51    -3.0497   -0.0467   -0.9727 H        1 ZINC000043206251    0.1400
52     H52    -4.4711   -1.0679   -2.8088 H        1 ZINC000043206251    0.1200
53     H53    -3.3884   -2.5610   -2.8164 H        1 ZINC000043206251    0.1100
54     H54    -3.9614   -2.9888   -0.3827 H        1 ZINC000043206251    0.1100
55     H55    -5.0441   -1.4957   -0.3751 H        1 ZINC000043206251    0.1200
56     H56    -2.4133   -3.3996    0.4375 H        1 ZINC000043206251    0.0800
57     H57    -3.2517   -4.8301   -0.2098 H        1 ZINC000043206251    0.0900
58     H58    -1.6472   -5.0030    0.5410 H        1 ZINC000043206251    0.0900
59     H59    -3.2541   -5.4500   -3.0934 H        1 ZINC000043206251    0.0800
60     H60    -2.2488   -6.9110   -3.2450 H        1 ZINC000043206251    0.0800
61     H61    -2.9563   -6.4770   -1.6704 H        1 ZINC000043206251    0.0800
62     H62     1.3468   -5.5217   -2.6666 H        1 ZINC000043206251    0.4200
63     H63     1.2048   -6.1175    0.6972 H        1 ZINC000043206251    0.0700
64     H64     0.4891   -7.6849    0.2510 H        1 ZINC000043206251    0.1500
65     H65     1.9639   -9.7436    0.3425 H        1 ZINC000043206251    0.1300
66     H66     3.6329  -10.9035    1.7319 H        1 ZINC000043206251    0.1400
67     H67     4.7734   -7.1745    3.4689 H        1 ZINC000043206251    0.1400
68     H68     3.1069   -6.0174    2.0742 H        1 ZINC000043206251    0.1200
69     H69     2.9897   -5.2770    0.6403 H        1 ZINC000043206251    0.4100
70     H70     5.7133   -5.6500    0.1282 H        1 ZINC000043206251    0.0700
71     H71     5.1722   -4.4503   -1.0733 H        1 ZINC000043206251    0.0800
72     H72     4.9661   -4.2251    1.9626 H        1 ZINC000043206251    0.0800
73     H73     6.0080   -3.2607    0.8886 H        1 ZINC000043206251    0.1000
74     H74     3.5698   -2.8388   -0.2759 H        1 ZINC000043206251    0.0700
75     H75     3.0857   -3.0286    1.4265 H        1 ZINC000043206251    0.0800
76     H76     6.4585   -1.9547    1.1015 H        1 ZINC000043206251    0.1400
77     H77     7.2570    0.3244    1.5798 H        1 ZINC000043206251    0.1300
78     H78     5.6474    2.1729    1.8042 H        1 ZINC000043206251    0.1300
79     H79     3.2378    1.7486    1.5399 H        1 ZINC000043206251    0.1400
@<TRIPOS>BOND
1     1     2     1
2     1     46    1
3     1     47    1
4     1     48    1
5     2     3     1
6     2     45    1
7     2     4     1
8     4     5     1
9     4     49    1
10    4     50    1
11    5     6     1
12    5     7     1
13    5     8     1
14    8     9     1
15    8     10    1
16    8     13    1
17    10    12    1
18    10    11    1
19    10    51    1
20    11    12    1
21    11    52    1
22    11    53    1
23    12    54    1
24    12    55    1
25    13    14    2
26    13    15    am
27    15    16    1
28    15    17    1
29    16    56    1
30    16    57    1
31    16    58    1
32    17    18    1
33    17    19    1
34    17    20    1
35    19    59    1
36    19    60    1
37    19    61    1
38    20    21    2
39    20    22    am
40    22    23    1
41    22    62    1
42    23    24    1
43    23    25    1
44    23    33    1
45    25    26    1
46    25    63    1
47    25    64    1
48    26    32    ar
49    26    27    ar
50    27    28    ar
51    27    65    1
52    28    29    ar
53    28    66    1
54    29    30    1
55    29    31    ar
56    31    32    ar
57    31    67    1
58    32    68    1
59    33    34    2
60    33    35    am
61    35    36    1
62    35    69    1
63    36    37    1
64    36    70    1
65    36    71    1
66    37    38    1
67    37    72    1
68    37    73    1
69    38    39    1
70    38    74    1
71    38    75    1
72    39    44    ar
73    39    40    ar
74    40    41    ar
75    40    76    1
76    41    42    ar
77    41    77    1
78    42    43    ar
79    42    78    1
80    43    44    ar
81    43    79    1
82    44    45    1
@<TRIPOS>SUBSTRUCTURE
1   ZINC000043206251 1     RESIDUE    1   A     ZIN   1
