@<TRIPOS>MOLECULE
ZINC000027093989
57    59    1     0     0
SMALL
USER_CHARGES
@<TRIPOS>ATOM
1      C1     -0.3347    1.6127    0.1020 C.3      1 ZINC000027093989    0.0400
2      O2     -0.3208    0.1613    0.1391 O.3      1 ZINC000027093989   -0.3600
3      C3     -1.5093   -0.4609    0.0924 C.2      1 ZINC000027093989    0.4400
4      O4     -2.5274    0.1859    0.0228 O.2      1 ZINC000027093989   -0.4700
5      C5     -1.5737   -1.9661    0.1268 C.3      1 ZINC000027093989   -0.1000
6      C6     -3.0347   -2.4157    0.0615 C.3      1 ZINC000027093989   -0.1100
7      H7     -3.6157   -1.9372    0.8498 H        1 ZINC000027093989    0.1200
8      C8     -3.1329   -3.9547    0.1749 C.3      1 ZINC000027093989   -0.1200
9      C9     -3.1516   -4.3795   -1.3102 C.3      1 ZINC000027093989    0.1400
10     H10    -2.1415   -4.6091   -1.6496 H        1 ZINC000027093989    0.1000
11     C11    -4.0627   -5.5935   -1.5022 C.3      1 ZINC000027093989    0.0500
12     O12    -3.9777   -6.0435   -2.8559 O.3      1 ZINC000027093989   -0.3100
13     C13    -4.7310   -7.1215   -3.1958 C.ar     1 ZINC000027093989    0.1400
14     C14    -5.5399   -7.7293   -2.2445 C.ar     1 ZINC000027093989   -0.2100
15     C15    -6.3055   -8.8236   -2.5862 C.ar     1 ZINC000027093989   -0.0600
16     C16    -6.2672   -9.3202   -3.8891 C.ar     1 ZINC000027093989   -0.1000
17     C17    -7.0892  -10.4960   -4.2600 C.ar     1 ZINC000027093989    0.0000
18     C18    -7.9072  -11.1037   -3.3061 C.ar     1 ZINC000027093989   -0.1200
19     C19    -8.6681  -12.1919   -3.6478 C.ar     1 ZINC000027093989   -0.0800
20     C20    -8.6246  -12.6927   -4.9529 C.ar     1 ZINC000027093989   -0.0900
21     C21    -9.4426  -13.8626   -5.3220 C.2      1 ZINC000027093989    0.5300
22     N22   -10.2436  -14.4581   -4.3887 N.pl3    1 ZINC000027093989   -0.8500
23     N23    -9.4010  -14.3358   -6.5567 N.2      1 ZINC000027093989   -0.5900
24     C24   -10.2049  -15.3469   -6.9143 C.2      1 ZINC000027093989    0.6200
25     O25   -11.1555  -15.1392   -7.6454 O.2      1 ZINC000027093989   -0.5300
26     O26    -9.9603  -16.5951   -6.4638 O.3      1 ZINC000027093989   -0.3800
27     C27   -10.8577  -17.6243   -6.8849 C.3      1 ZINC000027093989    0.0400
28     C28    -7.8049  -12.0825   -5.9076 C.ar     1 ZINC000027093989   -0.0400
29     C29    -7.0491  -10.9911   -5.5644 C.ar     1 ZINC000027093989   -0.1200
30     C30    -5.4536   -8.7074   -4.8421 C.ar     1 ZINC000027093989   -0.0600
31     C31    -4.6948   -7.6101   -4.4953 C.ar     1 ZINC000027093989   -0.1500
32     N32    -3.6825   -3.2231   -2.0415 N.am     1 ZINC000027093989   -0.7300
33     C33    -3.6249   -2.1023   -1.2958 C.2      1 ZINC000027093989    0.5200
34     O34    -3.9917   -1.0055   -1.6607 O.2      1 ZINC000027093989   -0.5000
35     H35     0.6881    1.9871    0.1462 H        1 ZINC000027093989    0.1000
36     H36    -0.8046    1.9480   -0.8226 H        1 ZINC000027093989    0.0600
37     H37    -0.8978    1.9927    0.9544 H        1 ZINC000027093989    0.0600
38     H38    -1.0299   -2.3726   -0.7259 H        1 ZINC000027093989    0.1100
39     H39    -1.1231   -2.3280    1.0510 H        1 ZINC000027093989    0.1200
40     H40    -2.2622   -4.3644    0.6869 H        1 ZINC000027093989    0.1000
41     H41    -4.0539   -4.2508    0.6770 H        1 ZINC000027093989    0.0900
42     H42    -3.7474   -6.3939   -0.8328 H        1 ZINC000027093989    0.0800
43     H43    -5.0919   -5.3148   -1.2759 H        1 ZINC000027093989    0.0700
44     H44    -5.5689   -7.3445   -1.2358 H        1 ZINC000027093989    0.1300
45     H45    -6.9341   -9.2960   -1.8459 H        1 ZINC000027093989    0.1300
46     H46    -7.9405  -10.7167   -2.2984 H        1 ZINC000027093989    0.1300
47     H47    -9.3003  -12.6624   -2.9093 H        1 ZINC000027093989    0.1300
48     H48   -10.2030  -14.1737   -3.4622 H        1 ZINC000027093989    0.4100
49     H49   -10.8529  -15.1652   -4.6526 H        1 ZINC000027093989    0.4100
50     H50   -10.5479  -18.5758   -6.4526 H        1 ZINC000027093989    0.1000
51     H51   -11.8673  -17.3851   -6.5509 H        1 ZINC000027093989    0.0600
52     H52   -10.8424  -17.6972   -7.9723 H        1 ZINC000027093989    0.0600
53     H53    -7.7701  -12.4683   -6.9158 H        1 ZINC000027093989    0.1500
54     H54    -6.4163  -10.5194   -6.3016 H        1 ZINC000027093989    0.1400
55     H55    -5.4214   -9.0898   -5.8516 H        1 ZINC000027093989    0.1400
56     H56    -4.0647   -7.1351   -5.2328 H        1 ZINC000027093989    0.1400
57     H57    -4.0311   -3.2605   -2.9460 H        1 ZINC000027093989    0.4100
@<TRIPOS>BOND
1     1     2     1
2     1     35    1
3     1     36    1
4     1     37    1
5     2     3     1
6     3     4     2
7     3     5     1
8     5     6     1
9     5     38    1
10    5     39    1
11    6     7     1
12    6     33    1
13    6     8     1
14    8     9     1
15    8     40    1
16    8     41    1
17    9     10    1
18    9     11    1
19    9     32    1
20    11    12    1
21    11    42    1
22    11    43    1
23    12    13    1
24    13    31    ar
25    13    14    ar
26    14    15    ar
27    14    44    1
28    15    16    ar
29    15    45    1
30    16    17    1
31    16    30    ar
32    17    29    ar
33    17    18    ar
34    18    19    ar
35    18    46    1
36    19    20    ar
37    19    47    1
38    20    21    1
39    20    28    ar
40    21    22    1
41    21    23    2
42    22    48    1
43    22    49    1
44    23    24    1
45    24    25    2
46    24    26    1
47    26    27    1
48    27    50    1
49    27    51    1
50    27    52    1
51    28    29    ar
52    28    53    1
53    29    54    1
54    30    31    ar
55    30    55    1
56    31    56    1
57    32    33    am
58    32    57    1
59    33    34    2
@<TRIPOS>SUBSTRUCTURE
1   ZINC000027093989 1     RESIDUE    1   A     ZIN   1
