@<TRIPOS>MOLECULE
ZINC000038247771
  38   40    0    0    0
SMALL
USER_CHARGES
NO_NAME
@<TRIPOS>ATOM
    1 C1       -0.0167     1.3818     0.0096 C.ar   1 <0>      -0.2900
    2 C2        1.1915     2.0609     0.0017 C.ar   1 <0>       0.1900
    3 N3        2.3197     1.3705    -0.0127 N.ar   1 <0>      -0.5700
    4 C4        2.3029     0.0457    -0.0197 C.ar   1 <0>       0.5600
    5 N5        3.5022    -0.6451    -0.0348 N.pl3  1 <0>      -0.7000
    6 C6        3.5036    -2.1101    -0.0427 C.3    1 <0>       0.1800
    7 C7        4.9249    -2.6109    -0.0590 C.ar   1 <0>      -0.1000
    8 C8        5.5672    -2.8288    -1.2635 C.ar   1 <0>      -0.1000
    9 C9        6.8708    -3.2882    -1.2784 C.ar   1 <0>      -0.1000
   10 C10       7.5324    -3.5293    -0.0888 C.ar   1 <0>      -0.1000
   11 C11       8.9534    -4.0307    -0.1051 C.3    1 <0>       0.1800
   12 N12       9.8735    -2.8906    -0.1020 N.pl3  1 <0>      -0.7000
   13 C13      11.2408    -3.1048    -0.1151 C.ar   1 <0>       0.5600
   14 N14      11.7007    -4.3472    -0.1360 N.ar   1 <0>      -0.5700
   15 C15      13.0015    -4.5866    -0.1494 C.ar   1 <0>       0.1900
   16 C16      13.8855    -3.5191    -0.1415 C.ar   1 <0>      -0.2900
   17 C17      13.3706    -2.2325    -0.1196 C.ar   1 <0>       0.1900
   18 N18      12.0588    -2.0625    -0.1121 N.ar   1 <0>      -0.5700
   19 C19       6.8905    -3.3101     1.1157 C.ar   1 <0>      -0.1000
   20 C20       5.5881    -2.8471     1.1306 C.ar   1 <0>      -0.1000
   21 N21       1.1654    -0.6335    -0.0120 N.ar   1 <0>      -0.5700
   22 C22       0.0021    -0.0041     0.0020 C.ar   1 <0>       0.1900
   23 H23      -0.9525     1.9208     0.0259 H      1 <0>       0.1400
   24 H24       1.2116     3.1407     0.0070 H      1 <0>       0.1700
   25 H25       4.3417    -0.1592    -0.0403 H      1 <0>       0.4100
   26 H26       2.9987    -2.4787     0.8502 H      1 <0>       0.0800
   27 H27       2.9817    -2.4691    -0.9297 H      1 <0>       0.0800
   28 H28       5.0503    -2.6404    -2.1929 H      1 <0>       0.1300
   29 H29       7.3724    -3.4592    -2.2195 H      1 <0>       0.1300
   30 H30       9.1323    -4.6444     0.7778 H      1 <0>       0.0800
   31 H31       9.1178    -4.6278    -1.0021 H      1 <0>       0.0800
   32 H32       9.5244    -1.9857    -0.0907 H      1 <0>       0.4100
   33 H33      13.3703    -5.6015    -0.1660 H      1 <0>       0.1700
   34 H34      14.9525    -3.6862    -0.1517 H      1 <0>       0.1400
   35 H35      14.0323    -1.3790    -0.1126 H      1 <0>       0.1700
   36 H36       7.4075    -3.4982     2.0451 H      1 <0>       0.1300
   37 H37       5.0867    -2.6758     2.0717 H      1 <0>       0.1300
   38 H38      -0.9219    -0.5632     0.0086 H      1 <0>       0.1700
@<TRIPOS>BOND
   1    1   22 ar
   2    1    2 ar
   3    1   23 1
   4    2    3 ar
   5    2   24 1
   6    3    4 ar
   7    4    5 1
   8    4   21 ar
   9    5    6 1
  10    5   25 1
  11    6    7 1
  12    6   26 1
  13    6   27 1
  14    7   20 ar
  15    7    8 ar
  16    8    9 ar
  17    8   28 1
  18    9   10 ar
  19    9   29 1
  20   10   11 1
  21   10   19 ar
  22   11   12 1
  23   11   30 1
  24   11   31 1
  25   12   13 1
  26   12   32 1
  27   13   18 ar
  28   13   14 ar
  29   14   15 ar
  30   15   16 ar
  31   15   33 1
  32   16   17 ar
  33   16   34 1
  34   17   18 ar
  35   17   35 1
  36   19   20 ar
  37   19   36 1
  38   20   37 1
  39   21   22 ar
  40   22   38 1
