@<TRIPOS>MOLECULE
ZINC000003920927
  52   56    0    0    0
SMALL
USER_CHARGES
NO_NAME
@<TRIPOS>ATOM
    1 O1       -0.4203    -0.2459    -0.7646 O.co2  1 <0>      -0.7000
    2 C2       -0.3729     0.9758    -0.7026 C.2    1 <0>       0.5400
    3 O3        0.6995     1.5536    -0.8231 O.co2  1 <0>      -0.6600
    4 C4       -1.6015     1.7472    -0.4900 C.2    1 <0>      -0.2800
    5 C5       -2.8164     1.1073    -0.3527 C.2    1 <0>       0.1500
    6 N6       -3.9660     1.7706    -0.1548 N.pl3  1 <0>      -0.4900
    7 C7       -4.0152     3.1522    -0.0942 C.ar   1 <0>       0.1500
    8 C8       -5.2316     3.8089     0.0806 C.ar   1 <0>       0.0800
    9 O9       -6.3834     3.0880     0.1807 O.3    1 <0>      -0.3000
   10 C10      -6.3900     1.8246    -0.4947 C.3    1 <0>       0.0500
   11 C11      -5.2051     0.9948     0.0069 C.3    1 <0>       0.0600
   12 H12      -5.3492     0.7544     1.0602 H      1 <0>       0.1200
   13 C13      -5.1080    -0.2991    -0.8038 C.3    1 <0>       0.0500
   14 F14      -4.7898     0.0053    -2.1316 F      1 <0>      -0.2000
   15 C15      -5.2719     5.1944     0.1515 C.ar   1 <0>       0.1400
   16 N16      -6.4943     5.8438     0.3336 N.pl3  1 <0>      -0.6500
   17 C17      -7.3072     6.2459    -0.8228 C.3    1 <0>       0.1300
   18 C18      -8.7072     5.6378    -0.6729 C.3    1 <0>       0.0900
   19 N19      -9.2044     5.9311     0.6786 N.pl3  1 <0>      -0.5700
   20 C20     -10.4219     6.5768     0.8599 C.ar   1 <0>       0.4500
   21 C21     -11.2404     6.8254    -0.2369 C.ar   1 <0>      -0.2000
   22 C22     -12.4496     7.4685    -0.0420 C.ar   1 <0>       0.0300
   23 C23     -12.8008     7.8426     1.2480 C.ar   1 <0>      -0.1800
   24 C24     -11.9398     7.5643     2.2909 C.ar   1 <0>       0.1500
   25 N25     -10.7947     6.9450     2.0761 N.ar   1 <0>      -0.5100
   26 H26     -10.2082     6.7613     2.8266 H      1 <0>       0.4400
   27 C27      -8.3915     5.5289     1.8350 C.3    1 <0>       0.0800
   28 C28      -6.9941     6.1320     1.6853 C.3    1 <0>       0.1300
   29 C29      -4.0990     5.9431     0.0425 C.ar   1 <0>       0.0800
   30 F30      -4.1497     7.2911     0.1168 F      1 <0>      -0.1300
   31 C31      -2.8903     5.3097    -0.1401 C.ar   1 <0>      -0.0800
   32 C32      -2.8398     3.9152    -0.2132 C.ar   1 <0>      -0.1300
   33 C33      -1.5583     3.2174    -0.4135 C.2    1 <0>       0.4100
   34 O34      -0.5094     3.8295    -0.5154 O.2    1 <0>      -0.4300
   35 H35      -2.8430     0.0290    -0.4070 H      1 <0>       0.1700
   36 H36      -7.3210     1.2999    -0.2799 H      1 <0>       0.1300
   37 H37      -6.2966     1.9836    -1.5690 H      1 <0>       0.0800
   38 H38      -4.3309    -0.9355    -0.3806 H      1 <0>       0.1000
   39 H39      -6.0640    -0.8217    -0.7699 H      1 <0>       0.1000
   40 H40      -7.3822     7.3328    -0.8570 H      1 <0>       0.0700
   41 H41      -6.8455     5.8795    -1.7397 H      1 <0>       0.1000
   42 H42      -9.3775     6.0761    -1.4124 H      1 <0>       0.1000
   43 H43      -8.6547     4.5587    -0.8173 H      1 <0>       0.1000
   44 H44     -10.9358     6.5208    -1.2273 H      1 <0>       0.1800
   45 H45     -13.1056     7.6751    -0.8747 H      1 <0>       0.1700
   46 H46     -13.7377     8.3466     1.4339 H      1 <0>       0.1800
   47 H47     -12.2090     7.8536     3.2960 H      1 <0>       0.2000
   48 H48      -8.8532     5.8953     2.7519 H      1 <0>       0.0800
   49 H49      -8.3165     4.4421     1.8693 H      1 <0>       0.1100
   50 H50      -6.3249     5.6929     2.4252 H      1 <0>       0.1000
   51 H51      -7.0442     7.2114     1.8286 H      1 <0>       0.0600
   52 H52      -1.9832     5.8893    -0.2268 H      1 <0>       0.1600
@<TRIPOS>BOND
   1    1    2 ar
   2    2    3 ar
   3    2    4 1
   4    4   33 1
   5    4    5 2
   6    5    6 1
   7    5   35 1
   8    6   11 1
   9    6    7 1
  10    7   32 ar
  11    7    8 ar
  12    8    9 1
  13    8   15 ar
  14    9   10 1
  15   10   11 1
  16   10   36 1
  17   10   37 1
  18   11   12 1
  19   11   13 1
  20   13   14 1
  21   13   38 1
  22   13   39 1
  23   15   16 1
  24   15   29 ar
  25   16   28 1
  26   16   17 1
  27   17   18 1
  28   17   40 1
  29   17   41 1
  30   18   19 1
  31   18   42 1
  32   18   43 1
  33   19   20 1
  34   19   27 1
  35   20   25 ar
  36   20   21 ar
  37   21   22 ar
  38   21   44 1
  39   22   23 ar
  40   22   45 1
  41   23   24 ar
  42   23   46 1
  43   24   25 ar
  44   24   47 1
  45   25   26 1
  46   27   28 1
  47   27   48 1
  48   27   49 1
  49   28   50 1
  50   28   51 1
  51   29   30 1
  52   29   31 ar
  53   31   32 ar
  54   31   52 1
  55   32   33 1
  56   33   34 2
