@<TRIPOS>MOLECULE
ZINC000000602486
53    56    1     0     0
SMALL
USER_CHARGES
@<TRIPOS>ATOM
1      C1     -0.0187    1.5258    0.0104 C.3      1 ZINC000000602486   -0.1800
2      C2      0.0021   -0.0041    0.0020 C.3      1 ZINC000000602486    0.1000
3      N3      0.6878   -0.4765   -1.2033 N.am     1 ZINC000000602486   -0.6000
4      C4      2.1353   -0.7012   -1.1821 C.3      1 ZINC000000602486    0.1600
5      C5      2.4170   -2.1231   -0.7698 C.ar     1 ZINC000000602486   -0.1100
6      C6      2.5764   -2.4364    0.5671 C.ar     1 ZINC000000602486   -0.1100
7      C7      2.8348   -3.7406    0.9453 C.ar     1 ZINC000000602486   -0.1200
8      C8      2.9332   -4.7317   -0.0133 C.ar     1 ZINC000000602486   -0.1100
9      C9      2.7728   -4.4185   -1.3502 C.ar     1 ZINC000000602486   -0.1200
10     C10     2.5102   -3.1150   -1.7280 C.ar     1 ZINC000000602486   -0.0900
11     C11    -0.0130   -0.7045   -2.3317 C.2      1 ZINC000000602486    0.5100
12     O12     0.5546   -1.0956   -3.3296 O.2      1 ZINC000000602486   -0.5200
13     C13    -1.5021   -0.4734   -2.3536 C.3      1 ZINC000000602486    0.1100
14     N14    -2.0260   -0.7905   -3.6844 N.am     1 ZINC000000602486   -0.5100
15     C15    -2.1364    0.0729   -4.7119 C.2      1 ZINC000000602486    0.7000
16     O16    -1.8140    1.2457   -4.6790 O.2      1 ZINC000000602486   -0.5300
17     N17    -2.6576   -0.5583   -5.7821 N.am     1 ZINC000000602486   -0.5300
18     C18    -2.9290    0.0462   -7.0887 C.3      1 ZINC000000602486    0.0900
19     C19    -2.8931   -1.8828   -5.4315 C.ar     1 ZINC000000602486   -0.0100
20     C20    -3.4054   -2.9860   -6.0948 C.ar     1 ZINC000000602486    0.1800
21     N21    -3.4962   -4.1364   -5.4450 N.ar     1 ZINC000000602486   -0.5000
22     C22    -3.1064   -4.2407   -4.1817 C.ar     1 ZINC000000602486    0.3800
23     C23    -3.2277   -5.5508   -3.4974 C.ar     1 ZINC000000602486   -0.0500
24     C24    -2.8304   -5.6852   -2.1682 C.ar     1 ZINC000000602486   -0.0700
25     C25    -2.9461   -6.9067   -1.5364 C.ar     1 ZINC000000602486   -0.1300
26     C26    -3.4547   -7.9965   -2.2199 C.ar     1 ZINC000000602486   -0.1000
27     C27    -3.8505   -7.8689   -3.5392 C.ar     1 ZINC000000602486   -0.1300
28     C28    -3.7448   -6.6509   -4.1794 C.ar     1 ZINC000000602486   -0.0700
29     N29    -2.6107   -3.2084   -3.5116 N.ar     1 ZINC000000602486   -0.5000
30     C30    -2.4842   -2.0279   -4.0975 C.ar     1 ZINC000000602486    0.3600
31     H31     1.0039    1.9031    0.0027 H        1 ZINC000000602486    0.0600
32     H32    -0.5459    1.8868   -0.8726 H        1 ZINC000000602486    0.0600
33     H33    -0.5289    1.8773    0.9072 H        1 ZINC000000602486    0.0700
34     H34     0.5293   -0.3651    0.8851 H        1 ZINC000000602486    0.0900
35     H35    -1.0205   -0.3814    0.0098 H        1 ZINC000000602486    0.0800
36     H36     2.5453   -0.5232   -2.1762 H        1 ZINC000000602486    0.0900
37     H37     2.5986   -0.0180   -0.4703 H        1 ZINC000000602486    0.0900
38     H38     2.4995   -1.6621    1.3161 H        1 ZINC000000602486    0.1200
39     H39     2.9601   -3.9853    1.9898 H        1 ZINC000000602486    0.1200
40     H40     3.1358   -5.7506    0.2821 H        1 ZINC000000602486    0.1200
41     H41     2.8501   -5.1928   -2.0992 H        1 ZINC000000602486    0.1200
42     H42     2.3849   -2.8704   -2.7724 H        1 ZINC000000602486    0.1200
43     H43    -1.9801   -1.1142   -1.6127 H        1 ZINC000000602486    0.1300
44     H44    -1.7112    0.5706   -2.1201 H        1 ZINC000000602486    0.1300
45     H45    -2.6438    1.0980   -7.0687 H        1 ZINC000000602486    0.1000
46     H46    -2.3530   -0.4719   -7.8555 H        1 ZINC000000602486    0.0800
47     H47    -3.9921   -0.0378   -7.3141 H        1 ZINC000000602486    0.0800
48     H48    -3.7253   -2.9092   -7.1235 H        1 ZINC000000602486    0.1800
49     H49    -2.4326   -4.8352   -1.6339 H        1 ZINC000000602486    0.1300
50     H50    -2.6386   -7.0121   -0.5065 H        1 ZINC000000602486    0.1300
51     H51    -3.5427   -8.9507   -1.7217 H        1 ZINC000000602486    0.1300
52     H52    -4.2469   -8.7231   -4.0680 H        1 ZINC000000602486    0.1300
53     H53    -4.0542   -6.5524   -5.2094 H        1 ZINC000000602486    0.1400
@<TRIPOS>BOND
1     1     2     1
2     1     31    1
3     1     32    1
4     1     33    1
5     2     3     1
6     2     34    1
7     2     35    1
8     3     4     1
9     3     11    am
10    4     5     1
11    4     36    1
12    4     37    1
13    5     10    ar
14    5     6     ar
15    6     7     ar
16    6     38    1
17    7     8     ar
18    7     39    1
19    8     9     ar
20    8     40    1
21    9     10    ar
22    9     41    1
23    10    42    1
24    11    12    2
25    11    13    1
26    13    14    1
27    13    43    1
28    13    44    1
29    14    30    1
30    14    15    am
31    15    16    2
32    15    17    am
33    17    18    1
34    17    19    1
35    18    45    1
36    18    46    1
37    18    47    1
38    19    30    ar
39    19    20    ar
40    20    21    ar
41    20    48    1
42    21    22    ar
43    22    23    1
44    22    29    ar
45    23    28    ar
46    23    24    ar
47    24    25    ar
48    24    49    1
49    25    26    ar
50    25    50    1
51    26    27    ar
52    26    51    1
53    27    28    ar
54    27    52    1
55    28    53    1
56    29    30    ar
@<TRIPOS>SUBSTRUCTURE
1   ZINC000000602486 1     RESIDUE    1   A     ZIN   1
