@<TRIPOS>MOLECULE
ZINC000118912449
62    65    1     0     0
SMALL
USER_CHARGES
@<TRIPOS>ATOM
1      C1      2.6933    1.9166   -0.3137 C.3      1 ZINC000118912449   -0.1500
2      C2      2.6328    0.4114   -0.2702 C.2      1 ZINC000118912449    0.4600
3      O3      2.9916   -0.1792    0.7209 O.2      1 ZINC000118912449   -0.5100
4      O4      2.1803   -0.2730   -1.3325 O.3      1 ZINC000118912449   -0.3400
5      C5      2.1499   -1.7204   -1.2199 C.3      1 ZINC000118912449    0.0100
6      C6      1.6171   -2.3126   -2.4991 C.2      1 ZINC000118912449    0.3300
7      O7      1.2961   -1.5896   -3.4115 O.2      1 ZINC000118912449   -0.4000
8      C8      1.4848   -3.8072   -2.6397 C.3      1 ZINC000118912449    0.1100
9      O9      2.3632   -4.4692   -1.7274 O.3      1 ZINC000118912449   -0.5400
10     C10     0.0195   -4.2423   -2.3885 C.3      1 ZINC000118912449   -0.1400
11     C11    -0.4415   -4.9894   -3.6697 C.3      1 ZINC000118912449   -0.1100
12     C12     0.8792   -5.4708   -4.2802 C.3      1 ZINC000118912449   -0.0800
13     H13     1.2646   -6.3257   -3.7246 H        1 ZINC000118912449    0.0800
14     C14     0.8466   -5.7788   -5.7662 C.3      1 ZINC000118912449   -0.0800
15     H15     0.5282   -4.8945   -6.3183 H        1 ZINC000118912449    0.1000
16     C16    -0.1210   -6.9322   -6.0370 C.3      1 ZINC000118912449   -0.1100
17     C17    -0.1789   -7.2152   -7.5415 C.3      1 ZINC000118912449   -0.0600
18     H18    -0.5968   -6.3537   -8.0623 H        1 ZINC000118912449    0.0900
19     C19    -1.0470   -8.4477   -7.8025 C.3      1 ZINC000118912449   -0.1500
20     C20     1.2354   -7.4712   -8.0274 C.2      1 ZINC000118912449   -0.0200
21     C21     1.4848   -8.5680   -8.7293 C.2      1 ZINC000118912449   -0.2400
22     C22     2.8475   -8.8611   -9.1998 C.2      1 ZINC000118912449    0.4100
23     O23     3.0733   -9.8459   -9.8780 O.2      1 ZINC000118912449   -0.4600
24     C24     3.9321   -7.9353   -8.8318 C.2      1 ZINC000118912449   -0.2200
25     C25     3.6587   -6.8428   -8.1361 C.2      1 ZINC000118912449   -0.0600
26     C26     2.2899   -6.4596   -7.6884 C.3      1 ZINC000118912449   -0.0100
27     C27     1.9199   -5.1480   -8.3840 C.3      1 ZINC000118912449   -0.1400
28     C28     2.2735   -6.1663   -6.1861 C.3      1 ZINC000118912449   -0.0500
29     H29     2.5611   -7.0660   -5.6420 H        1 ZINC000118912449    0.0800
30     C30     3.2705   -5.0529   -5.8783 C.3      1 ZINC000118912449    0.1100
31     H31     4.2770   -5.4041   -6.1056 H        1 ZINC000118912449    0.0600
32     O32     2.9749   -3.9221   -6.7003 O.3      1 ZINC000118912449   -0.5400
33     C33     3.2091   -4.6280   -4.4026 C.3      1 ZINC000118912449   -0.1300
34     C34     1.7920   -4.2325   -4.0719 C.3      1 ZINC000118912449   -0.0400
35     C35     1.3114   -3.1595   -5.0510 C.3      1 ZINC000118912449   -0.1500
36     H36     3.6633    2.2302   -0.6994 H        1 ZINC000118912449    0.1100
37     H37     1.9044    2.2933   -0.9648 H        1 ZINC000118912449    0.1000
38     H38     2.5559    2.3150    0.6915 H        1 ZINC000118912449    0.1100
39     H39     3.1587   -2.0921   -1.0400 H        1 ZINC000118912449    0.1100
40     H40     1.5038   -2.0067   -0.3901 H        1 ZINC000118912449    0.1000
41     H41     2.2018   -4.2528   -0.7989 H        1 ZINC000118912449    0.3800
42     H42    -0.0303   -4.9096   -1.5280 H        1 ZINC000118912449    0.0900
43     H43    -0.6072   -3.3665   -2.2201 H        1 ZINC000118912449    0.0700
44     H44    -1.0794   -5.8355   -3.4143 H        1 ZINC000118912449    0.0700
45     H45    -0.9551   -4.3091   -4.3491 H        1 ZINC000118912449    0.0800
46     H46     0.2224   -7.8243   -5.5131 H        1 ZINC000118912449    0.0700
47     H47    -1.1151   -6.6630   -5.6801 H        1 ZINC000118912449    0.0700
48     H48    -2.0554   -8.2673   -7.4301 H        1 ZINC000118912449    0.0600
49     H49    -1.0852   -8.6450   -8.8738 H        1 ZINC000118912449    0.0600
50     H50    -0.6189   -9.3089   -7.2895 H        1 ZINC000118912449    0.0600
51     H51     0.6808   -9.2521   -8.9573 H        1 ZINC000118912449    0.1400
52     H52     4.9486   -8.1475   -9.1287 H        1 ZINC000118912449    0.1400
53     H53     4.4782   -6.1888   -7.8770 H        1 ZINC000118912449    0.1300
54     H54     1.5877   -5.3572   -9.4008 H        1 ZINC000118912449    0.0400
55     H55     1.1170   -4.6584   -7.8329 H        1 ZINC000118912449    0.0700
56     H56     2.7915   -4.4941   -8.4137 H        1 ZINC000118912449    0.1000
57     H57     3.5672   -3.1702   -6.5627 H        1 ZINC000118912449    0.3700
58     H58     3.4761   -5.4690   -3.7627 H        1 ZINC000118912449    0.0800
59     H59     3.8910   -3.7959   -4.2273 H        1 ZINC000118912449    0.0700
60     H60     1.2081   -3.5947   -6.0450 H        1 ZINC000118912449    0.1000
61     H61     0.3470   -2.7728   -4.7216 H        1 ZINC000118912449    0.0600
62     H62     2.0368   -2.3466   -5.0839 H        1 ZINC000118912449    0.0600
@<TRIPOS>BOND
1     1     2     1
2     1     36    1
3     1     37    1
4     1     38    1
5     2     3     2
6     2     4     1
7     4     5     1
8     5     6     1
9     5     39    1
10    5     40    1
11    6     7     2
12    6     8     1
13    8     34    1
14    8     9     1
15    8     10    1
16    9     41    1
17    10    11    1
18    10    42    1
19    10    43    1
20    11    12    1
21    11    44    1
22    11    45    1
23    12    13    1
24    12    34    1
25    12    14    1
26    14    15    1
27    14    28    1
28    14    16    1
29    16    17    1
30    16    46    1
31    16    47    1
32    17    18    1
33    17    19    1
34    17    20    1
35    19    48    1
36    19    49    1
37    19    50    1
38    20    26    1
39    20    21    2
40    21    22    1
41    21    51    1
42    22    23    2
43    22    24    1
44    24    25    2
45    24    52    1
46    25    26    1
47    25    53    1
48    26    27    1
49    26    28    1
50    27    54    1
51    27    55    1
52    27    56    1
53    28    29    1
54    28    30    1
55    30    31    1
56    30    32    1
57    30    33    1
58    32    57    1
59    33    34    1
60    33    58    1
61    33    59    1
62    34    35    1
63    35    60    1
64    35    61    1
65    35    62    1
@<TRIPOS>SUBSTRUCTURE
1   ZINC000118912449 1     RESIDUE    1   A     ZIN   1
