@<TRIPOS>MOLECULE
ZINC000040493529
31    31    1     0     0
SMALL
USER_CHARGES
@<TRIPOS>ATOM
1      O1      0.0021   -0.0041    0.0020 O.co2    1 ZINC000040493529   -0.7000
2      C2     -0.0145    1.2150    0.0087 C.2      1 ZINC000040493529    0.4900
3      O3      1.0330    1.8389    0.0021 O.co2    1 ZINC000040493529   -0.7000
4      C4     -1.3296    1.9507    0.0190 C.3      1 ZINC000040493529   -0.1900
5      C5     -2.4790    0.9408    0.0189 C.3      1 ZINC000040493529   -0.0800
6      C6     -3.8142    1.6877    0.0293 C.3      1 ZINC000040493529   -0.1400
7      C7     -4.9463    0.6929    0.0293 C.2      1 ZINC000040493529    0.5200
8      O8     -4.7085   -0.4963    0.0217 O.2      1 ZINC000040493529   -0.5200
9      N9     -6.2229    1.1249    0.0377 N.am     1 ZINC000040493529   -0.7500
10     C10    -7.3234    0.1578    0.0376 C.3      1 ZINC000040493529    0.1200
11     C11    -8.6586    0.9047    0.0480 C.3      1 ZINC000040493529   -0.0800
12     C12    -9.7907   -0.0900    0.0480 C.2      1 ZINC000040493529    0.0400
13     C13   -10.3237   -0.6823   -1.0377 C.2      1 ZINC000040493529    0.0400
14     N14   -11.3197   -1.5075   -0.5898 N.pl3    1 ZINC000040493529   -0.5100
15     C15   -11.3607   -1.3907    0.7550 C.cat    1 ZINC000040493529    0.3100
16     N16   -10.4401   -0.5451    1.1298 N.pl3    1 ZINC000040493529   -0.4700
17     H17   -10.2578   -0.2829    2.0457 H        1 ZINC000040493529    0.4700
18     H18    -1.3917    2.5717    0.9126 H        1 ZINC000040493529    0.0600
19     H19    -1.4001    2.5813   -0.8673 H        1 ZINC000040493529    0.0600
20     H20    -2.4169    0.3198   -0.8748 H        1 ZINC000040493529    0.0700
21     H21    -2.4085    0.3101    0.9052 H        1 ZINC000040493529    0.0700
22     H22    -3.8762    2.3086    0.9230 H        1 ZINC000040493529    0.0900
23     H23    -3.8847    2.3183   -0.8569 H        1 ZINC000040493529    0.0900
24     H24    -6.4131    2.0760    0.0437 H        1 ZINC000040493529    0.4000
25     H25    -7.2614   -0.4631   -0.8560 H        1 ZINC000040493529    0.0800
26     H26    -7.2529   -0.4728    0.9239 H        1 ZINC000040493529    0.0700
27     H27    -8.7207    1.5257    0.9417 H        1 ZINC000040493529    0.1000
28     H28    -8.7291    1.5354   -0.8382 H        1 ZINC000040493529    0.1200
29     H29   -10.0234   -0.5342   -2.0645 H        1 ZINC000040493529    0.2300
30     H30   -11.8897   -2.0709   -1.1362 H        1 ZINC000040493529    0.4700
31     H31   -12.0400   -1.9137    1.4118 H        1 ZINC000040493529    0.2700
@<TRIPOS>BOND
1     1     2     ar
2     2     3     ar
3     2     4     1
4     4     5     1
5     4     18    1
6     4     19    1
7     5     6     1
8     5     20    1
9     5     21    1
10    6     7     1
11    6     22    1
12    6     23    1
13    7     8     2
14    7     9     am
15    9     10    1
16    9     24    1
17    10    11    1
18    10    25    1
19    10    26    1
20    11    12    1
21    11    27    1
22    11    28    1
23    12    16    1
24    12    13    2
25    13    14    1
26    13    29    1
27    14    15    ar
28    14    30    1
29    15    16    ar
30    15    31    1
31    16    17    1
@<TRIPOS>SUBSTRUCTURE
1   ZINC000040493529 1     RESIDUE    1   A     ZIN   1
