@<TRIPOS>MOLECULE
ZINC000043177322
54    54    1     0     0
SMALL
USER_CHARGES
@<TRIPOS>ATOM
1      O1     -0.0179   -0.0441   -0.0066 O.co2    1 ZINC000043177322   -0.7100
2      C2     -0.0262    1.1750    0.0037 C.2      1 ZINC000043177322    0.4900
3      O3      1.0254    1.7919   -0.0011 O.co2    1 ZINC000043177322   -0.7200
4      C4     -1.3364    1.9195    0.0161 C.3      1 ZINC000043177322   -0.1800
5      C5     -2.4925    0.9173    0.0131 C.3      1 ZINC000043177322   -0.0800
6      C6     -3.8227    1.6732    0.0257 C.3      1 ZINC000043177322    0.1000
7      H7     -3.8513    2.3722   -0.8102 H        1 ZINC000043177322    0.0700
8      N8     -3.9530    2.4114    1.2843 N.am     1 ZINC000043177322   -0.7100
9      C9     -4.7353    3.5072    1.3449 C.2      1 ZINC000043177322    0.7100
10     O10    -5.3329    3.8831    0.3550 O.2      1 ZINC000043177322   -0.6100
11     N11    -4.8552    4.1864    2.5029 N.am     1 ZINC000043177322   -0.7200
12     C12    -5.7055    5.3775    2.5688 C.3      1 ZINC000043177322    0.1000
13     H13    -6.5720    5.2416    1.9217 H        1 ZINC000043177322    0.0800
14     C14    -6.1735    5.5910    4.0097 C.3      1 ZINC000043177322   -0.1000
15     C15    -7.0732    4.4276    4.4314 C.3      1 ZINC000043177322   -0.1200
16     C16    -7.5412    4.6410    5.8723 C.3      1 ZINC000043177322   -0.1300
17     C17    -8.4409    3.4776    6.2940 C.3      1 ZINC000043177322    0.1300
18     N18    -8.8890    3.6820    7.6737 N.am     1 ZINC000043177322   -0.7300
19     C19    -9.6969    2.7770    8.2609 C.2      1 ZINC000043177322    0.7000
20     O20   -10.0539    1.7910    7.6456 O.2      1 ZINC000043177322   -0.5700
21     N21   -10.1092    2.9651    9.5303 N.am     1 ZINC000043177322   -0.6900
22     C22   -11.0244    2.0773   10.1076 C.ar     1 ZINC000043177322    0.1900
23     C23   -11.9814    2.5462   10.9980 C.ar     1 ZINC000043177322   -0.1500
24     C24   -12.8835    1.6680   11.5658 C.ar     1 ZINC000043177322   -0.0700
25     C25   -12.8345    0.3225   11.2483 C.ar     1 ZINC000043177322   -0.1200
26     I26   -14.2049   -1.0061   12.1119 I        1 ZINC000043177322   -0.0600
27     C27   -11.8826   -0.1473   10.3613 C.ar     1 ZINC000043177322   -0.0600
28     C28   -10.9810    0.7270    9.7867 C.ar     1 ZINC000043177322   -0.1200
29     C29    -4.9212    6.5805    2.1119 C.2      1 ZINC000043177322    0.4900
30     O30    -3.7596    6.4546    1.7636 O.co2    1 ZINC000043177322   -0.6800
31     O31    -5.4482    7.6797    2.0907 O.co2    1 ZINC000043177322   -0.7200
32     C32    -4.9593    0.6918   -0.1011 C.2      1 ZINC000043177322    0.5000
33     O33    -5.4596    0.2060    0.8990 O.co2    1 ZINC000043177322   -0.7000
34     O34    -5.3786    0.3836   -1.2037 O.co2    1 ZINC000043177322   -0.7100
35     H35    -1.3943    2.5383    0.9116 H        1 ZINC000043177322    0.0600
36     H36    -1.4026    2.5532   -0.8683 H        1 ZINC000043177322    0.0500
37     H37    -2.4346    0.2986   -0.8824 H        1 ZINC000043177322    0.0600
38     H38    -2.4263    0.2836    0.8975 H        1 ZINC000043177322    0.0600
39     H39    -3.4763    2.1115    2.0741 H        1 ZINC000043177322    0.3800
40     H40    -4.3785    3.8865    3.2926 H        1 ZINC000043177322    0.3800
41     H41    -5.3074    5.6382    4.6698 H        1 ZINC000043177322    0.0600
42     H42    -6.7320    6.5247    4.0758 H        1 ZINC000043177322    0.0700
43     H43    -7.9393    4.3803    3.7713 H        1 ZINC000043177322    0.0600
44     H44    -6.5147    3.4939    4.3653 H        1 ZINC000043177322    0.0700
45     H45    -6.6751    4.6883    6.5324 H        1 ZINC000043177322    0.0700
46     H46    -8.0997    5.5747    5.9384 H        1 ZINC000043177322    0.0700
47     H47    -9.3070    3.4304    5.6339 H        1 ZINC000043177322    0.0700
48     H48    -7.8824    2.5439    6.2279 H        1 ZINC000043177322    0.0700
49     H49    -8.6042    4.4686    8.1647 H        1 ZINC000043177322    0.4000
50     H50    -9.7716    3.7156   10.0437 H        1 ZINC000043177322    0.4100
51     H51   -12.0199    3.5965   11.2465 H        1 ZINC000043177322    0.1300
52     H52   -13.6277    2.0320   12.2586 H        1 ZINC000043177322    0.1300
53     H53   -11.8466   -1.1983   10.1152 H        1 ZINC000043177322    0.1300
54     H54   -10.2382    0.3597    9.0940 H        1 ZINC000043177322    0.1500
@<TRIPOS>BOND
1     1     2     ar
2     2     3     ar
3     2     4     1
4     4     5     1
5     4     35    1
6     4     36    1
7     5     6     1
8     5     37    1
9     5     38    1
10    6     7     1
11    6     8     1
12    6     32    1
13    8     9     am
14    8     39    1
15    9     10    2
16    9     11    am
17    11    12    1
18    11    40    1
19    12    13    1
20    12    14    1
21    12    29    1
22    14    15    1
23    14    41    1
24    14    42    1
25    15    16    1
26    15    43    1
27    15    44    1
28    16    17    1
29    16    45    1
30    16    46    1
31    17    18    1
32    17    47    1
33    17    48    1
34    18    19    am
35    18    49    1
36    19    20    2
37    19    21    am
38    21    22    1
39    21    50    1
40    22    28    ar
41    22    23    ar
42    23    24    ar
43    23    51    1
44    24    25    ar
45    24    52    1
46    25    26    1
47    25    27    ar
48    27    28    ar
49    27    53    1
50    28    54    1
51    29    30    ar
52    29    31    ar
53    32    33    ar
54    32    34    ar
@<TRIPOS>SUBSTRUCTURE
1   ZINC000043177322 1     RESIDUE    1   A     ZIN   1
