@<TRIPOS>MOLECULE
ZINC000003820435
63    67    1     0     0
SMALL
USER_CHARGES
@<TRIPOS>ATOM
1      C1     -0.2701    1.6874    0.1848 C.3      1 ZINC000003820435   -0.1900
2      C2     -0.1294    0.1655    0.1139 C.3      1 ZINC000003820435   -0.0100
3      N3      0.5962   -0.3148    1.2974 N.4      1 ZINC000003820435   -0.3900
4      H4      1.4791    0.1685    1.3685 H        1 ZINC000003820435    0.4200
5      C5      0.8385   -1.7568    1.1692 C.3      1 ZINC000003820435    0.0000
6      C6      1.6644   -2.2470    2.3604 C.3      1 ZINC000003820435   -0.1600
7      C7      0.8960   -1.9701    3.6558 C.3      1 ZINC000003820435    0.1400
8      N8      1.7134   -2.3675    4.8048 N.pl3    1 ZINC000003820435   -0.7400
9      C9      1.0998   -2.7113    6.0147 C.ar     1 ZINC000003820435    0.1900
10     C10    -0.2861   -2.6812    6.1252 C.ar     1 ZINC000003820435   -0.1300
11     C11    -0.9030   -3.0175    7.3130 C.ar     1 ZINC000003820435   -0.0800
12     C12    -0.1429   -3.3910    8.4150 C.ar     1 ZINC000003820435    0.1200
13     N13    -0.5055   -3.7691    9.7047 N.am     1 ZINC000003820435   -0.6400
14     C14     0.5748   -4.0485   10.4534 C.2      1 ZINC000003820435    0.5500
15     O15     0.5655   -4.4048   11.6183 O.2      1 ZINC000003820435   -0.4900
16     C16     1.7690   -3.8493    9.6216 C.2      1 ZINC000003820435   -0.0300
17     C17     3.0974   -4.0250    9.9941 C.2      1 ZINC000003820435    0.0200
18     C18     3.4353   -4.3182   11.3932 C.cat    1 ZINC000003820435    0.3400
19     N19     4.0765   -5.3861   11.8257 N.pl3    1 ZINC000003820435   -0.4500
20     H20     4.4032   -6.1094   11.2681 H        1 ZINC000003820435    0.4600
21     C21     4.2053   -5.3142   13.1492 C.2      1 ZINC000003820435    0.0500
22     C22     4.8788   -6.3382   14.0259 C.3      1 ZINC000003820435   -0.1000
23     C23     3.6278   -4.1638   13.5740 C.2      1 ZINC000003820435    0.0500
24     N24     3.1441   -3.5274   12.4707 N.pl3    1 ZINC000003820435   -0.4800
25     C25     4.1681   -3.9169    8.9830 C.ar     1 ZINC000003820435   -0.0600
26     C26     4.2395   -4.8385    7.9354 C.ar     1 ZINC000003820435   -0.1000
27     C27     5.2420   -4.7326    6.9938 C.ar     1 ZINC000003820435   -0.0800
28     C28     6.1768   -3.7169    7.0843 C.ar     1 ZINC000003820435   -0.1300
29     C29     6.1133   -2.7982    8.1207 C.ar     1 ZINC000003820435    0.1100
30     F30     7.0299   -1.8091    8.2023 F        1 ZINC000003820435   -0.1200
31     C31     5.1109   -2.8891    9.0666 C.ar     1 ZINC000003820435   -0.1300
32     C32     1.2547   -3.4218    8.3037 C.ar     1 ZINC000003820435   -0.0900
33     C33     1.8728   -3.0875    7.1023 C.ar     1 ZINC000003820435   -0.1100
34     C34     0.5839   -0.4733    3.7427 C.3      1 ZINC000003820435   -0.1700
35     C35    -0.2027   -0.0504    2.5001 C.3      1 ZINC000003820435   -0.0100
36     H36     0.7198    2.1428    0.2136 H        1 ZINC000003820435    0.0800
37     H37    -0.8085    2.0438   -0.6934 H        1 ZINC000003820435    0.1100
38     H38    -0.8218    1.9598    1.0845 H        1 ZINC000003820435    0.0800
39     H39    -1.1193   -0.2899    0.0850 H        1 ZINC000003820435    0.1300
40     H40     0.4222   -0.1069   -0.7858 H        1 ZINC000003820435    0.1300
41     H41    -0.1151   -2.2844    1.1471 H        1 ZINC000003820435    0.1300
42     H42     1.3826   -1.9526    0.2452 H        1 ZINC000003820435    0.1400
43     H43     1.8416   -3.3182    2.2643 H        1 ZINC000003820435    0.1200
44     H44     2.6183   -1.7202    2.3834 H        1 ZINC000003820435    0.0900
45     H45    -0.0342   -2.5382    3.6564 H        1 ZINC000003820435    0.1000
46     H46     2.6800   -2.3924    4.7269 H        1 ZINC000003820435    0.4100
47     H47    -0.8849   -2.3919    5.2742 H        1 ZINC000003820435    0.1400
48     H48    -1.9802   -2.9900    7.3866 H        1 ZINC000003820435    0.1400
49     H49    -1.4205   -3.8238   10.0222 H        1 ZINC000003820435    0.4300
50     H50     5.9365   -6.0937   14.1235 H        1 ZINC000003820435    0.1000
51     H51     4.4129   -6.3357   15.0113 H        1 ZINC000003820435    0.1100
52     H52     4.7742   -7.3260   13.5771 H        1 ZINC000003820435    0.0900
53     H53     3.5662   -3.8154   14.5944 H        1 ZINC000003820435    0.2300
54     H54     2.6769   -2.6776   12.4532 H        1 ZINC000003820435    0.4600
55     H55     3.5112   -5.6328    7.8630 H        1 ZINC000003820435    0.1400
56     H56     5.2974   -5.4449    6.1838 H        1 ZINC000003820435    0.1500
57     H57     6.9599   -3.6395    6.3446 H        1 ZINC000003820435    0.1500
58     H58     5.0614   -2.1732    9.8737 H        1 ZINC000003820435    0.1400
59     H59     2.9492   -3.1177    7.0188 H        1 ZINC000003820435    0.1400
60     H60    -0.0111   -0.2767    4.6345 H        1 ZINC000003820435    0.1100
61     H61     1.5155    0.0903    3.7943 H        1 ZINC000003820435    0.0900
62     H62    -0.4273    1.0146    2.5578 H        1 ZINC000003820435    0.1400
63     H63    -1.1338   -0.6150    2.4505 H        1 ZINC000003820435    0.1300
@<TRIPOS>BOND
1     1     2     1
2     1     36    1
3     1     37    1
4     1     38    1
5     2     3     1
6     2     39    1
7     2     40    1
8     3     4     1
9     3     35    1
10    3     5     1
11    5     6     1
12    5     41    1
13    5     42    1
14    6     7     1
15    6     43    1
16    6     44    1
17    7     8     1
18    7     34    1
19    7     45    1
20    8     9     1
21    8     46    1
22    9     33    ar
23    9     10    ar
24    10    11    ar
25    10    47    1
26    11    12    ar
27    11    48    1
28    12    32    ar
29    12    13    1
30    13    14    am
31    13    49    1
32    14    15    2
33    14    16    1
34    16    17    2
35    16    32    1
36    17    18    1
37    17    25    1
38    18    24    ar
39    18    19    ar
40    19    20    1
41    19    21    1
42    21    22    1
43    21    23    2
44    22    50    1
45    22    51    1
46    22    52    1
47    23    24    1
48    23    53    1
49    24    54    1
50    25    31    ar
51    25    26    ar
52    26    27    ar
53    26    55    1
54    27    28    ar
55    27    56    1
56    28    29    ar
57    28    57    1
58    29    30    1
59    29    31    ar
60    31    58    1
61    32    33    ar
62    33    59    1
63    34    35    1
64    34    60    1
65    34    61    1
66    35    62    1
67    35    63    1
@<TRIPOS>SUBSTRUCTURE
1   ZINC000003820435 1     RESIDUE    1   A     ZIN   1
