@<TRIPOS>MOLECULE
ZINC000005425356
  36   39    0    0    0
SMALL
USER_CHARGES
NO_NAME
@<TRIPOS>ATOM
    1 Cl1       0.0307    -0.0189    -0.0517 Cl     1 <0>      -0.0500
    2 C2       -0.0033     1.7161    -0.0050 C.ar   1 <0>      -0.0300
    3 C3       -1.2137     2.3832     0.0518 C.ar   1 <0>      -0.0800
    4 C4       -1.2401     3.7648     0.0890 C.ar   1 <0>      -0.1000
    5 C5       -0.0573     4.4797     0.0694 C.ar   1 <0>      -0.0900
    6 C6        1.1529     3.8134     0.0126 C.ar   1 <0>      -0.1200
    7 C7        2.4421     4.5936    -0.0088 C.3    1 <0>       0.2300
    8 H8        2.2215     5.6576    -0.0941 H      1 <0>       0.1500
    9 C9        3.2740     4.1570    -1.1870 C.ar   1 <0>      -0.1100
   10 C10       2.6532     3.8141    -2.3794 C.ar   1 <0>      -0.1000
   11 C11       3.3897     3.4162    -3.4593 C.ar   1 <0>      -0.0500
   12 C12       4.7822     3.3523    -3.3668 C.ar   1 <0>       0.0700
   13 N13       5.7637     3.0050    -4.2386 N.2    1 <0>      -0.4900
   14 C14       6.9230     3.1141    -3.6582 C.2    1 <0>       0.2900
   15 N15       6.7656     3.5386    -2.3753 N.pl3  1 <0>      -0.6000
   16 C16       5.4116     3.6995    -2.1591 C.ar   1 <0>       0.0400
   17 C17       4.6474     4.1064    -1.0744 C.ar   1 <0>      -0.0900
   18 N18       3.1831     4.3464     1.2306 N.pl3  1 <0>      -0.4000
   19 C19       3.6385     3.1351     1.6768 C.2    1 <0>       0.0300
   20 C20       4.2627     3.3611     2.8485 C.2    1 <0>       0.0000
   21 N21       4.1903     4.6745     3.1106 N.pl3  1 <0>      -0.4800
   22 H22       4.5594     5.1120     3.8938 H      1 <0>       0.4700
   23 C23       3.5494     5.2717     2.1434 C.cat  1 <0>       0.2900
   24 C24       1.1807     2.4322    -0.0188 C.ar   1 <0>      -0.0900
   25 H25      -2.1380     1.8248     0.0668 H      1 <0>       0.1400
   26 H26      -2.1851     4.2858     0.1330 H      1 <0>       0.1500
   27 H27      -0.0784     5.5591     0.0980 H      1 <0>       0.1400
   28 H28       1.5769     3.8619    -2.4547 H      1 <0>       0.1400
   29 H29       2.8962     3.1512    -4.3827 H      1 <0>       0.1400
   30 H30       7.8720     2.8988    -4.1265 H      1 <0>       0.2300
   31 H31       7.4735     3.6980    -1.7316 H      1 <0>       0.4300
   32 H32       5.1261     4.3801    -0.1457 H      1 <0>       0.1100
   33 H33       3.5198     2.1814     1.1840 H      1 <0>       0.2200
   34 H34       4.7382     2.6155     3.4684 H      1 <0>       0.2200
   35 H35       3.3407     6.3298     2.0857 H      1 <0>       0.2600
   36 H36       2.1261     1.9118    -0.0628 H      1 <0>       0.1300
@<TRIPOS>BOND
   1    1    2 1
   2    2   24 ar
   3    2    3 ar
   4    3    4 ar
   5    3   25 1
   6    4    5 ar
   7    4   26 1
   8    5    6 ar
   9    5   27 1
  10    6    7 1
  11    6   24 ar
  12    7    8 1
  13    7    9 1
  14    7   18 1
  15    9   17 ar
  16    9   10 ar
  17   10   11 ar
  18   10   28 1
  19   11   12 ar
  20   11   29 1
  21   12   16 ar
  22   12   13 1
  23   13   14 2
  24   14   15 1
  25   14   30 1
  26   15   16 1
  27   15   31 1
  28   16   17 ar
  29   17   32 1
  30   18   23 ar
  31   18   19 1
  32   19   20 2
  33   19   33 1
  34   20   21 1
  35   20   34 1
  36   21   22 1
  37   21   23 ar
  38   23   35 1
  39   24   36 1
