@<TRIPOS>MOLECULE
ZINC000003822129
  31   33    0    0    0
SMALL
USER_CHARGES
NO_NAME
@<TRIPOS>ATOM
    1 O1       -0.0164     1.3548     0.0095 O.3    1 <0>      -0.5000
    2 C2        0.0021    -0.0041     0.0020 C.ar   1 <0>       0.1100
    3 C3        0.0058    -0.6929    -1.2019 C.ar   1 <0>      -0.1300
    4 C4        0.0245    -2.0733    -1.2044 C.ar   1 <0>      -0.0800
    5 C5        0.0395    -2.7738    -0.0097 C.ar   1 <0>      -0.0900
    6 C6        0.0604    -4.2649     0.2516 C.3    1 <0>      -0.0900
    7 C7        0.5096    -4.4114     1.7209 C.3    1 <0>      -0.1200
    8 C8        0.0542    -3.0738     2.3417 C.3    1 <0>      -0.0400
    9 H9        0.7620    -2.7507     3.1051 H      1 <0>       0.0900
   10 C10      -1.3454    -3.2169     2.9431 C.3    1 <0>      -0.0500
   11 C11      -1.7213    -1.9402     3.6501 C.2    1 <0>       0.0700
   12 C12      -1.4029    -1.5984     4.9132 C.2    1 <0>       0.0000
   13 N13      -1.9249    -0.3877     5.1595 N.pl3  1 <0>      -0.4700
   14 H14      -1.8464     0.0982     5.9954 H      1 <0>       0.4700
   15 C15      -2.5548     0.0337     4.0971 C.cat  1 <0>       0.3000
   16 N16      -2.4470    -0.9027     3.1300 N.pl3  1 <0>      -0.5100
   17 C17       0.0359    -2.0892     1.1920 C.ar   1 <0>      -0.1000
   18 C18       0.0230    -0.7056     1.1977 C.ar   1 <0>      -0.1400
   19 H19       0.8616     1.7601     0.0033 H      1 <0>       0.4000
   20 H20      -0.0063    -0.1504    -2.1356 H      1 <0>       0.1400
   21 H21       0.0270    -2.6093    -2.1420 H      1 <0>       0.1300
   22 H22      -0.9357    -4.6864     0.1168 H      1 <0>       0.0900
   23 H23       0.7724    -4.7552    -0.4123 H      1 <0>       0.0900
   24 H24       0.0054    -5.2516     2.1982 H      1 <0>       0.0900
   25 H25       1.5922    -4.5200     1.7860 H      1 <0>       0.0900
   26 H26      -2.0637    -3.4170     2.1481 H      1 <0>       0.1000
   27 H27      -1.3522    -4.0421     3.6552 H      1 <0>       0.1200
   28 H28      -0.8279    -2.1946     5.6063 H      1 <0>       0.2200
   29 H29      -3.0729     0.9768     4.0051 H      1 <0>       0.2700
   30 H30      -2.8197    -0.8523     2.2359 H      1 <0>       0.4600
   31 H31       0.0257    -0.1708     2.1359 H      1 <0>       0.1100
@<TRIPOS>BOND
   1    1    2 1
   2    1   19 1
   3    2   18 ar
   4    2    3 ar
   5    3    4 ar
   6    3   20 1
   7    4    5 ar
   8    4   21 1
   9    5   17 ar
  10    5    6 1
  11    6    7 1
  12    6   22 1
  13    6   23 1
  14    7    8 1
  15    7   24 1
  16    7   25 1
  17    8    9 1
  18    8   10 1
  19    8   17 1
  20   10   11 1
  21   10   26 1
  22   10   27 1
  23   11   16 1
  24   11   12 2
  25   12   13 1
  26   12   28 1
  27   13   14 1
  28   13   15 ar
  29   15   16 ar
  30   15   29 1
  31   16   30 1
  32   17   18 ar
  33   18   31 1
