@<TRIPOS>MOLECULE
ZINC000143595671
  57   61    0    0    0
SMALL
USER_CHARGES
NO_NAME
@<TRIPOS>ATOM
    1 C1        0.5749     1.4504     1.1869 C.3    1 <0>       0.1100
    2 N2        0.5585    -0.0116     1.0952 N.pl3  1 <0>      -0.6400
    3 C3        0.7502    -0.6910    -0.1985 C.3    1 <0>       0.1200
    4 C4       -0.3657    -1.7117    -0.4643 C.3    1 <0>       0.1300
    5 N5       -0.5406    -2.5413     0.7330 N.pl3  1 <0>      -0.6300
    6 C6       -0.1896    -2.0697     1.9974 C.ar   1 <0>       0.1300
    7 C7       -0.4338    -2.9791     3.0098 C.ar   1 <0>      -0.1300
    8 C8       -0.1410    -2.6502     4.3214 C.ar   1 <0>      -0.1000
    9 C9        0.3997    -1.3890     4.5570 C.ar   1 <0>      -0.1400
   10 C10       0.6482    -0.4793     3.5384 C.ar   1 <0>      -0.1300
   11 C11       0.3667    -0.7995     2.2324 C.ar   1 <0>       0.1500
   12 C12      -1.0063    -4.2090     2.3684 C.3    1 <0>      -0.0400
   13 H13      -0.2596    -4.9933     2.4920 H      1 <0>       0.0800
   14 C14      -2.2449    -4.6790     3.0574 C.3    1 <0>       0.0700
   15 N15      -3.4652    -4.7433     2.2811 N.3    1 <0>      -0.5400
   16 C16      -4.4469    -5.6327     2.9161 C.3    1 <0>       0.0600
   17 C17      -4.0238    -7.0886     2.7110 C.3    1 <0>      -0.1500
   18 C18      -4.9726    -8.0088     3.4817 C.3    1 <0>      -0.1600
   19 C19      -4.5558    -9.4429     3.2797 C.2    1 <0>       0.4000
   20 O20      -3.5947    -9.7033     2.5875 O.2    1 <0>      -0.4500
   21 C21      -5.3145   -10.5262     3.9217 C.ar   1 <0>      -0.1900
   22 C22      -6.4275   -10.2296     4.7164 C.ar   1 <0>      -0.0400
   23 C23      -7.1342   -11.2494     5.3147 C.ar   1 <0>      -0.1700
   24 C24      -6.7445   -12.5680     5.1313 C.ar   1 <0>       0.1300
   25 F25      -7.4419   -13.5636     5.7210 F      1 <0>      -0.1300
   26 C26      -5.6421   -12.8690     4.3449 C.ar   1 <0>      -0.1700
   27 C27      -4.9301   -11.8590     3.7362 C.ar   1 <0>      -0.0300
   28 C28      -3.2280    -5.1325     0.8870 C.3    1 <0>       0.0600
   29 C29      -2.4126    -4.0179     0.2319 C.3    1 <0>      -0.1300
   30 C30      -1.0672    -3.8975     0.8829 C.3    1 <0>       0.1800
   31 H31      -0.3840    -4.5890     0.3897 H      1 <0>       0.0600
   32 H32       1.5944     1.7919     1.3663 H      1 <0>       0.0400
   33 H33       0.2077     1.8772     0.2535 H      1 <0>       0.0600
   34 H34      -0.0653     1.7701     2.0092 H      1 <0>       0.0600
   35 H35       0.7507     0.0526    -0.9954 H      1 <0>       0.0900
   36 H36       1.7107    -1.2062    -0.1921 H      1 <0>       0.0600
   37 H37      -1.2956    -1.1874    -0.6847 H      1 <0>       0.0600
   38 H38      -0.0901    -2.3427    -1.3092 H      1 <0>       0.0800
   39 H39      -0.3240    -3.3434     5.1292 H      1 <0>       0.1200
   40 H40       0.6347    -1.1071     5.5727 H      1 <0>       0.1200
   41 H41       1.0695     0.4870     3.7736 H      1 <0>       0.1200
   42 H42      -2.0485    -5.6759     3.4521 H      1 <0>       0.0400
   43 H43      -2.4246    -4.0191     3.9061 H      1 <0>       0.0800
   44 H44      -4.4969    -5.4157     3.9831 H      1 <0>       0.0800
   45 H45      -5.4268    -5.4723     2.4664 H      1 <0>       0.0800
   46 H46      -4.0637    -7.3325     1.6494 H      1 <0>       0.0700
   47 H47      -3.0066    -7.2264     3.0775 H      1 <0>       0.0700
   48 H48      -4.9327    -7.7650     4.5433 H      1 <0>       0.1000
   49 H49      -5.9898    -7.8710     3.1152 H      1 <0>       0.1000
   50 H50      -6.7315    -9.2033     4.8605 H      1 <0>       0.1400
   51 H51      -7.9934   -11.0218     5.9282 H      1 <0>       0.1400
   52 H52      -5.3439   -13.8977     4.2062 H      1 <0>       0.1400
   53 H53      -4.0720   -12.0946     3.1242 H      1 <0>       0.1400
   54 H54      -2.6698    -6.0682     0.8536 H      1 <0>       0.0400
   55 H55      -4.1794    -5.2492     0.3681 H      1 <0>       0.0800
   56 H56      -2.2881    -4.2389    -0.8282 H      1 <0>       0.0700
   57 H57      -2.9434    -3.0722     0.3414 H      1 <0>       0.0800
@<TRIPOS>BOND
   1    1    2 1
   2    1   32 1
   3    1   33 1
   4    1   34 1
   5    2   11 1
   6    2    3 1
   7    3    4 1
   8    3   35 1
   9    3   36 1
  10    4    5 1
  11    4   37 1
  12    4   38 1
  13    5   30 1
  14    5    6 1
  15    6   11 ar
  16    6    7 ar
  17    7    8 ar
  18    7   12 1
  19    8    9 ar
  20    8   39 1
  21    9   10 ar
  22    9   40 1
  23   10   11 ar
  24   10   41 1
  25   12   13 1
  26   12   30 1
  27   12   14 1
  28   14   15 1
  29   14   42 1
  30   14   43 1
  31   15   16 1
  32   15   28 1
  33   16   17 1
  34   16   44 1
  35   16   45 1
  36   17   18 1
  37   17   46 1
  38   17   47 1
  39   18   19 1
  40   18   48 1
  41   18   49 1
  42   19   20 2
  43   19   21 1
  44   21   27 ar
  45   21   22 ar
  46   22   23 ar
  47   22   50 1
  48   23   24 ar
  49   23   51 1
  50   24   25 1
  51   24   26 ar
  52   26   27 ar
  53   26   52 1
  54   27   53 1
  55   28   29 1
  56   28   54 1
  57   28   55 1
  58   29   30 1
  59   29   56 1
  60   29   57 1
  61   30   31 1
