@<TRIPOS>MOLECULE
ZINC000103298102
68    72    1     0     0
SMALL
USER_CHARGES
@<TRIPOS>ATOM
1      C1     -0.7965   -2.7442    2.0566 C.3      1 ZINC000103298102   -0.1100
2      C2     -0.1607   -3.9488    2.7012 C.ar     1 ZINC000103298102    0.1000
3      N3     -0.0846   -5.0822    2.0330 N.ar     1 ZINC000103298102   -0.4700
4      C4      0.4634   -6.1619    2.5561 C.ar     1 ZINC000103298102    0.0800
5      C5      0.9834   -6.1453    3.8367 C.ar     1 ZINC000103298102   -0.1600
6      C6      0.9249   -4.9749    4.5758 C.ar     1 ZINC000103298102   -0.0800
7      C7      0.3445   -3.8520    3.9915 C.ar     1 ZINC000103298102    0.1100
8      N8      0.2624   -2.6471    4.6972 N.am     1 ZINC000103298102   -0.6700
9      C9      0.1472   -2.6590    6.0400 C.2      1 ZINC000103298102    0.5700
10     O10     0.1795   -3.7138    6.6434 O.2      1 ZINC000103298102   -0.5300
11     C11    -0.0183   -1.3896    6.7789 C.ar     1 ZINC000103298102   -0.1600
12     C12    -0.0619   -0.1756    6.0916 C.ar     1 ZINC000103298102   -0.0900
13     C13    -0.2176    0.9986    6.7929 C.ar     1 ZINC000103298102   -0.1100
14     C14    -0.3313    0.9901    8.1789 C.ar     1 ZINC000103298102    0.0000
15     C15    -0.2858   -0.2060    8.8634 C.ar     1 ZINC000103298102   -0.0900
16     C16    -0.1379   -1.3951    8.1670 C.ar     1 ZINC000103298102   -0.0600
17     C17    -0.3903   -0.2824   10.3644 C.3      1 ZINC000103298102   -0.0800
18     C18    -1.0023    1.0003   10.9236 C.3      1 ZINC000103298102   -0.1200
19     C19    -0.2241    2.1952   10.3652 C.3      1 ZINC000103298102   -0.0600
20     H20     0.8431    2.0389   10.5225 H        1 ZINC000103298102    0.0700
21     C21    -0.6627    3.4709   11.0832 C.3      1 ZINC000103298102   -0.1600
22     C22    -0.4662    4.6769   10.1670 C.3      1 ZINC000103298102    0.1400
23     O23    -1.6369    4.8613    9.3685 O.3      1 ZINC000103298102   -0.6700
24     P24    -2.9890    5.5265    9.9353 P.3      1 ZINC000103298102    2.0600
25     O25    -3.4337    4.7773   11.2374 O.co2    1 ZINC000103298102   -1.1600
26     O26    -2.7303    7.0363   10.2641 O.co2    1 ZINC000103298102   -1.1500
27     O27    -4.1190    5.4133    8.8560 O.co2    1 ZINC000103298102   -1.1400
28     C28    -0.2297    5.9268   11.0171 C.3      1 ZINC000103298102    0.4100
29     F29     0.9901    5.8079   11.6918 F        1 ZINC000103298102   -0.2100
30     F30    -0.1968    7.0543   10.1894 F        1 ZINC000103298102   -0.1700
31     F31    -1.2660    6.0612   11.9472 F        1 ZINC000103298102   -0.1400
32     C32     0.7383    4.4518    9.2555 C.3      1 ZINC000103298102   -0.1100
33     C33     0.4324    3.3475    8.2458 C.3      1 ZINC000103298102   -0.1200
34     C34    -0.5044    2.3151    8.8725 C.3      1 ZINC000103298102   -0.0100
35     C35    -1.9495    2.7831    8.6894 C.3      1 ZINC000103298102   -0.1400
36     C36    -2.1147    3.3772    7.3143 C.ar     1 ZINC000103298102   -0.0200
37     C37    -1.6167    4.6376    7.0415 C.ar     1 ZINC000103298102   -0.0900
38     C38    -1.7682    5.1826    5.7802 C.ar     1 ZINC000103298102   -0.1400
39     C39    -2.4173    4.4670    4.7915 C.ar     1 ZINC000103298102   -0.1400
40     C40    -2.9145    3.2063    5.0640 C.ar     1 ZINC000103298102   -0.1400
41     C41    -2.7592    2.6595    6.3241 C.ar     1 ZINC000103298102   -0.1300
42     H42    -0.0363   -2.1741    1.5225 H        1 ZINC000103298102    0.0800
43     H43    -1.5652   -3.0702    1.3559 H        1 ZINC000103298102    0.0800
44     H44    -1.2480   -2.1167    2.8251 H        1 ZINC000103298102    0.0700
45     H45     0.5061   -7.0717    1.9758 H        1 ZINC000103298102    0.1500
46     H46     1.4298   -7.0346    4.2565 H        1 ZINC000103298102    0.1400
47     H47     1.3233   -4.9333    5.5788 H        1 ZINC000103298102    0.1600
48     H48     0.2884   -1.8029    4.2201 H        1 ZINC000103298102    0.4100
49     H49     0.0265   -0.1575    5.0153 H        1 ZINC000103298102    0.1200
50     H50    -0.2514    1.9377    6.2604 H        1 ZINC000103298102    0.1400
51     H51    -0.1060   -2.3312    8.7046 H        1 ZINC000103298102    0.1300
52     H52    -1.0177   -1.1304   10.6392 H        1 ZINC000103298102    0.0700
53     H53     0.6042   -0.4216   10.7883 H        1 ZINC000103298102    0.0700
54     H54    -2.0469    1.0699   10.6204 H        1 ZINC000103298102    0.0800
55     H55    -0.9335    0.9947   12.0114 H        1 ZINC000103298102    0.0700
56     H56    -1.7152    3.3900   11.3544 H        1 ZINC000103298102    0.1300
57     H57    -0.0664    3.6013   11.9862 H        1 ZINC000103298102    0.0700
58     H58     0.9665    5.3752    8.7233 H        1 ZINC000103298102    0.0700
59     H59     1.5988    4.1621    9.8586 H        1 ZINC000103298102    0.0700
60     H60    -0.0445    3.7822    7.3674 H        1 ZINC000103298102    0.1000
61     H61     1.3616    2.8615    7.9484 H        1 ZINC000103298102    0.0500
62     H62    -2.6235    1.9338    8.8016 H        1 ZINC000103298102    0.0400
63     H63    -2.1856    3.5361    9.4412 H        1 ZINC000103298102    0.1900
64     H64    -1.1096    5.1967    7.8140 H        1 ZINC000103298102    0.1700
65     H65    -1.3797    6.1675    5.5673 H        1 ZINC000103298102    0.1100
66     H66    -2.5362    4.8930    3.8063 H        1 ZINC000103298102    0.1000
67     H67    -3.4219    2.6473    4.2916 H        1 ZINC000103298102    0.1000
68     H68    -3.1476    1.6746    6.5370 H        1 ZINC000103298102    0.1000
@<TRIPOS>BOND
1     1     2     1
2     1     42    1
3     1     43    1
4     1     44    1
5     2     7     ar
6     2     3     ar
7     3     4     ar
8     4     5     ar
9     4     45    1
10    5     6     ar
11    5     46    1
12    6     7     ar
13    6     47    1
14    7     8     1
15    8     9     am
16    8     48    1
17    9     10    2
18    9     11    1
19    11    16    ar
20    11    12    ar
21    12    13    ar
22    12    49    1
23    13    14    ar
24    13    50    1
25    14    34    1
26    14    15    ar
27    15    16    ar
28    15    17    1
29    16    51    1
30    17    18    1
31    17    52    1
32    17    53    1
33    18    19    1
34    18    54    1
35    18    55    1
36    19    20    1
37    19    34    1
38    19    21    1
39    21    22    1
40    21    56    1
41    21    57    1
42    22    23    1
43    22    28    1
44    22    32    1
45    23    24    1
46    24    25    ar
47    24    26    ar
48    24    27    ar
49    28    29    1
50    28    30    1
51    28    31    1
52    32    33    1
53    32    58    1
54    32    59    1
55    33    34    1
56    33    60    1
57    33    61    1
58    34    35    1
59    35    36    1
60    35    62    1
61    35    63    1
62    36    41    ar
63    36    37    ar
64    37    38    ar
65    37    64    1
66    38    39    ar
67    38    65    1
68    39    40    ar
69    39    66    1
70    40    41    ar
71    40    67    1
72    41    68    1
@<TRIPOS>SUBSTRUCTURE
1   ZINC000103298102 1     RESIDUE    1   A     ZIN   1
