@<TRIPOS>MOLECULE
ZINC000000003897
41    44    1     0     0
SMALL
USER_CHARGES
@<TRIPOS>ATOM
1      C1     -0.0177    1.4548    0.0100 C.3      1 ZINC000000003897    0.0500
2      N2      0.0021   -0.0041    0.0020 N.3      1 ZINC000000003897   -0.5800
3      C3      0.4044   -0.5173   -1.2861 C.3      1 ZINC000000003897    0.0900
4      C4     -0.2945   -1.7791   -1.6861 C.3      1 ZINC000000003897   -0.0500
5      C5      0.1378   -2.9803   -0.8846 C.ar     1 ZINC000000003897   -0.2100
6      C6      0.3287   -4.1222   -1.6730 C.ar     1 ZINC000000003897   -0.0700
7      C7      0.7292   -5.3184   -1.1288 C.ar     1 ZINC000000003897   -0.1600
8      Cl8     0.9450   -6.7173   -2.1332 Cl       1 ZINC000000003897   -0.1200
9      C9      0.9619   -5.3840    0.2375 C.ar     1 ZINC000000003897    0.2700
10     O10     1.3671   -6.5462    0.8142 O.3      1 ZINC000000003897   -0.7100
11     C11     0.7726   -4.2552    1.0093 C.ar     1 ZINC000000003897   -0.2800
12     C12     0.3302   -3.0453    0.4634 C.ar     1 ZINC000000003897    0.0000
13     C13     0.0756   -1.9514    1.4480 C.3      1 ZINC000000003897    0.0000
14     H14    -1.0039   -1.7766    1.3684 H        1 ZINC000000003897    0.0700
15     C15     0.2695   -2.3921    2.8648 C.ar     1 ZINC000000003897   -0.0500
16     C16    -0.4119   -3.5185    3.3133 C.ar     1 ZINC000000003897   -0.0900
17     C17    -0.2392   -3.9856    4.5993 C.ar     1 ZINC000000003897   -0.1300
18     C18     0.6056   -3.3222    5.4691 C.ar     1 ZINC000000003897   -0.1300
19     C19     1.2509   -2.1769    5.0465 C.ar     1 ZINC000000003897   -0.1300
20     C20     1.0620   -1.7040    3.7604 C.ar     1 ZINC000000003897   -0.0900
21     C21     1.6942   -0.3935    3.3691 C.3      1 ZINC000000003897   -0.0800
22     C22     0.7847    0.2925    2.3387 C.3      1 ZINC000000003897   -0.1100
23     C23     0.6705   -0.6083    1.1175 C.3      1 ZINC000000003897    0.1300
24     H24     1.6975   -0.8194    0.7842 H        1 ZINC000000003897    0.0300
25     H25     1.0049    1.8321    0.0023 H        1 ZINC000000003897    0.0200
26     H26    -0.5449    1.8159   -0.8730 H        1 ZINC000000003897    0.0600
27     H27    -0.5279    1.8064    0.9068 H        1 ZINC000000003897    0.0600
28     H28     0.2051    0.2441   -2.0404 H        1 ZINC000000003897    0.0600
29     H29     1.4778   -0.7084   -1.2649 H        1 ZINC000000003897    0.0300
30     H30    -1.3682   -1.6401   -1.5584 H        1 ZINC000000003897    0.0600
31     H31    -0.0918   -1.9702   -2.7401 H        1 ZINC000000003897    0.0600
32     H32     0.1561   -4.0638   -2.7383 H        1 ZINC000000003897    0.1000
33     H33     1.0233   -4.3290    2.0559 H        1 ZINC000000003897    0.1100
34     H34    -1.0906   -4.0304    2.6460 H        1 ZINC000000003897    0.1200
35     H35    -0.7636   -4.8721    4.9269 H        1 ZINC000000003897    0.1200
36     H36     0.7605   -3.6964    6.4689 H        1 ZINC000000003897    0.1200
37     H37     1.9051   -1.6515    5.7265 H        1 ZINC000000003897    0.1100
38     H38     1.7854    0.2451    4.2438 H        1 ZINC000000003897    0.0700
39     H39     2.6693   -0.5708    2.9255 H        1 ZINC000000003897    0.0700
40     H40    -0.1949    0.4588    2.7847 H        1 ZINC000000003897    0.0700
41     H41     1.2529    1.2480    2.0974 H        1 ZINC000000003897    0.0700
@<TRIPOS>BOND
1     1     2     1
2     1     25    1
3     1     26    1
4     1     27    1
5     2     23    1
6     2     3     1
7     3     4     1
8     3     28    1
9     3     29    1
10    4     5     1
11    4     30    1
12    4     31    1
13    5     12    ar
14    5     6     ar
15    6     7     ar
16    6     32    1
17    7     8     1
18    7     9     ar
19    9     10    1
20    9     11    ar
21    11    12    ar
22    11    33    1
23    12    13    1
24    13    14    1
25    13    23    1
26    13    15    1
27    15    20    ar
28    15    16    ar
29    16    17    ar
30    16    34    1
31    17    18    ar
32    17    35    1
33    18    19    ar
34    18    36    1
35    19    20    ar
36    19    37    1
37    20    21    1
38    21    22    1
39    21    38    1
40    21    39    1
41    22    23    1
42    22    40    1
43    22    41    1
44    23    24    1
@<TRIPOS>SUBSTRUCTURE
1   ZINC000000003897 1     RESIDUE    1   A     ZIN   1
