@<TRIPOS>MOLECULE
ZINC000003941149
77    81    1     0     0
SMALL
USER_CHARGES
@<TRIPOS>ATOM
1      C1     -0.6514   -0.4409    2.6927 C.3      1 ZINC000003941149    0.0200
2      O2     -0.5042   -1.5038    1.7490 O.3      1 ZINC000003941149   -0.3000
3      C3     -1.5726   -1.7744    0.9521 C.ar     1 ZINC000003941149    0.1000
4      C4     -2.6934   -0.9635    1.0002 C.ar     1 ZINC000003941149   -0.1400
5      C5     -3.7872   -1.2419    0.1834 C.ar     1 ZINC000003941149    0.0000
6      C6     -4.9905   -0.3761    0.2305 C.2      1 ZINC000003941149    0.1400
7      C7     -4.9193    0.9611    0.1044 C.2      1 ZINC000003941149   -0.2200
8      C8     -3.6598    1.7638   -0.0966 C.3      1 ZINC000003941149   -0.0400
9      C9     -3.3114    1.8016   -1.5859 C.3      1 ZINC000003941149   -0.1100
10     C10    -1.9776    2.5257   -1.7795 C.3      1 ZINC000003941149   -0.0800
11     C11    -0.8551    1.7068   -1.1389 C.3      1 ZINC000003941149   -0.1100
12     C12     0.4787    2.4309   -1.3324 C.3      1 ZINC000003941149   -0.1200
13     C13     0.7573    2.5958   -2.8278 C.3      1 ZINC000003941149   -0.1200
14     C14    -0.3652    3.4147   -3.4684 C.3      1 ZINC000003941149   -0.1200
15     C15    -1.6991    2.6906   -3.2749 C.3      1 ZINC000003941149   -0.1100
16     S16    -6.5530    1.6126    0.2143 S.3      1 ZINC000003941149    0.0700
17     C17    -7.1890   -0.0161    0.4242 C.2      1 ZINC000003941149    0.3200
18     N18    -8.5288   -0.3391    0.5900 N.am     1 ZINC000003941149   -0.6200
19     C19    -8.8978   -1.6263    0.7423 C.2      1 ZINC000003941149    0.5800
20     O20    -8.0513   -2.4963    0.8232 O.2      1 ZINC000003941149   -0.4500
21     C21   -10.3232   -1.9792    0.8105 C.2      1 ZINC000003941149    0.0400
22     C22   -11.3578   -1.1152    0.6371 C.2      1 ZINC000003941149   -0.1700
23     C23   -12.5604   -1.8483    0.7814 C.ar     1 ZINC000003941149   -0.1100
24     C24   -13.9148   -1.4983    0.7105 C.ar     1 ZINC000003941149   -0.0800
25     C25   -14.8731   -2.4515    0.8996 C.ar     1 ZINC000003941149   -0.1200
26     C26   -16.3294   -2.0715    0.8227 C.3      1 ZINC000003941149   -0.1000
27     C27   -14.5186   -3.7686    1.1619 C.ar     1 ZINC000003941149   -0.1100
28     C28   -13.1939   -4.1376    1.2366 C.ar     1 ZINC000003941149   -0.0700
29     C29   -12.8234   -5.5703    1.5214 C.3      1 ZINC000003941149   -0.1200
30     C30   -12.1982   -3.1836    1.0477 C.ar     1 ZINC000003941149    0.1200
31     N31   -10.8245   -3.2430    1.0554 N.pl3    1 ZINC000003941149   -0.3900
32     C32   -10.0242   -4.4479    1.2874 C.3      1 ZINC000003941149    0.0200
33     C33    -9.8029   -4.6266    2.7674 C.2      1 ZINC000003941149    0.4900
34     O34   -10.2704   -3.8221    3.5552 O.co2    1 ZINC000003941149   -0.6800
35     O35    -9.1564   -5.5758    3.1768 O.co2    1 ZINC000003941149   -0.6900
36     N36    -6.2108   -0.8673    0.3942 N.2      1 ZINC000003941149   -0.4400
37     C37    -3.7465   -2.3395   -0.6810 C.ar     1 ZINC000003941149    0.1400
38     O38    -4.8105   -2.6161   -1.4810 O.3      1 ZINC000003941149   -0.2900
39     C39    -4.6988   -3.7534   -2.3390 C.3      1 ZINC000003941149    0.0200
40     C40    -2.6204   -3.1445   -0.7216 C.ar     1 ZINC000003941149   -0.1700
41     C41    -1.5350   -2.8607    0.0872 C.ar     1 ZINC000003941149   -0.0200
42     Cl42   -0.1263   -3.8737    0.0316 Cl       1 ZINC000003941149   -0.0500
43     H43     0.2376   -0.3871    3.3211 H        1 ZINC000003941149    0.1000
44     H44    -0.7780    0.5022    2.1609 H        1 ZINC000003941149    0.0500
45     H45    -1.5261   -0.6268    3.3158 H        1 ZINC000003941149    0.0600
46     H46    -2.7202   -0.1168    1.6701 H        1 ZINC000003941149    0.1500
47     H47    -3.8147    2.7799    0.2662 H        1 ZINC000003941149    0.0700
48     H48    -2.8421    1.3012    0.4562 H        1 ZINC000003941149    0.0900
49     H49    -3.2305    0.7833   -1.9661 H        1 ZINC000003941149    0.0700
50     H50    -4.0944    2.3310   -2.1289 H        1 ZINC000003941149    0.0600
51     H51    -2.0254    3.5075   -1.3084 H        1 ZINC000003941149    0.0700
52     H52    -1.0535    1.5894   -0.0736 H        1 ZINC000003941149    0.0600
53     H53    -0.8072    0.7250   -1.6100 H        1 ZINC000003941149    0.0600
54     H54     0.4309    3.4127   -0.8613 H        1 ZINC000003941149    0.0600
55     H55     1.2784    1.8475   -0.8760 H        1 ZINC000003941149    0.0600
56     H56     1.7075    3.1117   -2.9657 H        1 ZINC000003941149    0.0600
57     H57     0.8051    1.6140   -3.2989 H        1 ZINC000003941149    0.0600
58     H58    -0.4131    4.3965   -2.9973 H        1 ZINC000003941149    0.0600
59     H59    -0.1668    3.5321   -4.5337 H        1 ZINC000003941149    0.0600
60     H60    -1.6512    1.7088   -3.7459 H        1 ZINC000003941149    0.0600
61     H61    -2.4987    3.2740   -3.7312 H        1 ZINC000003941149    0.0600
62     H62    -9.1994    0.3617    0.5963 H        1 ZINC000003941149    0.4200
63     H63   -11.2771   -0.0588    0.4274 H        1 ZINC000003941149    0.1400
64     H64   -14.2001   -0.4768    0.5070 H        1 ZINC000003941149    0.1200
65     H65   -16.6796   -2.1808   -0.2037 H        1 ZINC000003941149    0.0600
66     H66   -16.9098   -2.7230    1.4760 H        1 ZINC000003941149    0.0600
67     H67   -16.4519   -1.0360    1.1402 H        1 ZINC000003941149    0.0600
68     H68   -15.2894   -4.5106    1.3092 H        1 ZINC000003941149    0.1200
69     H69   -12.6210   -6.0867    0.5830 H        1 ZINC000003941149    0.0600
70     H70   -11.9336   -5.5974    2.1503 H        1 ZINC000003941149    0.0800
71     H71   -13.6478   -6.0632    2.0368 H        1 ZINC000003941149    0.0700
72     H72   -10.5512   -5.3160    0.8914 H        1 ZINC000003941149    0.0900
73     H73    -9.0618   -4.3471    0.7857 H        1 ZINC000003941149    0.1100
74     H74    -3.8529   -3.6183   -3.0130 H        1 ZINC000003941149    0.0500
75     H75    -4.5444   -4.6489   -1.7370 H        1 ZINC000003941149    0.0600
76     H76    -5.6139   -3.8605   -2.9214 H        1 ZINC000003941149    0.1000
77     H77    -2.5881   -3.9931   -1.3889 H        1 ZINC000003941149    0.1500
@<TRIPOS>BOND
1     1     2     1
2     1     43    1
3     1     44    1
4     1     45    1
5     2     3     1
6     3     41    ar
7     3     4     ar
8     4     5     ar
9     4     46    1
10    5     6     1
11    5     37    ar
12    6     36    1
13    6     7     2
14    7     8     1
15    7     16    1
16    8     9     1
17    8     47    1
18    8     48    1
19    9     10    1
20    9     49    1
21    9     50    1
22    10    15    1
23    10    11    1
24    10    51    1
25    11    12    1
26    11    52    1
27    11    53    1
28    12    13    1
29    12    54    1
30    12    55    1
31    13    14    1
32    13    56    1
33    13    57    1
34    14    15    1
35    14    58    1
36    14    59    1
37    15    60    1
38    15    61    1
39    16    17    1
40    17    18    1
41    17    36    2
42    18    19    am
43    18    62    1
44    19    20    2
45    19    21    1
46    21    31    1
47    21    22    2
48    22    23    1
49    22    63    1
50    23    30    ar
51    23    24    ar
52    24    25    ar
53    24    64    1
54    25    26    1
55    25    27    ar
56    26    65    1
57    26    66    1
58    26    67    1
59    27    28    ar
60    27    68    1
61    28    29    1
62    28    30    ar
63    29    69    1
64    29    70    1
65    29    71    1
66    30    31    1
67    31    32    1
68    32    33    1
69    32    72    1
70    32    73    1
71    33    34    ar
72    33    35    ar
73    37    38    1
74    37    40    ar
75    38    39    1
76    39    74    1
77    39    75    1
78    39    76    1
79    40    41    ar
80    40    77    1
81    41    42    1
@<TRIPOS>SUBSTRUCTURE
1   ZINC000003941149 1     RESIDUE    1   A     ZIN   1
