@<TRIPOS>MOLECULE
ZINC000033975064
62    66    1     0     0
SMALL
USER_CHARGES
@<TRIPOS>ATOM
1      C1     -2.4426    1.4222   -2.9510 C.3      1 ZINC000033975064   -0.1100
2      C2     -2.4071   -0.0750   -2.7834 C.ar     1 ZINC000033975064   -0.1300
3      C3     -1.1963   -0.7279   -2.6619 C.ar     1 ZINC000033975064   -0.1000
4      C4     -1.1634   -2.1061   -2.5071 C.ar     1 ZINC000033975064    0.0700
5      O5      0.0292   -2.7482   -2.3870 O.3      1 ZINC000033975064   -0.2600
6      C6      0.0149   -4.1003   -2.2486 C.ar     1 ZINC000033975064    0.1100
7      C7     -0.0493   -4.6659   -0.9782 C.ar     1 ZINC000033975064   -0.1300
8      C8     -0.0646   -6.0224   -0.8208 C.ar     1 ZINC000033975064   -0.0400
9      C9     -0.0159   -6.8555   -1.9415 C.ar     1 ZINC000033975064    0.0500
10     N10    -0.0158   -8.2043   -2.1050 N.2      1 ZINC000033975064   -0.4600
11     C11     0.0429   -8.4912   -3.3723 C.2      1 ZINC000033975064    0.2800
12     C12     0.0616   -9.8864   -3.9416 C.3      1 ZINC000033975064    0.1400
13     O13    -1.2783  -10.3195   -4.1852 O.3      1 ZINC000033975064   -0.3100
14     C14    -1.4394  -11.5658   -4.7025 C.ar     1 ZINC000033975064    0.1400
15     C15    -0.3310  -12.3579   -4.9648 C.ar     1 ZINC000033975064   -0.2100
16     C16    -0.4975  -13.6246   -5.4903 C.ar     1 ZINC000033975064   -0.0700
17     C17    -1.7674  -14.1030   -5.7552 C.ar     1 ZINC000033975064   -0.1300
18     C18    -1.9461  -15.4850   -6.3289 C.3      1 ZINC000033975064   -0.0500
19     C19    -2.0798  -16.4970   -5.1891 C.3      1 ZINC000033975064   -0.1000
20     H20    -1.2354  -16.4180   -4.5044 H        1 ZINC000033975064    0.1600
21     S21    -3.6558  -16.2627   -4.2998 S.3      1 ZINC000033975064   -0.1000
22     C22    -4.2688  -17.8798   -4.6898 C.2      1 ZINC000033975064    0.5400
23     O23    -5.3417  -18.3411   -4.3518 O.2      1 ZINC000033975064   -0.4300
24     N24    -3.3403  -18.4996   -5.4213 N.am     1 ZINC000033975064   -0.6800
25     C25    -2.1973  -17.9037   -5.7337 C.2      1 ZINC000033975064    0.5400
26     O26    -1.3325  -18.4361   -6.3960 O.2      1 ZINC000033975064   -0.4500
27     C27    -2.8737  -13.3157   -5.4942 C.ar     1 ZINC000033975064   -0.0600
28     C28    -2.7128  -12.0503   -4.9639 C.ar     1 ZINC000033975064   -0.1400
29     N29     0.0845   -7.3474   -4.1096 N.pl3    1 ZINC000033975064   -0.4800
30     C30     0.1551   -7.2578   -5.5701 C.3      1 ZINC000033975064    0.0700
31     C31     0.0485   -6.2876   -3.2254 C.ar     1 ZINC000033975064    0.0700
32     C32     0.0585   -4.9078   -3.3716 C.ar     1 ZINC000033975064   -0.1200
33     C33    -2.3467   -2.8296   -2.4742 C.ar     1 ZINC000033975064   -0.1500
34     C34    -3.5583   -2.1781   -2.5956 C.ar     1 ZINC000033975064   -0.1200
35     C35    -4.8436   -2.9642   -2.5599 C.3      1 ZINC000033975064   -0.1100
36     C36    -3.5922   -0.7979   -2.7453 C.ar     1 ZINC000033975064    0.1900
37     N37    -4.8194   -0.1372   -2.8684 N.pl3    1 ZINC000033975064   -0.8800
38     H38    -2.4876    1.8966   -1.9707 H        1 ZINC000033975064    0.0700
39     H39    -1.5438    1.7508   -3.4728 H        1 ZINC000033975064    0.0700
40     H40    -3.3222    1.7021   -3.5308 H        1 ZINC000033975064    0.0600
41     H41    -0.2747   -0.1654   -2.6877 H        1 ZINC000033975064    0.1300
42     H42    -0.0871   -4.0260   -0.1090 H        1 ZINC000033975064    0.1400
43     H43    -0.1138   -6.4509    0.1693 H        1 ZINC000033975064    0.1400
44     H44     0.6203   -9.8895   -4.8775 H        1 ZINC000033975064    0.0900
45     H45     0.5384  -10.5622   -3.2316 H        1 ZINC000033975064    0.1000
46     H46     0.6611  -11.9844   -4.7588 H        1 ZINC000033975064    0.1300
47     H47     0.3650  -14.2416   -5.6947 H        1 ZINC000033975064    0.1300
48     H48    -2.8457  -15.5096   -6.9439 H        1 ZINC000033975064    0.0900
49     H49    -1.0806  -15.7392   -6.9407 H        1 ZINC000033975064    0.1000
50     H50    -3.5033  -19.4048   -5.7293 H        1 ZINC000033975064    0.4200
51     H51    -3.8646  -13.6918   -5.7017 H        1 ZINC000033975064    0.1400
52     H52    -3.5772  -11.4358   -4.7602 H        1 ZINC000033975064    0.1300
53     H53    -0.8539   -7.2304   -5.9816 H        1 ZINC000033975064    0.0800
54     H54     0.6877   -6.3499   -5.8532 H        1 ZINC000033975064    0.0900
55     H55     0.6839   -8.1265   -5.9623 H        1 ZINC000033975064    0.0900
56     H56     0.1028   -4.4664   -4.3563 H        1 ZINC000033975064    0.1300
57     H57    -2.3203   -3.9025   -2.3540 H        1 ZINC000033975064    0.1300
58     H58    -5.1946   -3.0401   -1.5307 H        1 ZINC000033975064    0.0700
59     H59    -5.5962   -2.4576   -3.1641 H        1 ZINC000033975064    0.0600
60     H60    -4.6695   -3.9634   -2.9590 H        1 ZINC000033975064    0.0700
61     H61    -5.6468   -0.6431   -2.8491 H        1 ZINC000033975064    0.4000
62     H62    -4.8428    0.8269   -2.9729 H        1 ZINC000033975064    0.4000
@<TRIPOS>BOND
1     1     2     1
2     1     38    1
3     1     39    1
4     1     40    1
5     2     36    ar
6     2     3     ar
7     3     4     ar
8     3     41    1
9     4     5     1
10    4     33    ar
11    5     6     1
12    6     32    ar
13    6     7     ar
14    7     8     ar
15    7     42    1
16    8     9     ar
17    8     43    1
18    9     31    ar
19    9     10    1
20    10    11    2
21    11    12    1
22    11    29    1
23    12    13    1
24    12    44    1
25    12    45    1
26    13    14    1
27    14    28    ar
28    14    15    ar
29    15    16    ar
30    15    46    1
31    16    17    ar
32    16    47    1
33    17    18    1
34    17    27    ar
35    18    19    1
36    18    48    1
37    18    49    1
38    19    20    1
39    19    25    1
40    19    21    1
41    21    22    1
42    22    23    2
43    22    24    am
44    24    25    am
45    24    50    1
46    25    26    2
47    27    28    ar
48    27    51    1
49    28    52    1
50    29    30    1
51    29    31    1
52    30    53    1
53    30    54    1
54    30    55    1
55    31    32    ar
56    32    56    1
57    33    34    ar
58    33    57    1
59    34    35    1
60    34    36    ar
61    35    58    1
62    35    59    1
63    35    60    1
64    36    37    1
65    37    61    1
66    37    62    1
@<TRIPOS>SUBSTRUCTURE
1   ZINC000033975064 1     RESIDUE    1   A     ZIN   1
