@<TRIPOS>MOLECULE
ZINC000001543566
50    53    1     0     0
SMALL
USER_CHARGES
@<TRIPOS>ATOM
1      C1     -0.0187    1.5258    0.0104 C.3      1 ZINC000001543566   -0.1500
2      C2      0.0021   -0.0041    0.0020 C.3      1 ZINC000001543566   -0.1200
3      C3      0.7182   -0.4975   -1.2568 C.3      1 ZINC000001543566    0.1800
4      H4      1.7103   -0.0491   -1.3098 H        1 ZINC000001543566    0.0900
5      N5     -0.0549   -0.1139   -2.4405 N.am     1 ZINC000001543566   -0.7200
6      C6      0.1070    1.1088   -2.9841 C.2      1 ZINC000001543566    0.6200
7      O7      0.8949    1.8934   -2.4919 O.2      1 ZINC000001543566   -0.5500
8      C8     -0.6711    1.4949   -4.1755 C.ar     1 ZINC000001543566   -0.3200
9      C9     -1.9760    2.1473   -4.0549 C.ar     1 ZINC000001543566    0.0100
10     C10    -2.5371    2.4307   -2.8053 C.ar     1 ZINC000001543566   -0.1400
11     C11    -3.7553    3.0401   -2.7361 C.ar     1 ZINC000001543566   -0.1100
12     C12    -4.4476    3.3837   -3.8948 C.ar     1 ZINC000001543566   -0.1700
13     C13    -3.9300    3.1222   -5.1263 C.ar     1 ZINC000001543566   -0.0600
14     C14    -2.6755    2.4946   -5.2374 C.ar     1 ZINC000001543566    0.0300
15     N15    -2.1452    2.2273   -6.4327 N.ar     1 ZINC000001543566   -0.4400
16     C16    -0.9761    1.6428   -6.5717 C.ar     1 ZINC000001543566    0.1200
17     C17    -0.4626    1.3836   -7.9375 C.ar     1 ZINC000001543566   -0.0200
18     C18     0.9044    1.4679   -8.1991 C.ar     1 ZINC000001543566   -0.0700
19     C19     1.3766    1.2256   -9.4728 C.ar     1 ZINC000001543566   -0.1400
20     C20     0.4967    0.8995  -10.4893 C.ar     1 ZINC000001543566   -0.1300
21     C21    -0.8607    0.8148  -10.2360 C.ar     1 ZINC000001543566   -0.1400
22     C22    -1.3440    1.0489   -8.9648 C.ar     1 ZINC000001543566   -0.0900
23     C23    -0.1915    1.2588   -5.4640 C.ar     1 ZINC000001543566    0.2800
24     O24     1.0088    0.6583   -5.6493 O.3      1 ZINC000001543566   -0.6700
25     C25     0.8473   -1.9981   -1.2057 C.ar     1 ZINC000001543566   -0.0800
26     C26    -0.2268   -2.7964   -1.5521 C.ar     1 ZINC000001543566   -0.1100
27     C27    -0.1084   -4.1728   -1.5053 C.ar     1 ZINC000001543566   -0.1200
28     C28     1.0842   -4.7510   -1.1125 C.ar     1 ZINC000001543566   -0.1300
29     C29     2.1586   -3.9527   -0.7670 C.ar     1 ZINC000001543566   -0.1200
30     C30     2.0415   -2.5763   -0.8179 C.ar     1 ZINC000001543566   -0.1100
31     H31     1.0039    1.9031    0.0027 H        1 ZINC000001543566    0.0600
32     H32    -0.5459    1.8868   -0.8726 H        1 ZINC000001543566    0.0600
33     H33    -0.5289    1.8773    0.9072 H        1 ZINC000001543566    0.0400
34     H34     0.5293   -0.3651    0.8851 H        1 ZINC000001543566    0.0700
35     H35    -1.0205   -0.3814    0.0098 H        1 ZINC000001543566    0.0600
36     H36    -0.6834   -0.7398   -2.8331 H        1 ZINC000001543566    0.4000
37     H37    -2.0090    2.1682   -1.9006 H        1 ZINC000001543566    0.1100
38     H38    -4.1885    3.2585   -1.7712 H        1 ZINC000001543566    0.1100
39     H39    -5.4110    3.8653   -3.8148 H        1 ZINC000001543566    0.1100
40     H40    -4.4802    3.3950   -6.0146 H        1 ZINC000001543566    0.1200
41     H41     1.5923    1.7228   -7.4064 H        1 ZINC000001543566    0.1400
42     H42     2.4352    1.2910   -9.6767 H        1 ZINC000001543566    0.1200
43     H43     0.8709    0.7107  -11.4846 H        1 ZINC000001543566    0.1100
44     H44    -1.5429    0.5605  -11.0336 H        1 ZINC000001543566    0.1100
45     H45    -2.4039    0.9822   -8.7681 H        1 ZINC000001543566    0.1200
46     H46    -1.1586   -2.3447   -1.8590 H        1 ZINC000001543566    0.1200
47     H47    -0.9478   -4.7965   -1.7752 H        1 ZINC000001543566    0.1200
48     H48     1.1765   -5.8264   -1.0752 H        1 ZINC000001543566    0.1200
49     H49     3.0902   -4.4045   -0.4598 H        1 ZINC000001543566    0.1200
50     H50     2.8809   -1.9526   -0.5480 H        1 ZINC000001543566    0.1200
@<TRIPOS>BOND
1     1     2     1
2     1     31    1
3     1     32    1
4     1     33    1
5     2     3     1
6     2     34    1
7     2     35    1
8     3     4     1
9     3     5     1
10    3     25    1
11    5     6     am
12    5     36    1
13    6     7     2
14    6     8     1
15    8     23    ar
16    8     9     ar
17    9     14    ar
18    9     10    ar
19    10    11    ar
20    10    37    1
21    11    12    ar
22    11    38    1
23    12    13    ar
24    12    39    1
25    13    14    ar
26    13    40    1
27    14    15    ar
28    15    16    ar
29    16    17    1
30    16    23    ar
31    17    22    ar
32    17    18    ar
33    18    19    ar
34    18    41    1
35    19    20    ar
36    19    42    1
37    20    21    ar
38    20    43    1
39    21    22    ar
40    21    44    1
41    22    45    1
42    23    24    1
43    25    30    ar
44    25    26    ar
45    26    27    ar
46    26    46    1
47    27    28    ar
48    27    47    1
49    28    29    ar
50    28    48    1
51    29    30    ar
52    29    49    1
53    30    50    1
@<TRIPOS>SUBSTRUCTURE
1   ZINC000001543566 1     RESIDUE    1   A     ZIN   1
