@<TRIPOS>MOLECULE
ZINC000116262036
  57   61    0    0    0
SMALL
USER_CHARGES
NO_NAME
@<TRIPOS>ATOM
    1 C1       -0.0178     1.4608     0.0101 C.3    1 <0>       0.1100
    2 N2        0.0021    -0.0041     0.0020 N.pl3  1 <0>      -0.6400
    3 C3        0.0064    -0.7537    -1.2668 C.3    1 <0>       0.1200
    4 C4       -1.1021    -1.8160    -1.2916 C.3    1 <0>       0.1300
    5 N5       -1.0515    -2.5784    -0.0391 N.pl3  1 <0>      -0.6300
    6 C6       -0.5191    -2.0235     1.1240 C.ar   1 <0>       0.1300
    7 C7       -0.5658    -2.8771     2.2105 C.ar   1 <0>      -0.1300
    8 C8       -0.0793    -2.4628     3.4377 C.ar   1 <0>      -0.1000
    9 C9        0.4474    -1.1764     3.5142 C.ar   1 <0>      -0.1400
   10 C10       0.4976    -0.3226     2.4206 C.ar   1 <0>      -0.1300
   11 C11       0.0232    -0.7275     1.1966 C.ar   1 <0>       0.1500
   12 C12      -1.1888    -4.1583     1.7381 C.3    1 <0>      -0.0400
   13 H13      -2.1481    -4.2393     2.2492 H      1 <0>       0.0800
   14 C14      -0.3840    -5.3530     2.1336 C.3    1 <0>       0.0800
   15 N15       0.1151    -6.2087     1.0783 N.3    1 <0>      -0.5400
   16 C16       0.4562    -7.5401     1.5971 C.3    1 <0>       0.0600
   17 C17       1.2060    -8.3296     0.5222 C.3    1 <0>      -0.1100
   18 C18       1.5613    -9.7162     1.0625 C.3    1 <0>      -0.1700
   19 C19       2.2998   -10.4938     0.0038 C.2    1 <0>       0.4000
   20 O20       2.5203    -9.9888    -1.0765 O.2    1 <0>      -0.4500
   21 C21       2.7530   -11.8647     0.2805 C.ar   1 <0>      -0.1800
   22 C22       2.4951   -12.4526     1.5240 C.ar   1 <0>      -0.0400
   23 C23       2.9221   -13.7376     1.7767 C.ar   1 <0>      -0.1700
   24 C24       3.6067   -14.4486     0.8019 C.ar   1 <0>       0.1300
   25 F25       4.0227   -15.7085     1.0561 F      1 <0>      -0.1300
   26 C26       3.8656   -13.8718    -0.4328 C.ar   1 <0>      -0.1700
   27 C27       3.4391   -12.5896    -0.7004 C.ar   1 <0>      -0.0300
   28 C28      -0.8102    -6.3076    -0.0556 C.3    1 <0>       0.0600
   29 C29      -0.9004    -4.9219    -0.6946 C.3    1 <0>      -0.1300
   30 C30      -1.4959    -3.9375     0.2669 C.3    1 <0>       0.1800
   31 H31      -2.5806    -3.9745     0.1663 H      1 <0>       0.0600
   32 H32       1.0048     1.8381     0.0023 H      1 <0>       0.0400
   33 H33      -0.5450     1.8219    -0.8730 H      1 <0>       0.0600
   34 H34      -0.5280     1.8123     0.9069 H      1 <0>       0.0600
   35 H35      -0.1469    -0.0588    -2.0924 H      1 <0>       0.0900
   36 H36       0.9726    -1.2434    -1.3886 H      1 <0>       0.0600
   37 H37      -2.0730    -1.3292    -1.3844 H      1 <0>       0.0600
   38 H38      -0.9455    -2.4882    -2.1353 H      1 <0>       0.0800
   39 H39      -0.1074    -3.1108     4.3012 H      1 <0>       0.1200
   40 H40       0.8319    -0.8288     4.4618 H      1 <0>       0.1200
   41 H41       0.9171     0.6664     2.5314 H      1 <0>       0.1200
   42 H42       0.4717    -5.0020     2.7104 H      1 <0>       0.0800
   43 H43      -0.9980    -5.9639     2.7953 H      1 <0>       0.0300
   44 H44       1.0887    -7.4354     2.4786 H      1 <0>       0.0800
   45 H45      -0.4574    -8.0701     1.8663 H      1 <0>       0.0400
   46 H46       0.5735    -8.4342    -0.3594 H      1 <0>       0.0700
   47 H47       2.1196    -7.7995     0.2530 H      1 <0>       0.0800
   48 H48       2.1938    -9.6115     1.9440 H      1 <0>       0.1000
   49 H49       0.6477   -10.2463     1.3317 H      1 <0>       0.1000
   50 H50       1.9629   -11.8999     2.2840 H      1 <0>       0.1400
   51 H51       2.7237   -14.1925     2.7359 H      1 <0>       0.1400
   52 H52       4.3990   -14.4307    -1.1874 H      1 <0>       0.1400
   53 H53       3.6413   -12.1416    -1.6621 H      1 <0>       0.1400
   54 H54      -0.4308    -7.0265    -0.7818 H      1 <0>       0.0900
   55 H55      -1.7943    -6.6185     0.2954 H      1 <0>       0.0400
   56 H56       0.0998    -4.5865    -0.9689 H      1 <0>       0.0800
   57 H57      -1.5185    -4.9785    -1.5906 H      1 <0>       0.0700
@<TRIPOS>BOND
   1    1    2 1
   2    1   32 1
   3    1   33 1
   4    1   34 1
   5    2   11 1
   6    2    3 1
   7    3    4 1
   8    3   35 1
   9    3   36 1
  10    4    5 1
  11    4   37 1
  12    4   38 1
  13    5   30 1
  14    5    6 1
  15    6   11 ar
  16    6    7 ar
  17    7    8 ar
  18    7   12 1
  19    8    9 ar
  20    8   39 1
  21    9   10 ar
  22    9   40 1
  23   10   11 ar
  24   10   41 1
  25   12   13 1
  26   12   30 1
  27   12   14 1
  28   14   15 1
  29   14   42 1
  30   14   43 1
  31   15   16 1
  32   15   28 1
  33   16   17 1
  34   16   44 1
  35   16   45 1
  36   17   18 1
  37   17   46 1
  38   17   47 1
  39   18   19 1
  40   18   48 1
  41   18   49 1
  42   19   20 2
  43   19   21 1
  44   21   27 ar
  45   21   22 ar
  46   22   23 ar
  47   22   50 1
  48   23   24 ar
  49   23   51 1
  50   24   25 1
  51   24   26 ar
  52   26   27 ar
  53   26   52 1
  54   27   53 1
  55   28   29 1
  56   28   54 1
  57   28   55 1
  58   29   30 1
  59   29   56 1
  60   29   57 1
  61   30   31 1
