@<TRIPOS>MOLECULE
ZINC000013652236
68    72    1     0     0
SMALL
USER_CHARGES
@<TRIPOS>ATOM
1      O1     -0.2527    0.2359   -0.1725 O.2      1 ZINC000013652236   -0.4900
2      C2     -0.1009    1.4082    0.0990 C.2      1 ZINC000013652236    0.5400
3      C3      1.2660    2.0345   -0.0032 C.3      1 ZINC000013652236   -0.0200
4      C4      2.3164    0.9541    0.0181 C.ar     1 ZINC000013652236   -0.0900
5      C5      2.3945    0.0454   -1.0207 C.ar     1 ZINC000013652236   -0.0800
6      C6      3.3580   -0.9455   -1.0012 C.ar     1 ZINC000013652236   -0.1200
7      C7      4.2438   -1.0276    0.0569 C.ar     1 ZINC000013652236   -0.1100
8      C8      4.1663   -0.1183    1.0952 C.ar     1 ZINC000013652236   -0.1200
9      C9      3.2055    0.8753    1.0736 C.ar     1 ZINC000013652236   -0.1100
10     C10     1.3684    2.8094   -1.2917 C.ar     1 ZINC000013652236   -0.0900
11     C11     1.9420    4.0671   -1.2981 C.ar     1 ZINC000013652236   -0.1100
12     C12     2.0360    4.7779   -2.4799 C.ar     1 ZINC000013652236   -0.1100
13     C13     1.5567    4.2308   -3.6555 C.ar     1 ZINC000013652236   -0.1100
14     C14     0.9838    2.9728   -3.6492 C.ar     1 ZINC000013652236   -0.1100
15     C15     0.8938    2.2602   -2.4681 C.ar     1 ZINC000013652236   -0.1100
16     N16    -1.1557    2.1521    0.4868 N.am     1 ZINC000013652236   -0.6300
17     C17    -1.0241    3.6031    0.6903 C.3      1 ZINC000013652236    0.0800
18     C18    -2.1459    4.3056   -0.0816 C.3      1 ZINC000013652236   -0.0200
19     N19    -3.4423    3.7513    0.3283 N.4      1 ZINC000013652236   -0.3800
20     H20    -3.5406    3.8336    1.3292 H        1 ZINC000013652236    0.4300
21     C21    -4.5224    4.4975   -0.3309 C.3      1 ZINC000013652236   -0.0400
22     C22    -5.8741    4.0046    0.1894 C.3      1 ZINC000013652236    0.0900
23     H23    -5.9447    2.9256    0.0522 H        1 ZINC000013652236    0.1300
24     O24    -5.9923    4.3169    1.5789 O.3      1 ZINC000013652236   -0.5400
25     C25    -7.0002    4.6920   -0.5854 C.3      1 ZINC000013652236    0.0300
26     O26    -8.2580    4.1473   -0.1811 O.3      1 ZINC000013652236   -0.3000
27     C27    -9.3684    4.6519   -0.7775 C.ar     1 ZINC000013652236    0.1500
28     C28   -10.6450    4.1695   -0.4272 C.ar     1 ZINC000013652236   -0.1200
29     C29   -10.8064    3.1622    0.5401 C.ar     1 ZINC000013652236   -0.0400
30     C30   -12.0745    2.7432    0.8299 C.ar     1 ZINC000013652236   -0.1800
31     C31   -13.1617    3.3132    0.1722 C.ar     1 ZINC000013652236    0.1500
32     N32   -13.0074    4.2526   -0.7293 N.ar     1 ZINC000013652236   -0.4800
33     C33   -11.7936    4.7072   -1.0590 C.ar     1 ZINC000013652236    0.1600
34     C34   -11.6360    5.7142   -2.0260 C.ar     1 ZINC000013652236   -0.1200
35     C35   -10.3908    6.1622   -2.3463 C.ar     1 ZINC000013652236   -0.0700
36     C36    -9.2578    5.6440   -1.7265 C.ar     1 ZINC000013652236   -0.2200
37     C37    -3.5250    2.3363   -0.0551 C.3      1 ZINC000013652236   -0.0300
38     C38    -2.4729    1.5371    0.7127 C.3      1 ZINC000013652236    0.0900
39     H39     1.4208    2.7084    0.8394 H        1 ZINC000013652236    0.1100
40     H40     1.7024    0.1095   -1.8474 H        1 ZINC000013652236    0.1200
41     H41     3.4185   -1.6559   -1.8124 H        1 ZINC000013652236    0.1300
42     H42     4.9962   -1.8022    0.0725 H        1 ZINC000013652236    0.1300
43     H43     4.8582   -0.1826    1.9221 H        1 ZINC000013652236    0.1300
44     H44     3.1450    1.5857    1.8848 H        1 ZINC000013652236    0.1200
45     H45     2.3165    4.4945   -0.3797 H        1 ZINC000013652236    0.1300
46     H46     2.4835    5.7608   -2.4848 H        1 ZINC000013652236    0.1300
47     H47     1.6294    4.7864   -4.5787 H        1 ZINC000013652236    0.1300
48     H48     0.6090    2.5455   -4.5676 H        1 ZINC000013652236    0.1300
49     H49     0.4462    1.2773   -2.4632 H        1 ZINC000013652236    0.1200
50     H50    -1.1103    3.8334    1.7522 H        1 ZINC000013652236    0.1000
51     H51    -0.0566    3.9390    0.3171 H        1 ZINC000013652236    0.1300
52     H52    -2.1224    5.3736    0.1348 H        1 ZINC000013652236    0.1500
53     H53    -2.0050    4.1482   -1.1509 H        1 ZINC000013652236    0.1400
54     H54    -4.4150    5.5602   -0.1136 H        1 ZINC000013652236    0.1400
55     H55    -4.4682    4.3396   -1.4080 H        1 ZINC000013652236    0.1500
56     H56    -5.9383    5.2621    1.7755 H        1 ZINC000013652236    0.3900
57     H57    -6.9839    5.7619   -0.3774 H        1 ZINC000013652236    0.0800
58     H58    -6.8594    4.5273   -1.6536 H        1 ZINC000013652236    0.0800
59     H59    -9.9517    2.7310    1.0401 H        1 ZINC000013652236    0.1400
60     H60   -12.2333    1.9708    1.5678 H        1 ZINC000013652236    0.1400
61     H61   -14.1582    2.9722    0.4109 H        1 ZINC000013652236    0.1700
62     H62   -12.5029    6.1328   -2.5157 H        1 ZINC000013652236    0.1400
63     H63   -10.2808    6.9366   -3.0910 H        1 ZINC000013652236    0.1400
64     H64    -8.2816    6.0171   -1.9987 H        1 ZINC000013652236    0.1300
65     H65    -4.5178    1.9532    0.1809 H        1 ZINC000013652236    0.1500
66     H66    -3.3424    2.2385   -1.1252 H        1 ZINC000013652236    0.1400
67     H67    -2.4637    0.5069    0.3568 H        1 ZINC000013652236    0.1400
68     H68    -2.7027    1.5577    1.7780 H        1 ZINC000013652236    0.1000
@<TRIPOS>BOND
1     1     2     2
2     2     3     1
3     2     16    am
4     3     4     1
5     3     10    1
6     3     39    1
7     4     9     ar
8     4     5     ar
9     5     6     ar
10    5     40    1
11    6     7     ar
12    6     41    1
13    7     8     ar
14    7     42    1
15    8     9     ar
16    8     43    1
17    9     44    1
18    10    15    ar
19    10    11    ar
20    11    12    ar
21    11    45    1
22    12    13    ar
23    12    46    1
24    13    14    ar
25    13    47    1
26    14    15    ar
27    14    48    1
28    15    49    1
29    16    38    1
30    16    17    1
31    17    18    1
32    17    50    1
33    17    51    1
34    18    19    1
35    18    52    1
36    18    53    1
37    19    20    1
38    19    21    1
39    19    37    1
40    21    22    1
41    21    54    1
42    21    55    1
43    22    23    1
44    22    24    1
45    22    25    1
46    24    56    1
47    25    26    1
48    25    57    1
49    25    58    1
50    26    27    1
51    27    36    ar
52    27    28    ar
53    28    33    ar
54    28    29    ar
55    29    30    ar
56    29    59    1
57    30    31    ar
58    30    60    1
59    31    32    ar
60    31    61    1
61    32    33    ar
62    33    34    ar
63    34    35    ar
64    34    62    1
65    35    36    ar
66    35    63    1
67    36    64    1
68    37    38    1
69    37    65    1
70    37    66    1
71    38    67    1
72    38    68    1
@<TRIPOS>SUBSTRUCTURE
1   ZINC000013652236 1     RESIDUE    1   A     ZIN   1
