@<TRIPOS>MOLECULE
ZINC000056898863
72    73    1     0     0
SMALL
USER_CHARGES
@<TRIPOS>ATOM
1      C1      0.2089    1.3213   -1.8315 C.3      1 ZINC000056898863   -0.1900
2      C2      0.1906   -0.2054   -1.7314 C.3      1 ZINC000056898863   -0.0200
3      N3     -1.1668   -0.6581   -1.3991 N.4      1 ZINC000056898863   -0.5000
4      H4     -1.4473   -0.2597   -0.5155 H        1 ZINC000056898863    0.4300
5      H5     -1.8065   -0.3607   -2.1204 H        1 ZINC000056898863    0.4300
6      C6     -1.1843   -2.1239   -1.3030 C.3      1 ZINC000056898863    0.0100
7      C7     -2.5980   -2.5954   -0.9569 C.3      1 ZINC000056898863   -0.7000
8      S8     -2.6197   -4.4054   -0.8382 S.o2     1 ZINC000056898863    2.6200
9      O9     -2.4167   -4.9914   -2.1167 O.2      1 ZINC000056898863   -0.9200
10     O10    -1.8774   -4.8398    0.2930 O.2      1 ZINC000056898863   -0.9200
11     N11    -4.1895   -4.7762   -0.4635 N.am     1 ZINC000056898863   -1.1000
12     C12    -5.2590   -4.4891   -1.4227 C.3      1 ZINC000056898863    0.1200
13     C13    -6.5251   -5.2459   -1.0164 C.3      1 ZINC000056898863    0.2100
14     C14    -6.2527   -6.7252   -0.9247 C.ar     1 ZINC000056898863   -0.1200
15     C15    -7.0732   -7.5330   -0.1597 C.ar     1 ZINC000056898863   -0.0900
16     C16    -6.8234   -8.8900   -0.0756 C.ar     1 ZINC000056898863   -0.1200
17     C17    -5.7533   -9.4393   -0.7569 C.ar     1 ZINC000056898863   -0.0900
18     C18    -4.9334   -8.6316   -1.5227 C.ar     1 ZINC000056898863   -0.1200
19     C19    -5.1858   -7.2753   -1.6102 C.ar     1 ZINC000056898863   -0.0600
20     S20    -7.1789   -4.6075    0.5621 S.3      1 ZINC000056898863   -0.1200
21     C21    -8.7234   -4.0829   -0.1299 C.2      1 ZINC000056898863    0.3400
22     N22    -9.7626   -3.4726    0.5593 N.am     1 ZINC000056898863   -0.6200
23     C23   -10.8893   -3.1225   -0.0922 C.2      1 ZINC000056898863    0.5200
24     O24   -10.9954   -3.3407   -1.2805 O.2      1 ZINC000056898863   -0.4600
25     C25   -12.0173   -2.4600    0.6559 C.3      1 ZINC000056898863   -0.0800
26     C26   -13.1682   -2.1693   -0.3094 C.3      1 ZINC000056898863   -0.1300
27     C27   -12.5070   -3.3896    1.7681 C.3      1 ZINC000056898863   -0.1500
28     C28   -11.5220   -1.1485    1.2686 C.3      1 ZINC000056898863   -0.1500
29     N29    -8.7107   -4.3679   -1.3859 N.2      1 ZINC000056898863   -0.2400
30     N30    -7.6180   -4.9763   -1.9631 N.am     1 ZINC000056898863   -0.4300
31     C31    -7.5560   -5.2936   -3.2702 C.2      1 ZINC000056898863    0.5700
32     O32    -6.6020   -5.9082   -3.7009 O.2      1 ZINC000056898863   -0.5000
33     C33    -8.6710   -4.8855   -4.1983 C.3      1 ZINC000056898863   -0.0600
34     C34    -8.3554   -5.3654   -5.6164 C.3      1 ZINC000056898863   -0.1300
35     C35    -9.9832   -5.5154   -3.7269 C.3      1 ZINC000056898863   -0.1500
36     C36    -8.8063   -3.3615   -4.1939 C.3      1 ZINC000056898863   -0.1400
37     H37     1.2161    1.6572   -2.0781 H        1 ZINC000056898863    0.1100
38     H38    -0.4823    1.6425   -2.6107 H        1 ZINC000056898863    0.0800
39     H39    -0.0942    1.7516   -0.8770 H        1 ZINC000056898863    0.0800
40     H40     0.4937   -0.6357   -2.6859 H        1 ZINC000056898863    0.1400
41     H41     0.8818   -0.5267   -0.9522 H        1 ZINC000056898863    0.1400
42     H42    -0.8812   -2.5542   -2.2575 H        1 ZINC000056898863    0.1500
43     H43    -0.4931   -2.4452   -0.5237 H        1 ZINC000056898863    0.1500
44     H44    -2.9011   -2.1651   -0.0024 H        1 ZINC000056898863    0.1600
45     H45    -3.2892   -2.2741   -1.7361 H        1 ZINC000056898863    0.1600
46     H46    -4.4009   -5.1835    0.3911 H        1 ZINC000056898863    0.4300
47     H47    -5.4624   -3.4183   -1.4303 H        1 ZINC000056898863    0.0800
48     H48    -4.9492   -4.8072   -2.4182 H        1 ZINC000056898863    0.1200
49     H49    -7.9092   -7.1038    0.3726 H        1 ZINC000056898863    0.1200
50     H50    -7.4640   -9.5209    0.5226 H        1 ZINC000056898863    0.1300
51     H51    -5.5577  -10.4993   -0.6907 H        1 ZINC000056898863    0.1300
52     H52    -4.0972   -9.0608   -2.0547 H        1 ZINC000056898863    0.1300
53     H53    -4.5452   -6.6444   -2.2085 H        1 ZINC000056898863    0.1300
54     H54    -9.6777   -3.2980    1.5097 H        1 ZINC000056898863    0.4300
55     H55   -13.5211   -3.1037   -0.7460 H        1 ZINC000056898863    0.0700
56     H56   -13.9841   -1.6901    0.2317 H        1 ZINC000056898863    0.0700
57     H57   -12.8193   -1.5070   -1.1018 H        1 ZINC000056898863    0.0700
58     H58   -11.6871   -3.5967    2.4559 H        1 ZINC000056898863    0.0600
59     H59   -13.3229   -2.9104    2.3092 H        1 ZINC000056898863    0.0800
60     H60   -12.8599   -4.3239    1.3316 H        1 ZINC000056898863    0.0700
61     H61   -11.1731   -0.4862    0.4763 H        1 ZINC000056898863    0.0600
62     H62   -12.3379   -0.6693    1.8098 H        1 ZINC000056898863    0.0800
63     H63   -10.7021   -1.3555    1.9564 H        1 ZINC000056898863    0.0600
64     H64    -8.2590   -6.4511   -5.6196 H        1 ZINC000056898863    0.0600
65     H65    -9.1618   -5.0702   -6.2877 H        1 ZINC000056898863    0.0700
66     H66    -7.4205   -4.9166   -5.9522 H        1 ZINC000056898863    0.0600
67     H67   -10.2080   -5.1735   -2.7166 H        1 ZINC000056898863    0.0900
68     H68   -10.7896   -5.2202   -4.3983 H        1 ZINC000056898863    0.0700
69     H69    -9.8868   -6.6011   -3.7301 H        1 ZINC000056898863    0.0500
70     H70    -7.8714   -2.9128   -4.5297 H        1 ZINC000056898863    0.0500
71     H71    -9.6127   -3.0664   -4.8652 H        1 ZINC000056898863    0.0700
72     H72    -9.0311   -3.0196   -3.1836 H        1 ZINC000056898863    0.0800
@<TRIPOS>BOND
1     1     2     1
2     1     37    1
3     1     38    1
4     1     39    1
5     2     3     1
6     2     40    1
7     2     41    1
8     3     4     1
9     3     5     1
10    3     6     1
11    6     7     1
12    6     42    1
13    6     43    1
14    7     8     1
15    7     44    1
16    7     45    1
17    8     9     2
18    8     10    2
19    8     11    am
20    11    12    1
21    11    46    1
22    12    13    1
23    12    47    1
24    12    48    1
25    13    30    1
26    13    14    1
27    13    20    1
28    14    19    ar
29    14    15    ar
30    15    16    ar
31    15    49    1
32    16    17    ar
33    16    50    1
34    17    18    ar
35    17    51    1
36    18    19    ar
37    18    52    1
38    19    53    1
39    20    21    1
40    21    22    1
41    21    29    2
42    22    23    am
43    22    54    1
44    23    24    2
45    23    25    1
46    25    26    1
47    25    27    1
48    25    28    1
49    26    55    1
50    26    56    1
51    26    57    1
52    27    58    1
53    27    59    1
54    27    60    1
55    28    61    1
56    28    62    1
57    28    63    1
58    29    30    1
59    30    31    am
60    31    32    2
61    31    33    1
62    33    34    1
63    33    35    1
64    33    36    1
65    34    64    1
66    34    65    1
67    34    66    1
68    35    67    1
69    35    68    1
70    35    69    1
71    36    70    1
72    36    71    1
73    36    72    1
@<TRIPOS>SUBSTRUCTURE
1   ZINC000056898863 1     RESIDUE    1   A     ZIN   1
