@<TRIPOS>MOLECULE
ZINC000001546258
53    55    1     0     0
SMALL
USER_CHARGES
@<TRIPOS>ATOM
1      C1     -0.0173    1.4248    0.0099 C.3      1 ZINC000001546258    0.0200
2      O2      0.0021   -0.0041    0.0020 O.3      1 ZINC000001546258   -0.3100
3      C3     -1.2003   -0.6375    0.0101 C.ar     1 ZINC000001546258    0.1800
4      C4     -2.3734    0.1029    0.0195 C.ar     1 ZINC000001546258   -0.3000
5      C5     -3.6028   -0.5397    0.0273 C.ar     1 ZINC000001546258    0.1800
6      O6     -4.7496    0.1893    0.0365 O.3      1 ZINC000001546258   -0.3100
7      C7     -4.6141    1.6119    0.0375 C.3      1 ZINC000001546258    0.0300
8      C8     -3.6627   -1.9238    0.0253 C.ar     1 ZINC000001546258   -0.1700
9      C9     -2.4863   -2.6705    0.0159 C.ar     1 ZINC000001546258    0.0400
10     C10    -2.5466   -4.1521    0.0137 C.ar     1 ZINC000001546258   -0.1600
11     C11    -1.7950   -4.8931   -0.9224 C.ar     1 ZINC000001546258    0.4700
12     N12    -0.9999   -4.2203   -1.8388 N.am     1 ZINC000001546258   -0.6600
13     C13    -0.2757   -4.9134   -2.7396 C.2      1 ZINC000001546258    0.6900
14     O14    -0.3192   -6.1283   -2.7492 O.2      1 ZINC000001546258   -0.5000
15     N15     0.4967   -4.2598   -3.6298 N.am     1 ZINC000001546258   -0.7400
16     C16     1.2839   -5.0132   -4.6091 C.3      1 ZINC000001546258    0.1900
17     C17     0.3467   -5.8530   -5.4793 C.3      1 ZINC000001546258   -0.1700
18     C18     2.0651   -4.0393   -5.4935 C.3      1 ZINC000001546258   -0.1600
19     C19     2.2620   -5.9343   -3.8770 C.3      1 ZINC000001546258   -0.1700
20     N20    -1.8310   -6.2101   -0.9454 N.ar     1 ZINC000001546258   -0.4800
21     C21    -2.5795   -6.9024   -0.0851 C.ar     1 ZINC000001546258    0.4300
22     N22    -2.6147   -8.2407   -0.1094 N.ar     1 ZINC000001546258   -0.5600
23     C23    -3.3624   -8.9039    0.7520 C.ar     1 ZINC000001546258    0.6000
24     N24    -3.3719  -10.2846    0.6955 N.pl3    1 ZINC000001546258   -0.8100
25     N25    -4.1078   -8.2978    1.6738 N.ar     1 ZINC000001546258   -0.5700
26     C26    -4.1391   -6.9845    1.7765 C.ar     1 ZINC000001546258    0.2700
27     C27    -3.3626   -6.2237    0.8855 C.ar     1 ZINC000001546258   -0.3000
28     C28    -3.3375   -4.8206    0.9349 C.ar     1 ZINC000001546258    0.0400
29     C29    -1.2531   -2.0219    0.0032 C.ar     1 ZINC000001546258   -0.2000
30     H30     1.0053    1.8021    0.0021 H        1 ZINC000001546258    0.1000
31     H31    -0.5445    1.7859   -0.8732 H        1 ZINC000001546258    0.0600
32     H32    -0.5275    1.7763    0.9067 H        1 ZINC000001546258    0.0600
33     H33    -2.3294    1.1820    0.0211 H        1 ZINC000001546258    0.1400
34     H34    -4.0619    1.9236    0.9241 H        1 ZINC000001546258    0.0600
35     H35    -4.0745    1.9262   -0.8558 H        1 ZINC000001546258    0.0600
36     H36    -5.6027    2.0710    0.0452 H        1 ZINC000001546258    0.1000
37     H37    -4.6201   -2.4235    0.0314 H        1 ZINC000001546258    0.1400
38     H38    -0.9652   -3.2509   -1.8311 H        1 ZINC000001546258    0.4200
39     H39     0.5314   -3.2904   -3.6222 H        1 ZINC000001546258    0.3900
40     H40    -0.3502   -5.1969   -6.0008 H        1 ZINC000001546258    0.0500
41     H41     0.9324   -6.4136   -6.2078 H        1 ZINC000001546258    0.0600
42     H42    -0.2098   -6.5468   -4.8492 H        1 ZINC000001546258    0.0800
43     H43     2.7327   -3.4411   -4.8735 H        1 ZINC000001546258    0.0600
44     H44     2.6507   -4.6000   -6.2220 H        1 ZINC000001546258    0.0800
45     H45     1.3682   -3.3832   -6.0150 H        1 ZINC000001546258    0.0600
46     H46     1.7055   -6.6281   -3.2470 H        1 ZINC000001546258    0.0800
47     H47     2.8477   -6.4949   -4.6056 H        1 ZINC000001546258    0.0600
48     H48     2.9297   -5.3360   -3.2571 H        1 ZINC000001546258    0.0500
49     H49    -2.8359  -10.7465    0.0319 H        1 ZINC000001546258    0.4200
50     H50    -3.9144  -10.7918    1.3193 H        1 ZINC000001546258    0.4200
51     H51    -4.7472   -6.5037    2.5284 H        1 ZINC000001546258    0.1800
52     H52    -3.9191   -4.2789    1.6661 H        1 ZINC000001546258    0.1600
53     H53    -0.3395   -2.5977   -0.0045 H        1 ZINC000001546258    0.1400
@<TRIPOS>BOND
1     1     2     1
2     1     30    1
3     1     31    1
4     1     32    1
5     2     3     1
6     3     29    ar
7     3     4     ar
8     4     5     ar
9     4     33    1
10    5     6     1
11    5     8     ar
12    6     7     1
13    7     34    1
14    7     35    1
15    7     36    1
16    8     9     ar
17    8     37    1
18    9     10    1
19    9     29    ar
20    10    28    ar
21    10    11    ar
22    11    12    1
23    11    20    ar
24    12    13    am
25    12    38    1
26    13    14    2
27    13    15    am
28    15    16    1
29    15    39    1
30    16    17    1
31    16    18    1
32    16    19    1
33    17    40    1
34    17    41    1
35    17    42    1
36    18    43    1
37    18    44    1
38    18    45    1
39    19    46    1
40    19    47    1
41    19    48    1
42    20    21    ar
43    21    27    ar
44    21    22    ar
45    22    23    ar
46    23    24    1
47    23    25    ar
48    24    49    1
49    24    50    1
50    25    26    ar
51    26    27    ar
52    26    51    1
53    27    28    ar
54    28    52    1
55    29    53    1
@<TRIPOS>SUBSTRUCTURE
1   ZINC000001546258 1     RESIDUE    1   A     ZIN   1
