@<TRIPOS>MOLECULE
ZINC000003952747
101   102   1     0     0
SMALL
USER_CHARGES
@<TRIPOS>ATOM
1      C1     -0.3311    1.5877   -2.1973 C.3      1 ZINC000003952747   -0.1400
2      C2     -0.0130    0.0982   -2.3421 C.3      1 ZINC000003952747   -0.1100
3      C3      1.2489   -0.0737   -3.1899 C.3      1 ZINC000003952747   -0.1400
4      C4      0.2158   -0.5114   -0.9576 C.3      1 ZINC000003952747    0.1400
5      H5     -0.6832   -0.3889   -0.3535 H        1 ZINC000003952747    0.1100
6      N6      1.3387    0.1666   -0.3050 N.am     1 ZINC000003952747   -0.7100
7      C7      1.1312    1.3113    0.3755 C.2      1 ZINC000003952747    0.5300
8      O8      0.0335    1.8270    0.3744 O.2      1 ZINC000003952747   -0.5100
9      C9      2.2633    1.9504    1.1378 C.3      1 ZINC000003952747    0.0700
10     H10     3.1378    2.0285    0.4919 H        1 ZINC000003952747    0.1000
11     C11     2.6052    1.0925    2.3576 C.3      1 ZINC000003952747   -0.1200
12     C12     2.9256   -0.3334    1.9046 C.3      1 ZINC000003952747   -0.1600
13     C13     3.8204    1.6854    3.0737 C.3      1 ZINC000003952747   -0.1500
14     N14     1.8598    3.2919    1.5802 N.3      1 ZINC000003952747   -0.5200
15     C15     1.0523    3.2215    2.8053 C.3      1 ZINC000003952747    0.0200
16     C16     3.0311    4.1578    1.7707 C.3      1 ZINC000003952747    0.0000
17     C17     0.5292   -1.9785   -1.1002 C.2      1 ZINC000003952747    0.5200
18     O18     1.5864   -2.4149   -0.6965 O.2      1 ZINC000003952747   -0.5300
19     N19    -0.3653   -2.8058   -1.6764 N.am     1 ZINC000003952747   -0.5900
20     C20    -1.6423   -2.2787   -2.1640 C.3      1 ZINC000003952747    0.0800
21     C21    -0.0607   -4.2320   -1.8150 C.3      1 ZINC000003952747    0.1400
22     H22     0.9258   -4.4350   -1.3983 H        1 ZINC000003952747    0.1200
23     C23    -0.0772   -4.6097   -3.2739 C.2      1 ZINC000003952747    0.5300
24     O24    -0.9318   -4.1595   -4.0072 O.2      1 ZINC000003952747   -0.5200
25     N25     0.8578   -5.4478   -3.7636 N.am     1 ZINC000003952747   -0.6000
26     C26     1.8853   -6.1467   -2.9704 C.3      1 ZINC000003952747    0.0900
27     C27     2.2628   -7.3883   -3.8163 C.3      1 ZINC000003952747   -0.1300
28     C28     2.1951   -6.8160   -5.2569 C.3      1 ZINC000003952747   -0.1200
29     C29     1.0180   -5.8214   -5.1765 C.3      1 ZINC000003952747    0.1300
30     H30     1.2425   -4.9329   -5.7666 H        1 ZINC000003952747    0.0900
31     C31    -0.2398   -6.4733   -5.6904 C.2      1 ZINC000003952747    0.5400
32     O32    -0.9980   -7.0209   -4.9182 O.2      1 ZINC000003952747   -0.5000
33     N33    -0.5222   -6.4478   -7.0080 N.am     1 ZINC000003952747   -0.6000
34     C34     0.3571   -5.9157   -8.0649 C.3      1 ZINC000003952747    0.1000
35     C35    -0.0870   -6.6476   -9.3560 C.3      1 ZINC000003952747   -0.1300
36     C36    -1.6227   -6.7347   -9.1520 C.3      1 ZINC000003952747   -0.1200
37     C37    -1.7553   -6.9518   -7.6300 C.3      1 ZINC000003952747    0.1200
38     H38    -2.6111   -6.3943   -7.2492 H        1 ZINC000003952747    0.1000
39     C39    -1.9274   -8.4195   -7.3346 C.2      1 ZINC000003952747    0.5100
40     O40    -1.1064   -9.0023   -6.6585 O.2      1 ZINC000003952747   -0.5100
41     N41    -2.9937   -9.0844   -7.8218 N.am     1 ZINC000003952747   -0.7300
42     C42    -3.1610  -10.5112   -7.5347 C.3      1 ZINC000003952747    0.1700
43     C43    -3.2552  -10.7194   -6.0218 C.3      1 ZINC000003952747   -0.1600
44     C44    -4.4419  -11.0186   -8.2000 C.3      1 ZINC000003952747   -0.1600
45     C45    -1.9606  -11.2858   -8.0823 C.3      1 ZINC000003952747   -0.1600
46     C46    -1.1105   -5.0532   -1.0637 C.3      1 ZINC000003952747   -0.1000
47     C47    -0.7361   -6.5355   -1.1220 C.3      1 ZINC000003952747   -0.1600
48     C48    -1.1652   -4.5980    0.3959 C.3      1 ZINC000003952747   -0.1400
49     H49     0.5043    2.0922   -1.7118 H        1 ZINC000003952747    0.0600
50     H50    -0.4942    2.0220   -3.1836 H        1 ZINC000003952747    0.0500
51     H51    -1.2302    1.7102   -1.5933 H        1 ZINC000003952747    0.0700
52     H52    -0.8484   -0.4062   -2.8276 H        1 ZINC000003952747    0.0900
53     H53     2.0844    0.4307   -2.7044 H        1 ZINC000003952747    0.0600
54     H54     1.4756   -1.1349   -3.2931 H        1 ZINC000003952747    0.0500
55     H55     1.0859    0.3606   -4.1763 H        1 ZINC000003952747    0.0600
56     H56     2.2314   -0.2084   -0.3627 H        1 ZINC000003952747    0.4100
57     H57     1.7548    1.0747    3.0392 H        1 ZINC000003952747    0.0800
58     H58     3.7725   -0.3150    1.2187 H        1 ZINC000003952747    0.0600
59     H59     3.1747   -0.9431    2.7731 H        1 ZINC000003952747    0.0600
60     H60     2.0580   -0.7577    1.3994 H        1 ZINC000003952747    0.0800
61     H61     3.5223    2.5865    3.6097 H        1 ZINC000003952747    0.0600
62     H62     4.2169    0.9565    3.7805 H        1 ZINC000003952747    0.0600
63     H63     4.5876    1.9355    2.3409 H        1 ZINC000003952747    0.0600
64     H64     1.6701    2.8604    3.6274 H        1 ZINC000003952747    0.0300
65     H65     0.6705    4.2136    3.0462 H        1 ZINC000003952747    0.0700
66     H66     0.2170    2.5383    2.6511 H        1 ZINC000003952747    0.0700
67     H67     3.5094    4.3391    0.8082 H        1 ZINC000003952747    0.0700
68     H68     2.7148    5.1067    2.2038 H        1 ZINC000003952747    0.0700
69     H69     3.7382    3.6700    2.4417 H        1 ZINC000003952747    0.0500
70     H70    -1.5341   -1.9680   -3.2031 H        1 ZINC000003952747    0.0700
71     H71    -2.4057   -3.0536   -2.0941 H        1 ZINC000003952747    0.0800
72     H72    -1.9373   -1.4224   -1.5575 H        1 ZINC000003952747    0.0700
73     H73     2.7555   -5.5059   -2.8279 H        1 ZINC000003952747    0.0800
74     H74     1.4774   -6.4536   -2.0073 H        1 ZINC000003952747    0.0900
75     H75     3.2699   -7.7312   -3.5791 H        1 ZINC000003952747    0.0900
76     H76     1.5366   -8.1896   -3.6797 H        1 ZINC000003952747    0.0800
77     H77     3.1220   -6.3023   -5.5118 H        1 ZINC000003952747    0.0900
78     H78     1.9806   -7.6064   -5.9762 H        1 ZINC000003952747    0.0900
79     H79     0.2153   -4.8402   -8.1707 H        1 ZINC000003952747    0.0700
80     H80     1.3996   -6.1415   -7.8404 H        1 ZINC000003952747    0.0800
81     H81     0.1568   -6.0606  -10.2414 H        1 ZINC000003952747    0.0900
82     H82     0.3564   -7.6417   -9.4138 H        1 ZINC000003952747    0.0800
83     H83    -2.1054   -5.8061   -9.4564 H        1 ZINC000003952747    0.0900
84     H84    -2.0367   -7.5827   -9.6977 H        1 ZINC000003952747    0.0900
85     H85    -3.6504   -8.6183   -8.3625 H        1 ZINC000003952747    0.4000
86     H86    -4.1104  -10.1676   -5.6317 H        1 ZINC000003952747    0.0500
87     H87    -3.3796  -11.7810   -5.8082 H        1 ZINC000003952747    0.0600
88     H88    -2.3426  -10.3579   -5.5478 H        1 ZINC000003952747    0.0800
89     H89    -4.3748  -10.8703   -9.2778 H        1 ZINC000003952747    0.0600
90     H90    -4.5664  -12.0802   -7.9864 H        1 ZINC000003952747    0.0700
91     H91    -5.2971  -10.4667   -7.8099 H        1 ZINC000003952747    0.0600
92     H92    -1.0480  -10.9244   -7.6083 H        1 ZINC000003952747    0.0800
93     H93    -2.0850  -12.3474   -7.8687 H        1 ZINC000003952747    0.0600
94     H94    -1.8935  -11.1375   -9.1601 H        1 ZINC000003952747    0.0500
95     H95    -2.0863   -4.9064   -1.5269 H        1 ZINC000003952747    0.0800
96     H96     0.2751   -6.6702   -0.7382 H        1 ZINC000003952747    0.0600
97     H97    -1.4349   -7.1109   -0.5148 H        1 ZINC000003952747    0.0700
98     H98    -0.7818   -6.8815   -2.1547 H        1 ZINC000003952747    0.0700
99     H99    -1.4320   -3.5419    0.4375 H        1 ZINC000003952747    0.0600
100    H100   -1.9132   -5.1830    0.9312 H        1 ZINC000003952747    0.0600
101    H101   -0.1895   -4.7447    0.8591 H        1 ZINC000003952747    0.0600
@<TRIPOS>BOND
1     1     2     1
2     1     49    1
3     1     50    1
4     1     51    1
5     2     3     1
6     2     4     1
7     2     52    1
8     3     53    1
9     3     54    1
10    3     55    1
11    4     5     1
12    4     6     1
13    4     17    1
14    6     7     am
15    6     56    1
16    7     8     2
17    7     9     1
18    9     10    1
19    9     11    1
20    9     14    1
21    11    12    1
22    11    13    1
23    11    57    1
24    12    58    1
25    12    59    1
26    12    60    1
27    13    61    1
28    13    62    1
29    13    63    1
30    14    15    1
31    14    16    1
32    15    64    1
33    15    65    1
34    15    66    1
35    16    67    1
36    16    68    1
37    16    69    1
38    17    18    2
39    17    19    am
40    19    20    1
41    19    21    1
42    20    70    1
43    20    71    1
44    20    72    1
45    21    22    1
46    21    23    1
47    21    46    1
48    23    24    2
49    23    25    am
50    25    29    1
51    25    26    1
52    26    27    1
53    26    73    1
54    26    74    1
55    27    28    1
56    27    75    1
57    27    76    1
58    28    29    1
59    28    77    1
60    28    78    1
61    29    30    1
62    29    31    1
63    31    32    2
64    31    33    am
65    33    37    1
66    33    34    1
67    34    35    1
68    34    79    1
69    34    80    1
70    35    36    1
71    35    81    1
72    35    82    1
73    36    37    1
74    36    83    1
75    36    84    1
76    37    38    1
77    37    39    1
78    39    40    2
79    39    41    am
80    41    42    1
81    41    85    1
82    42    43    1
83    42    44    1
84    42    45    1
85    43    86    1
86    43    87    1
87    43    88    1
88    44    89    1
89    44    90    1
90    44    91    1
91    45    92    1
92    45    93    1
93    45    94    1
94    46    47    1
95    46    48    1
96    46    95    1
97    47    96    1
98    47    97    1
99    47    98    1
100   48    99    1
101   48    100   1
102   48    101   1
@<TRIPOS>SUBSTRUCTURE
1   ZINC000003952747 1     RESIDUE    1   A     ZIN   1
