@<TRIPOS>MOLECULE
ZINC000003989041
53    54    1     0     0
SMALL
USER_CHARGES
@<TRIPOS>ATOM
1      C1     -1.1243    1.6541   -1.3531 C.3      1 ZINC000003989041   -0.1400
2      C2     -0.8472    0.1733   -1.0864 C.3      1 ZINC000003989041   -0.1200
3      C3      0.0501    0.0360    0.1451 C.3      1 ZINC000003989041   -0.1600
4      C4     -2.1690   -0.5563   -0.8382 C.3      1 ZINC000003989041    0.1000
5      H5     -2.8083   -0.4585   -1.7156 H        1 ZINC000003989041    0.1300
6      O6     -2.8242    0.0173    0.2949 O.3      1 ZINC000003989041   -0.5300
7      C7     -1.8961   -2.0149   -0.5755 C.2      1 ZINC000003989041    0.4900
8      O8     -2.1468   -2.4927    0.5107 O.2      1 ZINC000003989041   -0.5300
9      N9     -1.3735   -2.7884   -1.5476 N.am     1 ZINC000003989041   -0.7100
10     C10    -1.1082   -4.2064   -1.2922 C.3      1 ZINC000003989041    0.1300
11     H11    -0.7881   -4.3357   -0.2583 H        1 ZINC000003989041    0.1200
12     C12    -2.3833   -5.0158   -1.5363 C.3      1 ZINC000003989041   -0.1600
13     C13    -0.0218   -4.6889   -2.2185 C.2      1 ZINC000003989041    0.5100
14     O14     0.4813   -3.9237   -3.0137 O.2      1 ZINC000003989041   -0.5100
15     N15     0.3907   -5.9708   -2.1633 N.am     1 ZINC000003989041   -0.7200
16     C16     1.4468   -6.4399   -3.0638 C.3      1 ZINC000003989041    0.1800
17     H17     2.2324   -5.6853   -3.1015 H        1 ZINC000003989041    0.1200
18     C18     2.0232   -7.7036   -2.5080 C.ar     1 ZINC000003989041   -0.1000
19     C19     3.2751   -7.5732   -1.9031 C.ar     1 ZINC000003989041   -0.0900
20     C20     3.9224   -8.6553   -1.3527 C.ar     1 ZINC000003989041   -0.1200
21     C21     3.3190   -9.8983   -1.4007 C.ar     1 ZINC000003989041   -0.1000
22     C22     2.0862  -10.0294   -1.9941 C.ar     1 ZINC000003989041   -0.1300
23     C23     1.4201   -8.9331   -2.5546 C.ar     1 ZINC000003989041   -0.0500
24     C24     0.0805   -9.2699   -3.1500 C.3      1 ZINC000003989041   -0.1100
25     C25    -0.7818   -8.0847   -3.4982 C.3      1 ZINC000003989041    0.1000
26     N26    -0.2246   -7.3160   -4.6028 N.am     1 ZINC000003989041   -0.6000
27     C27    -0.8843   -7.3405   -5.9107 C.3      1 ZINC000003989041    0.0800
28     C28     0.8706   -6.5997   -4.4346 C.2      1 ZINC000003989041    0.5200
29     O29     1.4060   -6.0699   -5.3852 O.2      1 ZINC000003989041   -0.5300
30     H30    -0.1827    2.1738   -1.5300 H        1 ZINC000003989041    0.0600
31     H31    -1.7636    1.7519   -2.2305 H        1 ZINC000003989041    0.0600
32     H32    -1.6240    2.0917   -0.4889 H        1 ZINC000003989041    0.0600
33     H33    -0.3475   -0.2643   -1.9507 H        1 ZINC000003989041    0.0900
34     H34     0.2475   -1.0190    0.3351 H        1 ZINC000003989041    0.0500
35     H35     0.9918    0.5557   -0.0317 H        1 ZINC000003989041    0.0700
36     H36    -0.4496    0.4736    1.0094 H        1 ZINC000003989041    0.0600
37     H37    -2.3117   -0.0342    1.1133 H        1 ZINC000003989041    0.3800
38     H38    -1.1730   -2.4062   -2.4163 H        1 ZINC000003989041    0.4100
39     H39    -2.7034   -4.8865   -2.5702 H        1 ZINC000003989041    0.0700
40     H40    -2.1860   -6.0708   -1.3463 H        1 ZINC000003989041    0.0700
41     H41    -3.1691   -4.6668   -0.8663 H        1 ZINC000003989041    0.0800
42     H42    -0.0117   -6.5828   -1.5273 H        1 ZINC000003989041    0.4100
43     H43     3.7457   -6.6018   -1.8669 H        1 ZINC000003989041    0.1300
44     H44     4.8900   -8.5351   -0.8885 H        1 ZINC000003989041    0.1300
45     H45     3.8126  -10.7596   -0.9755 H        1 ZINC000003989041    0.1300
46     H46     1.6196  -11.0028   -2.0289 H        1 ZINC000003989041    0.1300
47     H47     0.2446   -9.8528   -4.0564 H        1 ZINC000003989041    0.0900
48     H48    -0.4635   -9.8932   -2.4404 H        1 ZINC000003989041    0.1000
49     H49    -1.7749   -8.4376   -3.7764 H        1 ZINC000003989041    0.1000
50     H50    -0.8678   -7.4392   -2.6241 H        1 ZINC000003989041    0.0800
51     H51    -1.6205   -6.5383   -5.9613 H        1 ZINC000003989041    0.0600
52     H52    -0.1407   -7.2013   -6.6954 H        1 ZINC000003989041    0.0800
53     H53    -1.3826   -8.3001   -6.0483 H        1 ZINC000003989041    0.0700
@<TRIPOS>BOND
1     1     2     1
2     1     30    1
3     1     31    1
4     1     32    1
5     2     3     1
6     2     4     1
7     2     33    1
8     3     34    1
9     3     35    1
10    3     36    1
11    4     5     1
12    4     6     1
13    4     7     1
14    6     37    1
15    7     8     2
16    7     9     am
17    9     10    1
18    9     38    1
19    10    11    1
20    10    12    1
21    10    13    1
22    12    39    1
23    12    40    1
24    12    41    1
25    13    14    2
26    13    15    am
27    15    16    1
28    15    42    1
29    16    17    1
30    16    28    1
31    16    18    1
32    18    23    ar
33    18    19    ar
34    19    20    ar
35    19    43    1
36    20    21    ar
37    20    44    1
38    21    22    ar
39    21    45    1
40    22    23    ar
41    22    46    1
42    23    24    1
43    24    25    1
44    24    47    1
45    24    48    1
46    25    26    1
47    25    49    1
48    25    50    1
49    26    27    1
50    26    28    am
51    27    51    1
52    27    52    1
53    27    53    1
54    28    29    2
@<TRIPOS>SUBSTRUCTURE
1   ZINC000003989041 1     RESIDUE    1   A     ZIN   1
