@<TRIPOS>MOLECULE
ZINC000003990418
84    88    1     0     0
SMALL
USER_CHARGES
@<TRIPOS>ATOM
1      C1     -0.9139   -3.8216    1.6313 C.3      1 ZINC000003990418   -0.1500
2      C2     -0.4240   -2.6281    0.8090 C.3      1 ZINC000003990418   -0.1200
3      C3      0.2860   -3.1324   -0.4489 C.3      1 ZINC000003990418   -0.1400
4      C4      0.7759   -1.9388   -1.2713 C.3      1 ZINC000003990418    0.1100
5      N5      1.4559   -2.4218   -2.4757 N.am     1 ZINC000003990418   -0.5900
6      C6      0.7177   -2.7218   -3.5478 C.2      1 ZINC000003990418    0.5200
7      O7     -0.4849   -2.5788   -3.4837 O.2      1 ZINC000003990418   -0.5100
8      C8      1.3136   -3.2276   -4.8271 C.3      1 ZINC000003990418    0.0900
9      H9      0.6712   -4.0070   -5.2369 H        1 ZINC000003990418    0.1200
10     C10     1.4043   -2.0745   -5.8285 C.3      1 ZINC000003990418    0.1100
11     H11     2.0341   -1.2853   -5.4179 H        1 ZINC000003990418    0.1000
12     O12     0.0959   -1.5576   -6.0795 O.3      1 ZINC000003990418   -0.5400
13     C13     2.0117   -2.5825   -7.1377 C.3      1 ZINC000003990418   -0.1200
14     C14     1.0659   -3.6008   -7.7774 C.3      1 ZINC000003990418   -0.1300
15     C15     1.6734   -4.1088   -9.0866 C.3      1 ZINC000003990418   -0.1200
16     C16     1.8794   -2.9328  -10.0434 C.3      1 ZINC000003990418   -0.1200
17     C17     2.8252   -1.9145   -9.4036 C.3      1 ZINC000003990418   -0.1200
18     C18     2.2178   -1.4065   -8.0944 C.3      1 ZINC000003990418   -0.1100
19     N19     2.6460   -3.7737   -4.6074 N.am     1 ZINC000003990418   -0.7100
20     C20     3.3828   -3.4787   -3.5329 C.2      1 ZINC000003990418    0.5200
21     O21     4.4824   -3.9794   -3.4280 O.2      1 ZINC000003990418   -0.5100
22     C22     2.9091   -2.5476   -2.4521 C.3      1 ZINC000003990418    0.1600
23     C23     3.5522   -1.1699   -2.6526 C.3      1 ZINC000003990418   -0.1100
24     C24     5.0732   -1.3052   -2.5567 C.3      1 ZINC000003990418    0.0500
25     N25     5.4368   -1.8415   -1.2390 N.3      1 ZINC000003990418   -0.5300
26     C26     6.8949   -1.8586   -1.0616 C.3      1 ZINC000003990418    0.1100
27     C27     7.2404   -2.6331    0.1841 C.ar     1 ZINC000003990418   -0.1300
28     C28     7.3264   -1.9812    1.4004 C.ar     1 ZINC000003990418   -0.0600
29     C29     7.6429   -2.6888    2.5438 C.ar     1 ZINC000003990418   -0.1900
30     C30     7.8746   -4.0549    2.4710 C.ar     1 ZINC000003990418    0.1300
31     O31     8.1856   -4.7533    3.5943 O.3      1 ZINC000003990418   -0.2600
32     C32     8.1498   -4.0985    4.7818 C.ar     1 ZINC000003990418    0.0600
33     C33     9.3363   -3.7189    5.4002 C.ar     1 ZINC000003990418   -0.1400
34     C34     9.3047   -3.0543    6.6049 C.ar     1 ZINC000003990418   -0.0700
35     C35     8.0766   -2.7603    7.2073 C.ar     1 ZINC000003990418   -0.1300
36     C36     8.0377   -2.0491    8.4959 C.2      1 ZINC000003990418    0.5200
37     O37     9.0802   -1.7143    9.0415 O.co2    1 ZINC000003990418   -0.6800
38     O38     6.9628   -1.7929    9.0209 O.co2    1 ZINC000003990418   -0.6800
39     C39     6.8855   -3.1437    6.5812 C.ar     1 ZINC000003990418   -0.0700
40     C40     6.9265   -3.8036    5.3743 C.ar     1 ZINC000003990418   -0.1500
41     C41     7.7876   -4.7067    1.2491 C.ar     1 ZINC000003990418   -0.1500
42     C42     7.4652   -3.9954    0.1097 C.ar     1 ZINC000003990418   -0.0800
43     C43     4.8661   -3.1789   -1.0344 C.3      1 ZINC000003990418    0.0300
44     C44     3.3391   -3.0973   -1.0863 C.3      1 ZINC000003990418   -0.1100
45     H45    -1.6082   -4.4134    1.0347 H        1 ZINC000003990418    0.0500
46     H46    -0.0628   -4.4395    1.9176 H        1 ZINC000003990418    0.0500
47     H47    -1.4198   -3.4623    2.5274 H        1 ZINC000003990418    0.0600
48     H48    -1.2752   -2.0102    0.5227 H        1 ZINC000003990418    0.0600
49     H49     0.2702   -2.0363    1.4055 H        1 ZINC000003990418    0.0700
50     H50     1.1372   -3.7503   -0.1627 H        1 ZINC000003990418    0.0700
51     H51    -0.4082   -3.7242   -1.0455 H        1 ZINC000003990418    0.0700
52     H52    -0.0752   -1.3210   -1.5575 H        1 ZINC000003990418    0.0900
53     H53     1.4702   -1.3470   -0.6747 H        1 ZINC000003990418    0.0900
54     H54    -0.5197   -2.2067   -6.4467 H        1 ZINC000003990418    0.3800
55     H55     2.9715   -3.0567   -6.9329 H        1 ZINC000003990418    0.0800
56     H56     0.9191   -4.4386   -7.0958 H        1 ZINC000003990418    0.0600
57     H57     0.1061   -3.1265   -7.9822 H        1 ZINC000003990418    0.0700
58     H58     2.6332   -4.5831   -8.8818 H        1 ZINC000003990418    0.0600
59     H59     0.9995   -4.8343   -9.5424 H        1 ZINC000003990418    0.0600
60     H60     2.3122   -3.2947  -10.9760 H        1 ZINC000003990418    0.0600
61     H61     0.9196   -2.4585  -10.2481 H        1 ZINC000003990418    0.0600
62     H62     3.7851   -2.3887   -9.1988 H        1 ZINC000003990418    0.0600
63     H63     2.9720   -1.0767  -10.0852 H        1 ZINC000003990418    0.0600
64     H64     1.2580   -0.9322   -8.2992 H        1 ZINC000003990418    0.0700
65     H65     2.8916   -0.6810   -7.6386 H        1 ZINC000003990418    0.0600
66     H66     3.0144   -4.3784   -5.2703 H        1 ZINC000003990418    0.4100
67     H67     3.2824   -0.7816   -3.6348 H        1 ZINC000003990418    0.0700
68     H68     3.1980   -0.4869   -1.8805 H        1 ZINC000003990418    0.0900
69     H69     5.4272   -1.9819   -3.3344 H        1 ZINC000003990418    0.0500
70     H70     5.5339   -0.3264   -2.6901 H        1 ZINC000003990418    0.0800
71     H71     7.3605   -2.3333   -1.9254 H        1 ZINC000003990418    0.0400
72     H72     7.2614   -0.8364   -0.9673 H        1 ZINC000003990418    0.0800
73     H73     7.1463   -0.9178    1.4565 H        1 ZINC000003990418    0.1300
74     H74     7.7103   -2.1790    3.4936 H        1 ZINC000003990418    0.1300
75     H75    10.2838   -3.9462    4.9345 H        1 ZINC000003990418    0.1200
76     H76    10.2265   -2.7605    7.0848 H        1 ZINC000003990418    0.1400
77     H77     5.9353   -2.9189    7.0427 H        1 ZINC000003990418    0.1300
78     H78     6.0077   -4.0997    4.8901 H        1 ZINC000003990418    0.1200
79     H79     7.9675   -5.7700    1.1897 H        1 ZINC000003990418    0.1300
80     H80     7.3971   -4.5023   -0.8416 H        1 ZINC000003990418    0.1200
81     H81     5.2207   -3.8488   -1.8178 H        1 ZINC000003990418    0.0900
82     H82     5.1764   -3.5613   -0.0620 H        1 ZINC000003990418    0.0900
83     H83     2.9830   -2.4338   -0.2982 H        1 ZINC000003990418    0.0900
84     H84     2.9163   -4.0919   -0.9446 H        1 ZINC000003990418    0.0700
@<TRIPOS>BOND
1     1     2     1
2     1     45    1
3     1     46    1
4     1     47    1
5     2     3     1
6     2     48    1
7     2     49    1
8     3     4     1
9     3     50    1
10    3     51    1
11    4     5     1
12    4     52    1
13    4     53    1
14    5     22    1
15    5     6     am
16    6     7     2
17    6     8     1
18    8     9     1
19    8     10    1
20    8     19    1
21    10    11    1
22    10    12    1
23    10    13    1
24    12    54    1
25    13    18    1
26    13    14    1
27    13    55    1
28    14    15    1
29    14    56    1
30    14    57    1
31    15    16    1
32    15    58    1
33    15    59    1
34    16    17    1
35    16    60    1
36    16    61    1
37    17    18    1
38    17    62    1
39    17    63    1
40    18    64    1
41    18    65    1
42    19    20    am
43    19    66    1
44    20    21    2
45    20    22    1
46    22    44    1
47    22    23    1
48    23    24    1
49    23    67    1
50    23    68    1
51    24    25    1
52    24    69    1
53    24    70    1
54    25    26    1
55    25    43    1
56    26    27    1
57    26    71    1
58    26    72    1
59    27    42    ar
60    27    28    ar
61    28    29    ar
62    28    73    1
63    29    30    ar
64    29    74    1
65    30    31    1
66    30    41    ar
67    31    32    1
68    32    40    ar
69    32    33    ar
70    33    34    ar
71    33    75    1
72    34    35    ar
73    34    76    1
74    35    36    1
75    35    39    ar
76    36    37    ar
77    36    38    ar
78    39    40    ar
79    39    77    1
80    40    78    1
81    41    42    ar
82    41    79    1
83    42    80    1
84    43    44    1
85    43    81    1
86    43    82    1
87    44    83    1
88    44    84    1
@<TRIPOS>SUBSTRUCTURE
1   ZINC000003990418 1     RESIDUE    1   A     ZIN   1
