@<TRIPOS>MOLECULE
ZINC000006381855
  34   35    0    0    0
SMALL
USER_CHARGES
NO_NAME
@<TRIPOS>ATOM
    1 C1       -0.0187     1.5258     0.0104 C.3    1 <0>      -0.1900
    2 C2        0.0021    -0.0041     0.0020 C.3    1 <0>       0.0700
    3 H3        0.5123    -0.3556    -0.8948 H      1 <0>       0.0600
    4 O4       -1.3386    -0.4987     0.0122 O.3    1 <0>      -0.5700
    5 C5        0.7421    -0.5109     1.2415 C.3    1 <0>       0.1100
    6 H6        1.7879    -0.2080     1.1895 H      1 <0>       0.1000
    7 O7        0.1431     0.0444     2.4141 O.3    1 <0>      -0.5500
    8 C8        0.6554    -2.0374     1.2986 C.3    1 <0>       0.1100
    9 H9       -0.3890    -2.3448     1.3507 H      1 <0>       0.1300
   10 C10       1.4097    -2.5535     2.5325 C.3    1 <0>       0.1100
   11 N11       2.8303    -2.2023     2.3879 N.pl3  1 <0>      -0.7000
   12 C12       3.4567    -2.4258     1.1672 C.ar   1 <0>       0.4200
   13 N13       4.7822    -2.4478     1.0724 N.ar   1 <0>      -0.5800
   14 H14       5.3239    -2.3080     1.8648 H      1 <0>       0.4400
   15 C15       5.3695    -2.6598    -0.0969 C.ar   1 <0>       0.6600
   16 N16       6.7546    -2.6764    -0.1599 N.pl3  1 <0>      -0.8000
   17 N17       4.6743    -2.8565    -1.2062 N.ar   1 <0>      -0.5700
   18 C18       3.3413    -2.8494    -1.1891 C.ar   1 <0>       0.5100
   19 N19       2.6162    -3.0560    -2.3564 N.pl3  1 <0>      -0.7900
   20 C20       2.6908    -2.6303     0.0213 C.ar   1 <0>      -0.0100
   21 N21       1.2842    -2.6158     0.1002 N.pl3  1 <0>      -0.7200
   22 H22       1.0039     1.9031     0.0027 H      1 <0>       0.0600
   23 H23      -0.5459     1.8868    -0.8726 H      1 <0>       0.0600
   24 H24      -0.5289     1.8773     0.9072 H      1 <0>       0.0800
   25 H25      -1.8677    -0.2163    -0.7464 H      1 <0>       0.3900
   26 H26      -0.7898    -0.1845     2.5253 H      1 <0>       0.3900
   27 H27       1.0059    -2.0873     3.4312 H      1 <0>       0.1200
   28 H28       1.3043    -3.6362     2.6009 H      1 <0>       0.0900
   29 H29       3.3221    -1.8207     3.1318 H      1 <0>       0.4200
   30 H30       7.2784    -2.5342     0.6440 H      1 <0>       0.4300
   31 H31       7.1996    -2.8302    -1.0080 H      1 <0>       0.4400
   32 H32       3.0797    -3.2074    -3.1949 H      1 <0>       0.4300
   33 H33       1.6465    -3.0488    -2.3326 H      1 <0>       0.4200
   34 H34       0.7434    -2.9788    -0.6186 H      1 <0>       0.4100
@<TRIPOS>BOND
   1    1    2 1
   2    1   22 1
   3    1   23 1
   4    1   24 1
   5    2    3 1
   6    2    4 1
   7    2    5 1
   8    4   25 1
   9    5    6 1
  10    5    7 1
  11    5    8 1
  12    7   26 1
  13    8    9 1
  14    8   21 1
  15    8   10 1
  16   10   11 1
  17   10   27 1
  18   10   28 1
  19   11   12 1
  20   11   29 1
  21   12   20 ar
  22   12   13 ar
  23   13   14 1
  24   13   15 ar
  25   15   16 1
  26   15   17 ar
  27   16   30 1
  28   16   31 1
  29   17   18 ar
  30   18   19 1
  31   18   20 ar
  32   19   32 1
  33   19   33 1
  34   20   21 1
  35   21   34 1
