@<TRIPOS>MOLECULE
ZINC000043911055
76    76    1     0     0
SMALL
USER_CHARGES
@<TRIPOS>ATOM
1      C1     -3.7551    2.4821   -4.9732 C.3      1 ZINC000043911055   -0.1500
2      C2     -3.4684    1.0264   -4.5995 C.3      1 ZINC000043911055   -0.1300
3      C3     -4.7882    0.2627   -4.4740 C.3      1 ZINC000043911055   -0.1200
4      C4     -4.5016   -1.1930   -4.1003 C.3      1 ZINC000043911055   -0.1200
5      C5     -5.8214   -1.9567   -3.9747 C.3      1 ZINC000043911055   -0.1200
6      C6     -5.5347   -3.4124   -3.6010 C.3      1 ZINC000043911055   -0.1200
7      C7     -6.8545   -4.1762   -3.4755 C.3      1 ZINC000043911055   -0.1200
8      C8     -6.5678   -5.6319   -3.1018 C.3      1 ZINC000043911055   -0.1200
9      C9     -7.8876   -6.3956   -2.9763 C.3      1 ZINC000043911055   -0.1200
10     C10    -7.6009   -7.8513   -2.6026 C.3      1 ZINC000043911055   -0.1200
11     C11    -8.9207   -8.6150   -2.4771 C.3      1 ZINC000043911055   -0.1200
12     C12    -8.6341  -10.0707   -2.1034 C.3      1 ZINC000043911055   -0.1200
13     C13    -9.9539  -10.8344   -1.9778 C.3      1 ZINC000043911055   -0.1200
14     C14    -9.6672  -12.2901   -1.6041 C.3      1 ZINC000043911055    0.0600
15     O15   -10.8999  -13.0034   -1.4869 O.3      1 ZINC000043911055   -0.3100
16     C16   -10.8222  -14.3180   -1.1581 C.ar     1 ZINC000043911055    0.1500
17     C17    -9.5807  -14.9071   -0.9470 C.ar     1 ZINC000043911055   -0.2100
18     C18    -9.4964  -16.2399   -0.6134 C.ar     1 ZINC000043911055   -0.0500
19     C19   -10.6637  -17.0024   -0.4868 C.ar     1 ZINC000043911055   -0.1200
20     C20   -10.5797  -18.4256   -0.1303 C.2      1 ZINC000043911055    0.0100
21     C21   -11.5125  -18.9759    0.6771 C.2      1 ZINC000043911055   -0.1800
22     C22   -12.5458  -18.1018    1.3398 C.3      1 ZINC000043911055   -0.1100
23     C23   -11.5194  -20.3759    0.9011 C.2      1 ZINC000043911055    0.5100
24     O24   -10.6853  -21.0816    0.3661 O.2      1 ZINC000043911055   -0.5100
25     O25   -12.4511  -20.9256    1.7075 O.3      1 ZINC000043911055   -0.3300
26     C26   -12.3986  -22.3422    1.8881 C.3      1 ZINC000043911055    0.0400
27     C27   -13.5247  -22.7786    2.8274 C.3      1 ZINC000043911055    0.1100
28     H28   -13.4574  -22.2188    3.7602 H        1 ZINC000043911055    0.1200
29     O29   -14.7871  -22.5230    2.2085 O.3      1 ZINC000043911055   -0.5400
30     C30   -13.3938  -24.2747    3.1199 C.3      1 ZINC000043911055    0.0500
31     O31   -14.3735  -24.6585    4.0868 O.3      1 ZINC000043911055   -0.5600
32     C32   -11.9113  -16.4043   -0.7004 C.ar     1 ZINC000043911055   -0.0500
33     C33   -11.9848  -15.0694   -1.0281 C.ar     1 ZINC000043911055   -0.1600
34     H34    -2.8149    3.0262   -5.0626 H        1 ZINC000043911055    0.0500
35     H35    -4.2859    2.5152   -5.9246 H        1 ZINC000043911055    0.0500
36     H36    -4.3687    2.9420   -4.1985 H        1 ZINC000043911055    0.0500
37     H37    -2.8548    0.5665   -5.3741 H        1 ZINC000043911055    0.0600
38     H38    -2.9376    0.9933   -3.6481 H        1 ZINC000043911055    0.0600
39     H39    -5.4019    0.7226   -3.6993 H        1 ZINC000043911055    0.0600
40     H40    -5.3191    0.2958   -5.4254 H        1 ZINC000043911055    0.0600
41     H41    -3.8879   -1.6529   -4.8749 H        1 ZINC000043911055    0.0600
42     H42    -3.9707   -1.2261   -3.1488 H        1 ZINC000043911055    0.0600
43     H43    -6.4350   -1.4968   -3.2001 H        1 ZINC000043911055    0.0600
44     H44    -6.3522   -1.9236   -4.9262 H        1 ZINC000043911055    0.0600
45     H45    -4.9210   -3.8723   -4.3757 H        1 ZINC000043911055    0.0600
46     H46    -5.0038   -3.4455   -2.6496 H        1 ZINC000043911055    0.0600
47     H47    -7.4681   -3.7163   -2.7009 H        1 ZINC000043911055    0.0600
48     H48    -7.3853   -4.1431   -4.4269 H        1 ZINC000043911055    0.0600
49     H49    -5.9542   -6.0917   -3.8764 H        1 ZINC000043911055    0.0600
50     H50    -6.0370   -5.6650   -2.1504 H        1 ZINC000043911055    0.0600
51     H51    -8.5012   -5.9357   -2.2017 H        1 ZINC000043911055    0.0600
52     H52    -8.4185   -6.3625   -3.9277 H        1 ZINC000043911055    0.0600
53     H53    -6.9873   -8.3112   -3.3772 H        1 ZINC000043911055    0.0600
54     H54    -7.0701   -7.8844   -1.6512 H        1 ZINC000043911055    0.0600
55     H55    -9.5344   -8.1551   -1.7024 H        1 ZINC000043911055    0.0600
56     H56    -9.4516   -8.5819   -3.4285 H        1 ZINC000043911055    0.0600
57     H57    -8.0204  -10.5306   -2.8780 H        1 ZINC000043911055    0.0700
58     H58    -8.1032  -10.1038   -1.1519 H        1 ZINC000043911055    0.0700
59     H59   -10.5675  -10.3745   -1.2032 H        1 ZINC000043911055    0.0700
60     H60   -10.4847  -10.8013   -2.9293 H        1 ZINC000043911055    0.0700
61     H61    -9.0535  -12.7500   -2.3788 H        1 ZINC000043911055    0.0600
62     H62    -9.1363  -12.3232   -0.6527 H        1 ZINC000043911055    0.0600
63     H63    -8.6808  -14.3181   -1.0453 H        1 ZINC000043911055    0.1300
64     H64    -8.5315  -16.6967   -0.4499 H        1 ZINC000043911055    0.1300
65     H65    -9.7721  -19.0316   -0.5139 H        1 ZINC000043911055    0.1400
66     H66   -13.3959  -17.9724    0.6700 H        1 ZINC000043911055    0.0700
67     H67   -12.8802  -18.5718    2.2647 H        1 ZINC000043911055    0.0800
68     H68   -12.1086  -17.1288    1.5642 H        1 ZINC000043911055    0.0700
69     H69   -12.5178  -22.8361    0.9238 H        1 ZINC000043911055    0.0700
70     H70   -11.4370  -22.6179    2.3211 H        1 ZINC000043911055    0.0800
71     H71   -14.9166  -22.9898    1.3715 H        1 ZINC000043911055    0.3700
72     H72   -13.5496  -24.8396    2.2008 H        1 ZINC000043911055    0.0500
73     H73   -12.3975  -24.4829    3.5098 H        1 ZINC000043911055    0.0600
74     H74   -14.3489  -25.5965    4.3207 H        1 ZINC000043911055    0.3800
75     H75   -12.8147  -16.9883   -0.6043 H        1 ZINC000043911055    0.1400
76     H76   -12.9467  -14.6070   -1.1932 H        1 ZINC000043911055    0.1400
@<TRIPOS>BOND
1     1     2     1
2     1     34    1
3     1     35    1
4     1     36    1
5     2     3     1
6     2     37    1
7     2     38    1
8     3     4     1
9     3     39    1
10    3     40    1
11    4     5     1
12    4     41    1
13    4     42    1
14    5     6     1
15    5     43    1
16    5     44    1
17    6     7     1
18    6     45    1
19    6     46    1
20    7     8     1
21    7     47    1
22    7     48    1
23    8     9     1
24    8     49    1
25    8     50    1
26    9     10    1
27    9     51    1
28    9     52    1
29    10    11    1
30    10    53    1
31    10    54    1
32    11    12    1
33    11    55    1
34    11    56    1
35    12    13    1
36    12    57    1
37    12    58    1
38    13    14    1
39    13    59    1
40    13    60    1
41    14    15    1
42    14    61    1
43    14    62    1
44    15    16    1
45    16    33    ar
46    16    17    ar
47    17    18    ar
48    17    63    1
49    18    19    ar
50    18    64    1
51    19    20    1
52    19    32    ar
53    20    21    2
54    20    65    1
55    21    22    1
56    21    23    1
57    22    66    1
58    22    67    1
59    22    68    1
60    23    24    2
61    23    25    1
62    25    26    1
63    26    27    1
64    26    69    1
65    26    70    1
66    27    28    1
67    27    29    1
68    27    30    1
69    29    71    1
70    30    31    1
71    30    72    1
72    30    73    1
73    31    74    1
74    32    33    ar
75    32    75    1
76    33    76    1
@<TRIPOS>SUBSTRUCTURE
1   ZINC000043911055 1     RESIDUE    1   A     ZIN   1
