@<TRIPOS>MOLECULE
ZINC000095681438
101   106   1     0     0
SMALL
USER_CHARGES
@<TRIPOS>ATOM
1      C1     -0.1906    2.9757   -1.2584 C.3      1 ZINC000095681438   -0.1600
2      C2      0.2687    1.5698   -0.9693 C.2      1 ZINC000095681438    0.4600
3      O3      0.3845    1.1951    0.1735 O.2      1 ZINC000095681438   -0.4700
4      O4      0.5490    0.7338   -1.9814 O.3      1 ZINC000095681438   -0.3500
5      C5      0.7747   -0.6598   -1.6420 C.3      1 ZINC000095681438    0.0800
6      H6      0.5050   -0.8509   -0.6033 H        1 ZINC000095681438    0.1300
7      C7      2.2521   -1.0580   -1.9083 C.3      1 ZINC000095681438    0.0200
8      H8      2.5791   -1.7949   -1.1748 H        1 ZINC000095681438    0.1500
9      N9      3.1135    0.1304   -1.8472 N.4      1 ZINC000095681438   -0.2500
10     C10     2.8018    1.0179   -2.9755 C.3      1 ZINC000095681438   -0.0900
11     C11     2.8725    0.8432   -0.5868 C.3      1 ZINC000095681438   -0.0700
12     C12     3.7075    2.1250   -0.5537 C.3      1 ZINC000095681438   -0.1400
13     C13     5.1918    1.7638   -0.6619 C.3      1 ZINC000095681438   -0.1400
14     C14     5.4184    0.9565   -1.9433 C.3      1 ZINC000095681438   -0.1400
15     C15     4.5200   -0.2821   -1.9250 C.3      1 ZINC000095681438   -0.0100
16     C16     2.2895   -1.6707   -3.3307 C.3      1 ZINC000095681438   -0.1300
17     C17     0.8698   -1.5277   -3.8687 C.3      1 ZINC000095681438   -0.0800
18     H18     0.7553   -0.5577   -4.3525 H        1 ZINC000095681438    0.0900
19     C19     0.3799   -2.6225   -4.7944 C.3      1 ZINC000095681438   -0.0800
20     H20     0.3934   -3.5792   -4.2723 H        1 ZINC000095681438    0.0900
21     C21     1.2607   -2.7031   -6.0420 C.3      1 ZINC000095681438   -0.1100
22     C22     0.7178   -3.7834   -6.9798 C.3      1 ZINC000095681438   -0.1200
23     C23    -0.7140   -3.4338   -7.3898 C.3      1 ZINC000095681438   -0.0700
24     H24    -0.7195   -2.4739   -7.9062 H        1 ZINC000095681438    0.0800
25     C25    -1.2568   -4.5176   -8.3232 C.3      1 ZINC000095681438   -0.1300
26     C26    -2.6881   -4.1668   -8.7346 C.3      1 ZINC000095681438    0.0700
27     H27    -3.0745   -4.9388   -9.4001 H        1 ZINC000095681438    0.1100
28     O28    -2.6946   -2.8877   -9.4218 O.3      1 ZINC000095681438   -0.3600
29     C29    -2.5344   -2.9110  -10.7543 C.2      1 ZINC000095681438    0.4600
30     C30    -2.5304   -1.6222  -11.5353 C.3      1 ZINC000095681438   -0.1500
31     O31    -2.3935   -3.9652  -11.3275 O.2      1 ZINC000095681438   -0.4900
32     C32    -3.5698   -4.0804   -7.4872 C.3      1 ZINC000095681438    0.0300
33     H33    -3.5639   -5.0404   -6.9708 H        1 ZINC000095681438    0.1500
34     N34    -4.9446   -3.7449   -7.8815 N.4      1 ZINC000095681438   -0.2600
35     C35    -5.8486   -3.9789   -6.7475 C.3      1 ZINC000095681438   -0.0600
36     C36    -5.0090   -2.3312   -8.2712 C.3      1 ZINC000095681438   -0.0300
37     C37    -6.4543   -1.9556   -8.6052 C.3      1 ZINC000095681438   -0.1500
38     C38    -6.9484   -2.8287   -9.7622 C.3      1 ZINC000095681438   -0.1400
39     C39    -6.8071   -4.3030   -9.3728 C.3      1 ZINC000095681438   -0.1500
40     C40    -5.3487   -4.5916   -9.0103 C.3      1 ZINC000095681438   -0.0100
41     C41    -3.0277   -2.9960   -6.5540 C.3      1 ZINC000095681438   -0.1300
42     C42    -1.5964   -3.3467   -6.1426 C.3      1 ZINC000095681438   -0.0400
43     C43    -1.5896   -4.6927   -5.4151 C.3      1 ZINC000095681438   -0.1700
44     C44    -1.0615   -2.2705   -5.1950 C.3      1 ZINC000095681438   -0.0700
45     H45    -1.0426   -1.3160   -5.7210 H        1 ZINC000095681438    0.0700
46     C46    -1.9712   -2.1451   -3.9782 C.3      1 ZINC000095681438   -0.1200
47     C47    -1.4115   -1.1376   -2.9601 C.3      1 ZINC000095681438   -0.1000
48     C48    -0.0087   -1.5810   -2.5838 C.3      1 ZINC000095681438   -0.0600
49     C49    -0.0277   -3.0180   -2.0590 C.3      1 ZINC000095681438   -0.1600
50     H50     0.6752    3.6348   -1.3221 H        1 ZINC000095681438    0.1200
51     H51    -0.7315    2.9939   -2.2045 H        1 ZINC000095681438    0.1100
52     H52    -0.8476    3.3152   -0.4577 H        1 ZINC000095681438    0.1200
53     H53     1.7267    1.1936   -3.0134 H        1 ZINC000095681438    0.1600
54     H54     3.3208    1.9675   -2.8450 H        1 ZINC000095681438    0.1200
55     H55     3.1266    0.5511   -3.9054 H        1 ZINC000095681438    0.1200
56     H56     1.8152    1.0968   -0.5098 H        1 ZINC000095681438    0.1600
57     H57     3.1541    0.2049    0.2506 H        1 ZINC000095681438    0.1200
58     H58     3.4265    2.7642   -1.3907 H        1 ZINC000095681438    0.0900
59     H59     3.5286    2.6519    0.3836 H        1 ZINC000095681438    0.1100
60     H60     5.7874    2.6760   -0.6957 H        1 ZINC000095681438    0.1000
61     H61     5.4856    1.1670    0.2016 H        1 ZINC000095681438    0.0800
62     H62     5.1729    1.5714   -2.8092 H        1 ZINC000095681438    0.0900
63     H63     6.4624    0.6480   -1.9994 H        1 ZINC000095681438    0.1100
64     H64     4.7665   -0.8964   -1.0590 H        1 ZINC000095681438    0.1200
65     H65     4.6790   -0.8592   -2.8359 H        1 ZINC000095681438    0.1300
66     H66     2.9892   -1.1211   -3.9604 H        1 ZINC000095681438    0.0900
67     H67     2.5705   -2.7227   -3.2815 H        1 ZINC000095681438    0.1100
68     H68     1.2546   -1.7408   -6.5540 H        1 ZINC000095681438    0.0700
69     H69     2.2809   -2.9536   -5.7511 H        1 ZINC000095681438    0.0700
70     H70     1.3460   -3.8418   -7.8686 H        1 ZINC000095681438    0.0700
71     H71     0.7240   -4.7455   -6.4674 H        1 ZINC000095681438    0.0700
72     H72    -0.6283   -4.5800   -9.2116 H        1 ZINC000095681438    0.0900
73     H73    -1.2521   -5.4775   -7.8067 H        1 ZINC000095681438    0.0900
74     H74    -1.5114   -1.2412  -11.6025 H        1 ZINC000095681438    0.1100
75     H75    -2.9173   -1.8038  -12.5381 H        1 ZINC000095681438    0.1100
76     H76    -3.1598   -0.8894  -11.0304 H        1 ZINC000095681438    0.1000
77     H77    -5.5477   -3.3525   -5.9077 H        1 ZINC000095681438    0.1200
78     H78    -6.8690   -3.7302   -7.0390 H        1 ZINC000095681438    0.1300
79     H79    -5.7998   -5.0276   -6.4543 H        1 ZINC000095681438    0.1200
80     H80    -4.6540   -1.7113   -7.4479 H        1 ZINC000095681438    0.1300
81     H81    -4.3799   -2.1669   -9.1460 H        1 ZINC000095681438    0.1400
82     H82    -7.0842   -2.1193   -7.7309 H        1 ZINC000095681438    0.0900
83     H83    -6.4997   -0.9061   -8.8960 H        1 ZINC000095681438    0.1100
84     H84    -7.9953   -2.6045   -9.9667 H        1 ZINC000095681438    0.1000
85     H85    -6.3510   -2.6278  -10.6515 H        1 ZINC000095681438    0.0800
86     H86    -7.4444   -4.5154   -8.5144 H        1 ZINC000095681438    0.0900
87     H87    -7.1047   -4.9314  -10.2122 H        1 ZINC000095681438    0.1100
88     H88    -4.7124   -4.3791   -9.8694 H        1 ZINC000095681438    0.1200
89     H89    -5.2445   -5.6405   -8.7327 H        1 ZINC000095681438    0.1300
90     H90    -3.0333   -2.0362   -7.0706 H        1 ZINC000095681438    0.1000
91     H91    -3.6561   -2.9339   -5.6656 H        1 ZINC000095681438    0.0900
92     H92    -1.9766   -5.4662   -6.0785 H        1 ZINC000095681438    0.0600
93     H93    -0.5698   -4.9422   -5.1222 H        1 ZINC000095681438    0.0800
94     H94    -2.2176   -4.6286   -4.5265 H        1 ZINC000095681438    0.0700
95     H95    -2.9573   -1.8131   -4.3031 H        1 ZINC000095681438    0.0700
96     H96    -2.0642   -3.1204   -3.5005 H        1 ZINC000095681438    0.0800
97     H97    -1.3501   -0.1480   -3.4129 H        1 ZINC000095681438    0.0700
98     H98    -2.0535   -1.1045   -2.0798 H        1 ZINC000095681438    0.0700
99     H99    -0.4784   -3.6717   -2.8059 H        1 ZINC000095681438    0.0900
100    H100    0.9925   -3.3450   -1.8583 H        1 ZINC000095681438    0.0600
101    H101   -0.6107   -3.0612   -1.1391 H        1 ZINC000095681438    0.0700
@<TRIPOS>BOND
1     1     2     1
2     1     50    1
3     1     51    1
4     1     52    1
5     2     3     2
6     2     4     1
7     4     5     1
8     5     6     1
9     5     48    1
10    5     7     1
11    7     8     1
12    7     9     1
13    7     16    1
14    9     15    1
15    9     10    1
16    9     11    1
17    10    53    1
18    10    54    1
19    10    55    1
20    11    12    1
21    11    56    1
22    11    57    1
23    12    13    1
24    12    58    1
25    12    59    1
26    13    14    1
27    13    60    1
28    13    61    1
29    14    15    1
30    14    62    1
31    14    63    1
32    15    64    1
33    15    65    1
34    16    17    1
35    16    66    1
36    16    67    1
37    17    18    1
38    17    48    1
39    17    19    1
40    19    20    1
41    19    44    1
42    19    21    1
43    21    22    1
44    21    68    1
45    21    69    1
46    22    23    1
47    22    70    1
48    22    71    1
49    23    24    1
50    23    42    1
51    23    25    1
52    25    26    1
53    25    72    1
54    25    73    1
55    26    27    1
56    26    28    1
57    26    32    1
58    28    29    1
59    29    30    1
60    29    31    2
61    30    74    1
62    30    75    1
63    30    76    1
64    32    33    1
65    32    34    1
66    32    41    1
67    34    40    1
68    34    35    1
69    34    36    1
70    35    77    1
71    35    78    1
72    35    79    1
73    36    37    1
74    36    80    1
75    36    81    1
76    37    38    1
77    37    82    1
78    37    83    1
79    38    39    1
80    38    84    1
81    38    85    1
82    39    40    1
83    39    86    1
84    39    87    1
85    40    88    1
86    40    89    1
87    41    42    1
88    41    90    1
89    41    91    1
90    42    43    1
91    42    44    1
92    43    92    1
93    43    93    1
94    43    94    1
95    44    45    1
96    44    46    1
97    46    47    1
98    46    95    1
99    46    96    1
100   47    48    1
101   47    97    1
102   47    98    1
103   48    49    1
104   49    99    1
105   49    100   1
106   49    101   1
@<TRIPOS>SUBSTRUCTURE
1   ZINC000095681438 1     RESIDUE    1   A     ZIN   1
