@<TRIPOS>MOLECULE
ZINC000070225492
  32   32    0    0    0
SMALL
USER_CHARGES
NO_NAME
@<TRIPOS>ATOM
    1 C1       -0.0187     1.5258     0.0104 C.3    1 <0>      -0.1300
    2 C2        0.0021    -0.0041     0.0020 C.3    1 <0>      -0.0800
    3 C3        0.7421    -0.5109     1.2415 C.3    1 <0>      -0.1400
    4 C4       -1.4333    -0.5336     0.0129 C.3    1 <0>      -0.1400
    5 C5        0.7074    -0.4901    -1.2379 C.2    1 <0>       0.5300
    6 O6        1.1500     0.3085    -2.0362 O.2    1 <0>      -0.5200
    7 N7        0.8465    -1.8122    -1.4596 N.am   1 <0>      -0.7200
    8 C8        1.5322    -2.2846    -2.6649 C.3    1 <0>       0.1400
    9 H9        2.3424    -1.5989    -2.9129 H      1 <0>       0.1200
   10 C10       2.1074    -3.6798    -2.4088 C.3    1 <0>      -0.1300
   11 C11       2.5733    -4.2652    -3.7473 C.3    1 <0>      -0.1400
   12 C12       1.3460    -4.5252    -4.6217 C.3    1 <0>       0.1100
   13 N13       0.5032    -3.3377    -4.6841 N.am   1 <0>      -0.7200
   14 C14       0.5567    -2.3375    -3.8055 C.2    1 <0>       0.5000
   15 O15      -0.2231    -1.4177    -3.9347 O.2    1 <0>      -0.5300
   16 H16       1.0039     1.9031     0.0027 H      1 <0>       0.0600
   17 H17      -0.5459     1.8868    -0.8726 H      1 <0>       0.0600
   18 H18      -0.5289     1.8773     0.9072 H      1 <0>       0.0600
   19 H19       0.2319    -0.1594     2.1383 H      1 <0>       0.0700
   20 H20       0.7568    -1.6008     1.2356 H      1 <0>       0.0600
   21 H21       1.7647    -0.1336     1.2338 H      1 <0>       0.0600
   22 H22      -1.9605    -0.1726    -0.8702 H      1 <0>       0.0600
   23 H23      -1.4185    -1.6235     0.0069 H      1 <0>       0.0600
   24 H24      -1.9435    -0.1821     0.9097 H      1 <0>       0.0700
   25 H25       0.4926    -2.4509    -0.8211 H      1 <0>       0.4000
   26 H26       2.9535    -3.6081    -1.7253 H      1 <0>       0.0900
   27 H27       1.3386    -4.3200    -1.9760 H      1 <0>       0.0800
   28 H28       3.2343    -3.5564    -4.2462 H      1 <0>       0.0800
   29 H29       3.1028    -5.2018    -3.5724 H      1 <0>       0.0900
   30 H30       1.6703    -4.7901    -5.6281 H      1 <0>       0.0800
   31 H31       0.7731    -5.3520    -4.2018 H      1 <0>       0.0700
   32 H32      -0.1368    -3.2721    -5.4100 H      1 <0>       0.4000
@<TRIPOS>BOND
   1    1    2 1
   2    1   16 1
   3    1   17 1
   4    1   18 1
   5    2    3 1
   6    2    4 1
   7    2    5 1
   8    3   19 1
   9    3   20 1
  10    3   21 1
  11    4   22 1
  12    4   23 1
  13    4   24 1
  14    5    6 2
  15    5    7 am
  16    7    8 1
  17    7   25 1
  18    8    9 1
  19    8   14 1
  20    8   10 1
  21   10   11 1
  22   10   26 1
  23   10   27 1
  24   11   12 1
  25   11   28 1
  26   11   29 1
  27   12   13 1
  28   12   30 1
  29   12   31 1
  30   13   14 am
  31   13   32 1
  32   14   15 2
