@<TRIPOS>MOLECULE
ZINC000004095814
88    87    1     0     0
SMALL
USER_CHARGES
@<TRIPOS>ATOM
1      C1      0.1584    2.4457   -1.0339 C.3      1 ZINC000004095814   -0.1500
2      C2      0.2739    0.9413   -0.7801 C.3      1 ZINC000004095814   -0.1200
3      C3      0.7655    0.2460   -2.0512 C.3      1 ZINC000004095814   -0.1200
4      C4      0.8811   -1.2584   -1.7974 C.3      1 ZINC000004095814   -0.1100
5      C5      1.3727   -1.9537   -3.0685 C.3      1 ZINC000004095814   -0.1000
6      C6      1.4865   -3.4355   -2.8186 C.2      1 ZINC000004095814   -0.1600
7      C7      0.8987   -4.2830   -3.6262 C.2      1 ZINC000004095814   -0.1500
8      C8      0.2366   -3.7878   -4.8862 C.3      1 ZINC000004095814   -0.0800
9      C9      0.7570   -4.5669   -6.0666 C.2      1 ZINC000004095814   -0.1400
10     C10    -0.0953   -5.1722   -6.8937 C.2      1 ZINC000004095814   -0.1300
11     C11    -1.5371   -4.9652   -6.7398 C.2      1 ZINC000004095814   -0.1300
12     C12    -2.4031   -5.6436   -7.5205 C.2      1 ZINC000004095814   -0.1100
13     C13    -3.8449   -5.4366   -7.3666 C.2      1 ZINC000004095814   -0.1300
14     C14    -4.7006   -6.1069   -8.1381 C.2      1 ZINC000004095814   -0.1200
15     C15    -6.1840   -5.8940   -7.9797 C.3      1 ZINC000004095814   -0.0700
16     H16    -6.3640   -5.1620   -7.1924 H        1 ZINC000004095814    0.1000
17     S17    -6.8776   -5.2851   -9.5414 S.3      1 ZINC000004095814   -0.2000
18     C18    -6.0769   -3.6697   -9.7412 C.3      1 ZINC000004095814   -0.1000
19     C19    -6.6583   -2.9603  -10.9658 C.3      1 ZINC000004095814    0.1500
20     H20    -7.7305   -2.8200  -10.8294 H        1 ZINC000004095814    0.1200
21     N21    -6.4203   -3.7743  -12.1604 N.am     1 ZINC000004095814   -0.7000
22     C22    -7.2285   -3.6508  -13.2319 C.2      1 ZINC000004095814    0.5200
23     O23    -8.1526   -2.8658  -13.2072 O.2      1 ZINC000004095814   -0.5200
24     C24    -6.9837   -4.4882  -14.4608 C.3      1 ZINC000004095814   -0.1500
25     C25    -8.0349   -4.1562  -15.5218 C.3      1 ZINC000004095814   -0.1100
26     C26    -7.7864   -5.0063  -16.7693 C.3      1 ZINC000004095814   -0.0500
27     H27    -7.7661   -6.0604  -16.4926 H        1 ZINC000004095814    0.1400
28     N28    -6.4982   -4.6323  -17.3682 N.4      1 ZINC000004095814   -0.6100
29     H29    -5.7584   -4.7905  -16.7005 H        1 ZINC000004095814    0.4100
30     H30    -6.3344   -5.1930  -18.1909 H        1 ZINC000004095814    0.4300
31     H31    -6.5171   -3.6566  -17.6244 H        1 ZINC000004095814    0.4300
32     C32    -8.8914   -4.7700  -17.7665 C.2      1 ZINC000004095814    0.4900
33     O33    -8.6611   -4.1650  -18.7996 O.co2    1 ZINC000004095814   -0.6800
34     O34   -10.0157   -5.1839  -17.5400 O.co2    1 ZINC000004095814   -0.6300
35     C35    -5.9931   -1.6183  -11.1318 C.2      1 ZINC000004095814    0.5000
36     O36    -5.3806   -1.3666  -12.1479 O.2      1 ZINC000004095814   -0.5500
37     N37    -6.0788   -0.6978  -10.1511 N.am     1 ZINC000004095814   -0.6900
38     C38    -5.4322    0.6069  -10.3125 C.3      1 ZINC000004095814    0.0500
39     C39    -5.6769    1.4442   -9.0836 C.2      1 ZINC000004095814    0.4900
40     O40    -6.3309    0.9930   -8.1588 O.co2    1 ZINC000004095814   -0.6900
41     O41    -5.2210    2.5728   -9.0143 O.co2    1 ZINC000004095814   -0.6900
42     C42    -6.8525   -7.2187   -7.6069 C.3      1 ZINC000004095814    0.1400
43     H43    -6.7224   -7.9329   -8.4200 H        1 ZINC000004095814    0.1100
44     O44    -6.2531   -7.7366   -6.4176 O.3      1 ZINC000004095814   -0.5500
45     C45    -8.3455   -6.9866   -7.3661 C.3      1 ZINC000004095814   -0.1600
46     C46    -9.0378   -8.3292   -7.1236 C.3      1 ZINC000004095814   -0.0800
47     C47   -10.5308   -8.0971   -6.8829 C.3      1 ZINC000004095814   -0.1800
48     C48   -11.2127   -9.4196   -6.6440 C.2      1 ZINC000004095814    0.4900
49     O49   -10.5646  -10.4521   -6.6645 O.co2    1 ZINC000004095814   -0.7000
50     O50   -12.4125   -9.4570   -6.4303 O.co2    1 ZINC000004095814   -0.7100
51     H51     1.1346    2.8434   -1.3112 H        1 ZINC000004095814    0.0500
52     H52    -0.5499    2.6244   -1.8429 H        1 ZINC000004095814    0.0600
53     H53    -0.1919    2.9411   -0.1283 H        1 ZINC000004095814    0.0500
54     H54     0.9822    0.7627    0.0289 H        1 ZINC000004095814    0.0600
55     H55    -0.7023    0.5436   -0.5028 H        1 ZINC000004095814    0.0600
56     H56     0.0572    0.4247   -2.8602 H        1 ZINC000004095814    0.0600
57     H57     1.7418    0.6437   -2.3285 H        1 ZINC000004095814    0.0600
58     H58     1.5894   -1.4370   -0.9884 H        1 ZINC000004095814    0.0600
59     H59    -0.0951   -1.6561   -1.5201 H        1 ZINC000004095814    0.0600
60     H60     0.6644   -1.7751   -3.8776 H        1 ZINC000004095814    0.0800
61     H61     2.3489   -1.5560   -3.3459 H        1 ZINC000004095814    0.0700
62     H62     2.0527   -3.7987   -1.9736 H        1 ZINC000004095814    0.1100
63     H63     0.8886   -5.3366   -3.3891 H        1 ZINC000004095814    0.1100
64     H64    -0.8419   -3.9244   -4.8077 H        1 ZINC000004095814    0.0800
65     H65     0.4600   -2.7297   -5.0223 H        1 ZINC000004095814    0.0900
66     H66     1.8204   -4.6348   -6.2424 H        1 ZINC000004095814    0.1100
67     H67     0.2773   -5.8152   -7.6773 H        1 ZINC000004095814    0.1100
68     H68    -1.9069   -4.2693   -6.0012 H        1 ZINC000004095814    0.1200
69     H69    -2.0332   -6.3394   -8.2591 H        1 ZINC000004095814    0.1100
70     H70    -4.2147   -4.7408   -6.6281 H        1 ZINC000004095814    0.1100
71     H71    -4.3307   -6.8028   -8.8767 H        1 ZINC000004095814    0.1200
72     H72    -6.2539   -3.0640   -8.8524 H        1 ZINC000004095814    0.1100
73     H73    -5.0046   -3.8100   -9.8776 H        1 ZINC000004095814    0.0900
74     H74    -5.6812   -4.4022  -12.1802 H        1 ZINC000004095814    0.4000
75     H75    -5.9901   -4.2741  -14.8543 H        1 ZINC000004095814    0.0800
76     H76    -7.0516   -5.5444  -14.2001 H        1 ZINC000004095814    0.1100
77     H77    -9.0286   -4.3703  -15.1282 H        1 ZINC000004095814    0.1200
78     H78    -7.9671   -3.1000  -15.7824 H        1 ZINC000004095814    0.0900
79     H79    -6.5687   -0.8991   -9.3384 H        1 ZINC000004095814    0.4100
80     H80    -4.3599    0.4665  -10.4489 H        1 ZINC000004095814    0.0600
81     H81    -5.8464    1.1122  -11.1849 H        1 ZINC000004095814    0.0700
82     H82    -6.3310   -7.1521   -5.6512 H        1 ZINC000004095814    0.3700
83     H83    -8.4776   -6.3468   -6.4936 H        1 ZINC000004095814    0.0600
84     H84    -8.7838   -6.5044   -8.2399 H        1 ZINC000004095814    0.0800
85     H85    -8.9057   -8.9690   -7.9962 H        1 ZINC000004095814    0.0600
86     H86    -8.5995   -8.8114   -6.2499 H        1 ZINC000004095814    0.0600
87     H87   -10.6629   -7.4574   -6.0103 H        1 ZINC000004095814    0.0500
88     H88   -10.9691   -7.6149   -7.7566 H        1 ZINC000004095814    0.0600
@<TRIPOS>BOND
1     1     2     1
2     1     51    1
3     1     52    1
4     1     53    1
5     2     3     1
6     2     54    1
7     2     55    1
8     3     4     1
9     3     56    1
10    3     57    1
11    4     5     1
12    4     58    1
13    4     59    1
14    5     6     1
15    5     60    1
16    5     61    1
17    6     7     2
18    6     62    1
19    7     8     1
20    7     63    1
21    8     9     1
22    8     64    1
23    8     65    1
24    9     10    2
25    9     66    1
26    10    11    1
27    10    67    1
28    11    12    2
29    11    68    1
30    12    13    1
31    12    69    1
32    13    14    2
33    13    70    1
34    14    15    1
35    14    71    1
36    15    16    1
37    15    17    1
38    15    42    1
39    17    18    1
40    18    19    1
41    18    72    1
42    18    73    1
43    19    20    1
44    19    21    1
45    19    35    1
46    21    22    am
47    21    74    1
48    22    23    2
49    22    24    1
50    24    25    1
51    24    75    1
52    24    76    1
53    25    26    1
54    25    77    1
55    25    78    1
56    26    27    1
57    26    28    1
58    26    32    1
59    28    29    1
60    28    30    1
61    28    31    1
62    32    33    ar
63    32    34    ar
64    35    36    2
65    35    37    am
66    37    38    1
67    37    79    1
68    38    39    1
69    38    80    1
70    38    81    1
71    39    40    ar
72    39    41    ar
73    42    43    1
74    42    44    1
75    42    45    1
76    44    82    1
77    45    46    1
78    45    83    1
79    45    84    1
80    46    47    1
81    46    85    1
82    46    86    1
83    47    48    1
84    47    87    1
85    47    88    1
86    48    49    ar
87    48    50    ar
@<TRIPOS>SUBSTRUCTURE
1   ZINC000004095814 1     RESIDUE    1   A     ZIN   1
