@<TRIPOS>MOLECULE
ZINC000001542896
  44   45    0    0    0
SMALL
USER_CHARGES
NO_NAME
@<TRIPOS>ATOM
    1 C1       -0.0178     1.4648     0.0101 C.3    1 <0>      -0.0500
    2 N2        0.0021    -0.0041     0.0020 N.4    1 <0>      -0.5100
    3 H3        0.4744    -0.3295    -0.8281 H      1 <0>       0.4300
    4 H4        0.4901    -0.3383     0.8195 H      1 <0>       0.4300
    5 C5       -1.3761    -0.5125     0.0124 C.3    1 <0>      -0.0100
    6 C6       -1.3553    -2.0424     0.0040 C.3    1 <0>      -0.1500
    7 C7       -2.7907    -2.5720     0.0149 C.3    1 <0>      -0.1200
    8 C8       -2.7700    -4.1018     0.0065 C.3    1 <0>       0.0600
    9 O9       -4.1106    -4.5964     0.0166 O.3    1 <0>      -0.3100
   10 C10      -4.2704    -5.9460     0.0109 C.ar   1 <0>       0.1300
   11 C11      -3.1598    -6.7770     0.0016 C.ar   1 <0>      -0.2100
   12 C12      -3.3249    -8.1487    -0.0037 C.ar   1 <0>      -0.0800
   13 C13      -4.5956    -8.6932    -0.0002 C.ar   1 <0>      -0.1500
   14 C14      -5.7044    -7.8669     0.0085 C.ar   1 <0>      -0.0800
   15 C15      -5.5447    -6.4950     0.0201 C.ar   1 <0>      -0.1000
   16 C16      -6.7534    -5.5950     0.0302 C.3    1 <0>      -0.0300
   17 C17      -7.0850    -5.1835    -1.3811 C.ar   1 <0>      -0.0800
   18 C18      -6.5203    -4.0422    -1.9190 C.ar   1 <0>      -0.1100
   19 C19      -6.8245    -3.6646    -3.2135 C.ar   1 <0>      -0.1200
   20 C20      -7.6931    -4.4287    -3.9703 C.ar   1 <0>      -0.1200
   21 C21      -8.2571    -5.5705    -3.4327 C.ar   1 <0>      -0.1200
   22 C22      -7.9496    -5.9504    -2.1396 C.ar   1 <0>      -0.1100
   23 H23       1.0047     1.8421     0.0024 H      1 <0>       0.1300
   24 H24      -0.5450     1.8259    -0.8730 H      1 <0>       0.1200
   25 H25      -0.5280     1.8163     0.9069 H      1 <0>       0.1200
   26 H26      -1.8863    -0.1610     0.9092 H      1 <0>       0.1300
   27 H27      -1.9033    -0.1515    -0.8706 H      1 <0>       0.1300
   28 H28      -0.8451    -2.3939    -0.8928 H      1 <0>       0.0900
   29 H29      -0.8281    -2.4035     0.8871 H      1 <0>       0.0900
   30 H30      -3.3009    -2.2204     0.9117 H      1 <0>       0.0900
   31 H31      -3.3179    -2.2109    -0.8682 H      1 <0>       0.0900
   32 H32      -2.2598    -4.4533    -0.8903 H      1 <0>       0.0600
   33 H33      -2.2428    -4.4629     0.8895 H      1 <0>       0.0600
   34 H34      -2.1669    -6.3521    -0.0018 H      1 <0>       0.1200
   35 H35      -2.4605    -8.7962    -0.0109 H      1 <0>       0.1300
   36 H36      -4.7225    -9.7657    -0.0048 H      1 <0>       0.1300
   37 H37      -6.6961    -8.2946     0.0109 H      1 <0>       0.1300
   38 H38      -7.6002    -6.1289     0.4615 H      1 <0>       0.0800
   39 H39      -6.5410    -4.7080     0.6270 H      1 <0>       0.0800
   40 H40      -5.8418    -3.4452    -1.3277 H      1 <0>       0.1200
   41 H41      -6.3839    -2.7725    -3.6335 H      1 <0>       0.1200
   42 H42      -7.9313    -4.1334    -4.9814 H      1 <0>       0.1200
   43 H43      -8.9359    -6.1673    -4.0238 H      1 <0>       0.1200
   44 H44      -8.3902    -6.8425    -1.7196 H      1 <0>       0.1200
@<TRIPOS>BOND
   1    1    2 1
   2    1   23 1
   3    1   24 1
   4    1   25 1
   5    2    3 1
   6    2    4 1
   7    2    5 1
   8    5    6 1
   9    5   26 1
  10    5   27 1
  11    6    7 1
  12    6   28 1
  13    6   29 1
  14    7    8 1
  15    7   30 1
  16    7   31 1
  17    8    9 1
  18    8   32 1
  19    8   33 1
  20    9   10 1
  21   10   15 ar
  22   10   11 ar
  23   11   12 ar
  24   11   34 1
  25   12   13 ar
  26   12   35 1
  27   13   14 ar
  28   13   36 1
  29   14   15 ar
  30   14   37 1
  31   15   16 1
  32   16   17 1
  33   16   38 1
  34   16   39 1
  35   17   22 ar
  36   17   18 ar
  37   18   19 ar
  38   18   40 1
  39   19   20 ar
  40   19   41 1
  41   20   21 ar
  42   20   42 1
  43   21   22 ar
  44   21   43 1
  45   22   44 1
