@<TRIPOS>MOLECULE
ZINC000114456300
59    63    1     0     0
SMALL
USER_CHARGES
@<TRIPOS>ATOM
1      C1     -0.0249    1.4813    0.3276 C.3      1 ZINC000114456300    0.0200
2      O2     -0.0084    0.0930    0.6657 O.3      1 ZINC000114456300   -0.3000
3      C3     -1.2112   -0.5351    0.7542 C.ar     1 ZINC000114456300    0.1100
4      C4     -1.2597   -1.8957    1.0881 C.ar     1 ZINC000114456300    0.1600
5      O5     -0.1047   -2.5723    1.3197 O.3      1 ZINC000114456300   -0.2900
6      C6     -0.2199   -3.9564    1.6557 C.3      1 ZINC000114456300    0.0600
7      C7      1.1747   -4.5449    1.8789 C.3      1 ZINC000114456300   -0.0900
8      H8      1.8128   -4.3610    1.0145 H        1 ZINC000114456300    0.1000
9      C9      1.8142   -3.9681    3.1657 C.3      1 ZINC000114456300   -0.1100
10     C10     2.8543   -5.0271    3.5823 C.3      1 ZINC000114456300   -0.1100
11     H11     3.8596   -4.7557    3.2602 H        1 ZINC000114456300    0.1200
12     C12     2.7764   -5.2288    5.1103 C.3      1 ZINC000114456300    0.0000
13     N13     2.8691   -6.6989    5.3010 N.4      1 ZINC000114456300   -0.4000
14     H14     3.8275   -7.0050    5.2239 H        1 ZINC000114456300    0.4300
15     C15     2.3097   -7.0844    6.6034 C.3      1 ZINC000114456300   -0.0400
16     C16     2.0533   -7.2622    4.1950 C.3      1 ZINC000114456300   -0.0100
17     C17     2.3893   -6.3660    2.9575 C.3      1 ZINC000114456300   -0.1000
18     H18     3.1465   -6.8226    2.3202 H        1 ZINC000114456300    0.1200
19     C19     1.0884   -6.0603    2.1848 C.3      1 ZINC000114456300   -0.1100
20     C20    -2.4659   -2.5538    1.1843 C.ar     1 ZINC000114456300   -0.1800
21     C21    -3.6546   -1.8539    0.9450 C.ar     1 ZINC000114456300    0.2000
22     N22    -4.8552   -2.4487    1.0263 N.ar     1 ZINC000114456300   -0.5400
23     C23    -5.9521   -1.7669    0.7970 C.ar     1 ZINC000114456300    0.3500
24     N24    -5.9478   -0.4823    0.4784 N.ar     1 ZINC000114456300   -0.5800
25     C25    -4.8159    0.2016    0.3712 C.ar     1 ZINC000114456300    0.4700
26     N26    -4.8263    1.5411    0.0387 N.pl3    1 ZINC000114456300   -0.6300
27     C27    -6.0415    2.2291   -0.0567 C.ar     1 ZINC000114456300    0.1400
28     C28    -7.1819    1.7128    0.5430 C.ar     1 ZINC000114456300   -0.0900
29     C29    -8.3806    2.3936    0.4482 C.ar     1 ZINC000114456300   -0.0800
30     C30    -8.4466    3.5895   -0.2438 C.ar     1 ZINC000114456300   -0.0300
31     Cl31   -9.9548    4.4413   -0.3596 Cl       1 ZINC000114456300   -0.0300
32     C32    -7.3114    4.1090   -0.8440 C.ar     1 ZINC000114456300   -0.0500
33     Cl33   -7.3981    5.6101   -1.7116 Cl       1 ZINC000114456300   -0.0200
34     C34    -6.1074    3.4343   -0.7478 C.ar     1 ZINC000114456300    0.0800
35     F35    -4.9997    3.9404   -1.3326 F        1 ZINC000114456300   -0.1200
36     C36    -3.5977   -0.4789    0.6074 C.ar     1 ZINC000114456300   -0.1800
37     C37    -2.3592    0.1681    0.5221 C.ar     1 ZINC000114456300   -0.1500
38     H38     0.9972    1.8584    0.2905 H        1 ZINC000114456300    0.1100
39     H39    -0.4961    1.6125   -0.6465 H        1 ZINC000114456300    0.0600
40     H40    -0.5882    2.0321    1.0808 H        1 ZINC000114456300    0.0600
41     H41    -0.8086   -4.0613    2.5671 H        1 ZINC000114456300    0.0700
42     H42    -0.7126   -4.4881    0.8417 H        1 ZINC000114456300    0.0700
43     H43     2.3025   -3.0166    2.9552 H        1 ZINC000114456300    0.0900
44     H44     1.0610   -3.8469    3.9442 H        1 ZINC000114456300    0.0800
45     H45     3.6104   -4.7285    5.6025 H        1 ZINC000114456300    0.1300
46     H46     1.8275   -4.8549    5.4950 H        1 ZINC000114456300    0.1300
47     H47     1.2624   -6.7863    6.6517 H        1 ZINC000114456300    0.1200
48     H48     2.3860   -8.1648    6.7262 H        1 ZINC000114456300    0.1200
49     H49     2.8657   -6.5882    7.3989 H        1 ZINC000114456300    0.1200
50     H50     2.3423   -8.2944    3.9974 H        1 ZINC000114456300    0.1300
51     H51     0.9922   -7.2037    4.4377 H        1 ZINC000114456300    0.1300
52     H52     0.2182   -6.2549    2.8117 H        1 ZINC000114456300    0.0800
53     H53     1.0404   -6.6516    1.2704 H        1 ZINC000114456300    0.0900
54     H54    -2.4944   -3.6022    1.4420 H        1 ZINC000114456300    0.1500
55     H55    -6.9014   -2.2767    0.8711 H        1 ZINC000114456300    0.2000
56     H56    -3.9915    2.0057   -0.1288 H        1 ZINC000114456300    0.4300
57     H57    -7.1323    0.7790    1.0834 H        1 ZINC000114456300    0.1900
58     H58    -9.2676    1.9910    0.9148 H        1 ZINC000114456300    0.1600
59     H59    -2.3113    1.2172    0.2699 H        1 ZINC000114456300    0.1400
@<TRIPOS>BOND
1     1     2     1
2     1     38    1
3     1     39    1
4     1     40    1
5     2     3     1
6     3     37    ar
7     3     4     ar
8     4     5     1
9     4     20    ar
10    5     6     1
11    6     7     1
12    6     41    1
13    6     42    1
14    7     8     1
15    7     19    1
16    7     9     1
17    9     10    1
18    9     43    1
19    9     44    1
20    10    11    1
21    10    17    1
22    10    12    1
23    12    13    1
24    12    45    1
25    12    46    1
26    13    14    1
27    13    15    1
28    13    16    1
29    15    47    1
30    15    48    1
31    15    49    1
32    16    17    1
33    16    50    1
34    16    51    1
35    17    18    1
36    17    19    1
37    19    52    1
38    19    53    1
39    20    21    ar
40    20    54    1
41    21    36    ar
42    21    22    ar
43    22    23    ar
44    23    24    ar
45    23    55    1
46    24    25    ar
47    25    26    1
48    25    36    ar
49    26    27    1
50    26    56    1
51    27    34    ar
52    27    28    ar
53    28    29    ar
54    28    57    1
55    29    30    ar
56    29    58    1
57    30    31    1
58    30    32    ar
59    32    33    1
60    32    34    ar
61    34    35    1
62    36    37    ar
63    37    59    1
@<TRIPOS>SUBSTRUCTURE
1   ZINC000114456300 1     RESIDUE    1   A     ZIN   1
