@<TRIPOS>MOLECULE
ZINC000000003868
  22   22    0    0    0
SMALL
USER_CHARGES
NO_NAME
@<TRIPOS>ATOM
    1 C1       -0.0173     1.4248     0.0099 C.3    1 <0>       0.0300
    2 O2        0.0021    -0.0041     0.0020 O.3    1 <0>      -0.2800
    3 C3        0.6050    -0.6063    -1.0544 C.ar   1 <0>       0.3600
    4 N4        1.1433     0.1336    -2.0099 N.ar   1 <0>      -0.4800
    5 C5        1.7407    -0.4076    -3.0561 C.ar   1 <0>       0.1600
    6 C6        2.3368     0.4835    -4.1152 C.3    1 <0>       0.1800
    7 Cl7       2.2028     2.2052    -3.5970 Cl     1 <0>      -0.0500
    8 Cl8       4.0736     0.0598    -4.3493 Cl     1 <0>      -0.0600
    9 Cl9       1.4473     0.2517    -5.6662 Cl     1 <0>      -0.0600
   10 C10       1.8266    -1.7774    -3.1923 C.ar   1 <0>      -0.1100
   11 Cl11      2.6157    -2.4751    -4.5723 Cl     1 <0>       0.0000
   12 C12       1.2723    -2.5954    -2.2078 C.ar   1 <0>       0.2000
   13 O13       1.3386    -3.9480    -2.3086 O.3    1 <0>      -0.3100
   14 C14       2.4771    -4.5869    -1.7275 C.3    1 <0>       0.0300
   15 C15       0.6554    -1.9917    -1.1178 C.ar   1 <0>      -0.1100
   16 Cl16     -0.0521    -2.9571     0.1396 Cl     1 <0>       0.0000
   17 H17       1.0053     1.8021     0.0021 H      1 <0>       0.0700
   18 H18      -0.5445     1.7859    -0.8732 H      1 <0>       0.0700
   19 H19      -0.5275     1.7763     0.9067 H      1 <0>       0.1100
   20 H20       3.3847    -4.2131    -2.2013 H      1 <0>       0.0600
   21 H21       2.5093    -4.3708    -0.6596 H      1 <0>       0.0600
   22 H22       2.4057    -5.6640    -1.8783 H      1 <0>       0.1100
@<TRIPOS>BOND
   1    1    2 1
   2    1   17 1
   3    1   18 1
   4    1   19 1
   5    2    3 1
   6    3   15 ar
   7    3    4 ar
   8    4    5 ar
   9    5    6 1
  10    5   10 ar
  11    6    7 1
  12    6    8 1
  13    6    9 1
  14   10   11 1
  15   10   12 ar
  16   12   13 1
  17   12   15 ar
  18   13   14 1
  19   14   20 1
  20   14   21 1
  21   14   22 1
  22   15   16 1
