@<TRIPOS>MOLECULE
ZINC000028257302
106   110   1     0     0
SMALL
USER_CHARGES
@<TRIPOS>ATOM
1      C1     -2.1772    2.5850   -1.5360 C.3      1 ZINC000028257302   -0.1500
2      C2     -1.9410    1.0791   -1.4040 C.3      1 ZINC000028257302   -0.1200
3      C3     -3.2869    0.3589   -1.3001 C.3      1 ZINC000028257302   -0.1000
4      H4     -3.9098    0.6281   -2.1532 H        1 ZINC000028257302    0.0800
5      C5     -3.9886    0.7736   -0.0053 C.3      1 ZINC000028257302   -0.1500
6      C6     -3.0569   -1.1536   -1.2937 C.3      1 ZINC000028257302    0.1200
7      N7     -4.3488   -1.8442   -1.3147 N.am     1 ZINC000028257302   -0.7300
8      C8     -4.3929   -3.1912   -1.3133 C.2      1 ZINC000028257302    0.5100
9      O9     -3.3632   -3.8317   -1.2946 O.2      1 ZINC000028257302   -0.5200
10     C10    -5.7219   -3.9016   -1.3348 C.3      1 ZINC000028257302   -0.1800
11     C11    -5.4918   -5.4141   -1.3284 C.3      1 ZINC000028257302    0.1200
12     H12    -4.8689   -5.6833   -0.4754 H        1 ZINC000028257302    0.1100
13     O13    -4.8365   -5.8014   -2.5378 O.3      1 ZINC000028257302   -0.5400
14     C14    -6.8377   -6.1343   -1.2245 C.3      1 ZINC000028257302    0.1100
15     H15    -7.3765   -5.7729   -0.3486 H        1 ZINC000028257302    0.1100
16     C16    -7.6635   -5.8558   -2.4821 C.3      1 ZINC000028257302   -0.1400
17     C17    -9.0553   -6.4716   -2.3249 C.3      1 ZINC000028257302   -0.0900
18     C18    -9.7991   -5.7676   -1.1882 C.3      1 ZINC000028257302   -0.1400
19     C19    -9.8381   -6.3020   -3.6285 C.3      1 ZINC000028257302   -0.1500
20     N20    -6.6116   -7.5762   -1.0982 N.am     1 ZINC000028257302   -0.7100
21     C21    -7.5386   -8.3543   -0.5052 C.2      1 ZINC000028257302    0.5100
22     O22    -8.5600   -7.8608   -0.0761 O.2      1 ZINC000028257302   -0.5000
23     C23    -7.3060   -9.8376   -0.3752 C.3      1 ZINC000028257302    0.1300
24     H24    -7.1899  -10.2754   -1.3667 H        1 ZINC000028257302    0.1200
25     C25    -6.0372  -10.0850    0.4433 C.3      1 ZINC000028257302   -0.0800
26     C26    -5.7366  -11.5615    0.4698 C.2      1 ZINC000028257302    0.0500
27     C27    -6.2601  -12.4605    1.3250 C.2      1 ZINC000028257302    0.0300
28     N28    -5.7217  -13.6763    1.0002 N.pl3    1 ZINC000028257302   -0.5000
29     C29    -4.8873  -13.4779   -0.0429 C.cat    1 ZINC000028257302    0.3100
30     N30    -4.9051  -12.2116   -0.3579 N.pl3    1 ZINC000028257302   -0.4700
31     H31    -4.3935  -11.8038   -1.0741 H        1 ZINC000028257302    0.4600
32     N32    -8.4506  -10.4541    0.2999 N.am     1 ZINC000028257302   -0.7100
33     C33    -8.7301  -11.7571    0.0985 C.2      1 ZINC000028257302    0.5300
34     O34    -8.0788  -12.4011   -0.6965 O.2      1 ZINC000028257302   -0.5500
35     C35    -9.8518  -12.4138    0.8611 C.3      1 ZINC000028257302   -0.1000
36     C36   -10.0038  -13.8637    0.3969 C.3      1 ZINC000028257302   -0.0600
37     C37   -11.2017  -14.4834    1.0691 C.ar     1 ZINC000028257302   -0.0800
38     C38   -12.4836  -14.3212    0.5172 C.ar     1 ZINC000028257302   -0.0400
39     C39   -12.6822  -13.5855   -0.6637 C.ar     1 ZINC000028257302   -0.1200
40     C40   -13.9383  -13.4498   -1.1693 C.ar     1 ZINC000028257302   -0.1100
41     C41   -15.0346  -14.0298   -0.5332 C.ar     1 ZINC000028257302   -0.1100
42     C42   -14.8807  -14.7487    0.6120 C.ar     1 ZINC000028257302   -0.1000
43     C43   -13.5984  -14.9115    1.1639 C.ar     1 ZINC000028257302   -0.0500
44     C44   -13.3999  -15.6471    2.3443 C.ar     1 ZINC000028257302   -0.1000
45     C45   -12.1433  -15.7840    2.8494 C.ar     1 ZINC000028257302   -0.1200
46     C46   -11.0468  -15.2080    2.2110 C.ar     1 ZINC000028257302   -0.1100
47     C47    -9.5346  -12.3880    2.3577 C.3      1 ZINC000028257302   -0.0800
48     C48    -9.5586  -10.9645    2.8518 C.ar     1 ZINC000028257302   -0.0900
49     C49   -10.7843  -10.3121    3.0665 C.ar     1 ZINC000028257302   -0.0400
50     C50   -12.0081  -10.9614    2.8297 C.ar     1 ZINC000028257302   -0.1100
51     C51   -13.1758  -10.2979    3.0492 C.ar     1 ZINC000028257302   -0.1000
52     C52   -13.1782   -8.9810    3.5059 C.ar     1 ZINC000028257302   -0.1100
53     C53   -12.0128   -8.3203    3.7456 C.ar     1 ZINC000028257302   -0.1000
54     C54   -10.7867   -8.9730    3.5314 C.ar     1 ZINC000028257302   -0.0400
55     C55    -9.5633   -8.3240    3.7682 C.ar     1 ZINC000028257302   -0.0800
56     C56    -8.3952   -8.9880    3.5500 C.ar     1 ZINC000028257302   -0.1200
57     C57    -8.3929  -10.3060    3.0978 C.ar     1 ZINC000028257302   -0.1200
58     H58    -1.2183    3.0980   -1.6100 H        1 ZINC000028257302    0.0600
59     H59    -2.7655    2.7834   -2.4318 H        1 ZINC000028257302    0.0500
60     H60    -2.7160    2.9464   -0.6600 H        1 ZINC000028257302    0.0600
61     H61    -1.4022    0.7177   -2.2799 H        1 ZINC000028257302    0.0700
62     H62    -1.3527    0.8807   -0.5081 H        1 ZINC000028257302    0.0700
63     H63    -4.9475    0.2605    0.0687 H        1 ZINC000028257302    0.0500
64     H64    -3.3657    0.5044    0.8477 H        1 ZINC000028257302    0.0600
65     H65    -4.1525    1.8512   -0.0099 H        1 ZINC000028257302    0.0600
66     H66    -2.4791   -1.4370   -2.1735 H        1 ZINC000028257302    0.0700
67     H67    -2.5096   -1.4341   -0.3938 H        1 ZINC000028257302    0.0700
68     H68    -5.1723   -1.3319   -1.3296 H        1 ZINC000028257302    0.4000
69     H69    -6.2996   -3.6182   -0.4551 H        1 ZINC000028257302    0.1100
70     H70    -6.2692   -3.6211   -2.2348 H        1 ZINC000028257302    0.1000
71     H71    -5.3348   -5.5920   -3.3396 H        1 ZINC000028257302    0.3700
72     H72    -7.7565   -4.7792   -2.6246 H        1 ZINC000028257302    0.0800
73     H73    -7.1673   -6.2954   -3.3473 H        1 ZINC000028257302    0.0700
74     H74    -8.9593   -7.5325   -2.0942 H        1 ZINC000028257302    0.0700
75     H75    -9.8951   -4.7067   -1.4190 H        1 ZINC000028257302    0.0400
76     H76   -10.7906   -6.2063   -1.0762 H        1 ZINC000028257302    0.0500
77     H77    -9.2414   -5.8884   -0.2595 H        1 ZINC000028257302    0.0700
78     H78    -9.3083   -6.8035   -4.4384 H        1 ZINC000028257302    0.0500
79     H79   -10.8297   -6.7407   -3.5166 H        1 ZINC000028257302    0.0500
80     H80    -9.9342   -5.2411   -3.8593 H        1 ZINC000028257302    0.0500
81     H81    -5.7947   -7.9709   -1.4414 H        1 ZINC000028257302    0.4000
82     H82    -5.2019   -9.5523   -0.0113 H        1 ZINC000028257302    0.1100
83     H83    -6.1860   -9.7262    1.4617 H        1 ZINC000028257302    0.1200
84     H84    -6.9684  -12.2605    2.1154 H        1 ZINC000028257302    0.2100
85     H85    -5.9052  -14.5224    1.4376 H        1 ZINC000028257302    0.4700
86     H86    -4.3049  -14.2413   -0.5372 H        1 ZINC000028257302    0.2700
87     H87    -9.0074   -9.9245    0.8919 H        1 ZINC000028257302    0.4200
88     H88   -10.7808  -11.8742    0.6773 H        1 ZINC000028257302    0.1100
89     H89   -10.1414  -13.8865   -0.6841 H        1 ZINC000028257302    0.0900
90     H90    -9.1078  -14.4256    0.6610 H        1 ZINC000028257302    0.0700
91     H91   -11.8423  -13.1299   -1.1671 H        1 ZINC000028257302    0.1200
92     H92   -14.0881  -12.8840   -2.0769 H        1 ZINC000028257302    0.1200
93     H93   -16.0210  -13.9065   -0.9553 H        1 ZINC000028257302    0.1300
94     H94   -15.7395  -15.1918    1.0943 H        1 ZINC000028257302    0.1300
95     H95   -14.2401  -16.1013    2.8486 H        1 ZINC000028257302    0.1300
96     H96   -11.9935  -16.3496    3.7572 H        1 ZINC000028257302    0.1300
97     H97   -10.0603  -15.3320    2.6326 H        1 ZINC000028257302    0.1200
98     H98   -10.2799  -12.9725    2.8971 H        1 ZINC000028257302    0.1000
99     H99    -8.5460  -12.8148    2.5269 H        1 ZINC000028257302    0.0700
100    H100  -12.0217  -11.9814    2.4751 H        1 ZINC000028257302    0.1300
101    H101  -14.1148  -10.7992    2.8665 H        1 ZINC000028257302    0.1200
102    H102  -14.1190   -8.4772    3.6716 H        1 ZINC000028257302    0.1300
103    H103  -12.0301   -7.2998    4.0986 H        1 ZINC000028257302    0.1300
104    H104   -9.5497   -7.3034    4.1213 H        1 ZINC000028257302    0.1300
105    H105   -7.4562   -8.4867    3.7325 H        1 ZINC000028257302    0.1200
106    H106   -7.4521  -10.8101    2.9329 H        1 ZINC000028257302    0.1100
@<TRIPOS>BOND
1     1     2     1
2     1     58    1
3     1     59    1
4     1     60    1
5     2     3     1
6     2     61    1
7     2     62    1
8     3     4     1
9     3     5     1
10    3     6     1
11    5     63    1
12    5     64    1
13    5     65    1
14    6     7     1
15    6     66    1
16    6     67    1
17    7     8     am
18    7     68    1
19    8     9     2
20    8     10    1
21    10    11    1
22    10    69    1
23    10    70    1
24    11    12    1
25    11    13    1
26    11    14    1
27    13    71    1
28    14    15    1
29    14    16    1
30    14    20    1
31    16    17    1
32    16    72    1
33    16    73    1
34    17    18    1
35    17    19    1
36    17    74    1
37    18    75    1
38    18    76    1
39    18    77    1
40    19    78    1
41    19    79    1
42    19    80    1
43    20    21    am
44    20    81    1
45    21    22    2
46    21    23    1
47    23    24    1
48    23    25    1
49    23    32    1
50    25    26    1
51    25    82    1
52    25    83    1
53    26    30    1
54    26    27    2
55    27    28    1
56    27    84    1
57    28    29    ar
58    28    85    1
59    29    30    ar
60    29    86    1
61    30    31    1
62    32    33    am
63    32    87    1
64    33    34    2
65    33    35    1
66    35    36    1
67    35    47    1
68    35    88    1
69    36    37    1
70    36    89    1
71    36    90    1
72    37    46    ar
73    37    38    ar
74    38    43    ar
75    38    39    ar
76    39    40    ar
77    39    91    1
78    40    41    ar
79    40    92    1
80    41    42    ar
81    41    93    1
82    42    43    ar
83    42    94    1
84    43    44    ar
85    44    45    ar
86    44    95    1
87    45    46    ar
88    45    96    1
89    46    97    1
90    47    48    1
91    47    98    1
92    47    99    1
93    48    57    ar
94    48    49    ar
95    49    54    ar
96    49    50    ar
97    50    51    ar
98    50    100   1
99    51    52    ar
100   51    101   1
101   52    53    ar
102   52    102   1
103   53    54    ar
104   53    103   1
105   54    55    ar
106   55    56    ar
107   55    104   1
108   56    57    ar
109   56    105   1
110   57    106   1
@<TRIPOS>SUBSTRUCTURE
1   ZINC000028257302 1     RESIDUE    1   A     ZIN   1
