@<TRIPOS>MOLECULE
ZINC000056897596
  32   32    0    0    0
SMALL
USER_CHARGES
NO_NAME
@<TRIPOS>ATOM
    1 C1       -0.0187     1.5258     0.0104 C.3    1 <0>      -0.1600
    2 C2        0.0021    -0.0041     0.0020 C.3    1 <0>       0.0600
    3 O3        0.6817    -0.4723    -1.1926 O.3    1 <0>      -0.3300
    4 C4        0.7862    -1.8009    -1.3531 C.2    1 <0>       0.4600
    5 O5        0.3251    -2.5478    -0.5228 O.2    1 <0>      -0.4900
    6 C6        1.4787    -2.3609    -2.5688 C.3    1 <0>       0.0400
    7 H7        2.3589    -1.7591    -2.7950 H      1 <0>       0.1800
    8 N8        1.8879    -3.7467    -2.3043 N.4    1 <0>      -0.6200
    9 H9        1.0731    -4.3039    -2.0949 H      1 <0>       0.4400
   10 H10       2.3515    -4.1217    -3.1183 H      1 <0>       0.4400
   11 H11       2.5201    -3.7666    -1.5182 H      1 <0>       0.4400
   12 C12       0.5201    -2.3308    -3.7609 C.3    1 <0>      -0.0900
   13 C13       1.2489    -2.7752    -5.0028 C.ar   1 <0>      -0.1300
   14 C14       1.8996    -1.8446    -5.7906 C.ar   1 <0>      -0.0900
   15 C15       2.5693    -2.2473    -6.9315 C.ar   1 <0>      -0.1200
   16 C16       2.5895    -3.5861    -7.2866 C.ar   1 <0>       0.1100
   17 O17       3.2480    -3.9838    -8.4080 O.3    1 <0>      -0.4800
   18 C18       1.9345    -4.5234    -6.4929 C.ar   1 <0>       0.0900
   19 O19       1.9518    -5.8389    -6.8372 O.3    1 <0>      -0.4800
   20 C20       1.2698    -4.1140    -5.3486 C.ar   1 <0>      -0.1500
   21 H21       1.0039     1.9031     0.0027 H      1 <0>       0.0700
   22 H22      -0.5459     1.8868    -0.8726 H      1 <0>       0.0700
   23 H23      -0.5289     1.8773     0.9072 H      1 <0>       0.0900
   24 H24       0.5293    -0.3651     0.8851 H      1 <0>       0.0800
   25 H25      -1.0205    -0.3814     0.0098 H      1 <0>       0.0800
   26 H26      -0.3171    -3.0024    -3.5709 H      1 <0>       0.1100
   27 H27       0.1473    -1.3163    -3.9018 H      1 <0>       0.1400
   28 H28       1.8847    -0.8005    -5.5149 H      1 <0>       0.1400
   29 H29       3.0764    -1.5179    -7.5458 H      1 <0>       0.1500
   30 H30       4.1755    -4.2134    -8.2589 H      1 <0>       0.4000
   31 H31       2.6938    -6.3336    -6.4633 H      1 <0>       0.3900
   32 H32       0.7609    -4.8392    -4.7311 H      1 <0>       0.1400
@<TRIPOS>BOND
   1    1    2 1
   2    1   21 1
   3    1   22 1
   4    1   23 1
   5    2    3 1
   6    2   24 1
   7    2   25 1
   8    3    4 1
   9    4    5 2
  10    4    6 1
  11    6    7 1
  12    6    8 1
  13    6   12 1
  14    8    9 1
  15    8   10 1
  16    8   11 1
  17   12   13 1
  18   12   26 1
  19   12   27 1
  20   13   20 ar
  21   13   14 ar
  22   14   15 ar
  23   14   28 1
  24   15   16 ar
  25   15   29 1
  26   16   17 1
  27   16   18 ar
  28   17   30 1
  29   18   19 1
  30   18   20 ar
  31   19   31 1
  32   20   32 1
