@<TRIPOS>MOLECULE
ZINC000000537997
56    59    1     0     0
SMALL
USER_CHARGES
@<TRIPOS>ATOM
1      C1     -0.0184    1.5028    0.0103 C.3      1 ZINC000000537997   -0.1100
2      C2      0.0021   -0.0041    0.0020 C.2      1 ZINC000000537997   -0.1300
3      C3     -1.1604   -0.6943    0.0038 C.2      1 ZINC000000537997    0.0900
4      N4     -1.1615   -2.0561   -0.0036 N.am     1 ZINC000000537997   -0.4200
5      C5     -2.3352   -2.7235   -0.0013 C.2      1 ZINC000000537997    0.5100
6      O6     -3.3940   -2.1157    0.0069 O.2      1 ZINC000000537997   -0.5300
7      C7     -2.3190   -4.1230   -0.0089 C.2      1 ZINC000000537997   -0.3000
8      C8     -3.6081   -4.9037   -0.0071 C.3      1 ZINC000000537997   -0.0500
9      C9     -4.1027   -5.0681    1.4314 C.3      1 ZINC000000537997    0.0600
10     N10    -5.3592   -5.8291    1.4331 N.3      1 ZINC000000537997   -0.5400
11     C11    -6.2782   -5.3300    0.4022 C.3      1 ZINC000000537997    0.0500
12     C12    -7.5111   -6.2341    0.3350 C.3      1 ZINC000000537997   -0.1000
13     C13    -8.2041   -6.2461    1.7004 C.3      1 ZINC000000537997   -0.1300
14     C14    -9.3848   -7.1816    1.6576 C.2      1 ZINC000000537997    0.4000
15     O15    -9.3673   -8.1470    0.9238 O.2      1 ZINC000000537997   -0.4400
16     C16   -10.5579   -6.9239    2.5054 C.ar     1 ZINC000000537997   -0.1800
17     C17   -10.5838   -5.8076    3.3489 C.ar     1 ZINC000000537997   -0.0400
18     C18   -11.6862   -5.5717    4.1404 C.ar     1 ZINC000000537997   -0.1700
19     C19   -12.7690   -6.4379    4.1028 C.ar     1 ZINC000000537997    0.1300
20     F20   -13.8472   -6.2008    4.8816 F        1 ZINC000000537997   -0.1300
21     C21   -12.7498   -7.5463    3.2689 C.ar     1 ZINC000000537997   -0.1700
22     C22   -11.6560   -7.7906    2.4681 C.ar     1 ZINC000000537997   -0.0300
23     C23    -7.2112   -6.7236    2.7637 C.3      1 ZINC000000537997   -0.1000
24     C24    -5.9870   -5.8053    2.7605 C.3      1 ZINC000000537997    0.0600
25     C25    -1.1025   -4.7771   -0.0186 C.2      1 ZINC000000537997    0.2200
26     C26    -1.0576   -6.2834   -0.0270 C.3      1 ZINC000000537997   -0.1100
27     N27     0.0240   -4.0818   -0.0210 N.2      1 ZINC000000537997   -0.5400
28     C28     0.0163   -2.7501   -0.0138 C.2      1 ZINC000000537997    0.3900
29     C29     1.2364   -2.0495   -0.0168 C.2      1 ZINC000000537997   -0.1300
30     C30     1.2265   -0.6867   -0.0133 C.2      1 ZINC000000537997   -0.0300
31     H31     1.0042    1.8801    0.0026 H        1 ZINC000000537997    0.0800
32     H32    -0.5455    1.8639   -0.8728 H        1 ZINC000000537997    0.0800
33     H33    -0.5286    1.8543    0.9071 H        1 ZINC000000537997    0.0800
34     H34    -2.0988   -0.1597    0.0115 H        1 ZINC000000537997    0.1800
35     H35    -4.3577   -4.3687   -0.5902 H        1 ZINC000000537997    0.0800
36     H36    -3.4384   -5.8862   -0.4475 H        1 ZINC000000537997    0.0900
37     H37    -3.3531   -5.6031    2.0144 H        1 ZINC000000537997    0.0700
38     H38    -4.2723   -4.0856    1.8718 H        1 ZINC000000537997    0.0400
39     H39    -6.5857   -4.3143    0.6507 H        1 ZINC000000537997    0.0400
40     H40    -5.7744   -5.3305   -0.5644 H        1 ZINC000000537997    0.0900
41     H41    -8.2001   -5.8544   -0.4194 H        1 ZINC000000537997    0.0700
42     H42    -7.2057   -7.2471    0.0730 H        1 ZINC000000537997    0.0800
43     H43    -8.5451   -5.2401    1.9447 H        1 ZINC000000537997    0.0900
44     H44    -9.7411   -5.1328    3.3796 H        1 ZINC000000537997    0.1400
45     H45   -11.7075   -4.7105    4.7918 H        1 ZINC000000537997    0.1400
46     H46   -13.5961   -8.2168    3.2444 H        1 ZINC000000537997    0.1400
47     H47   -11.6423   -8.6539    1.8193 H        1 ZINC000000537997    0.1500
48     H48    -7.6860   -6.6937    3.7445 H        1 ZINC000000537997    0.0700
49     H49    -6.9011   -7.7443    2.5399 H        1 ZINC000000537997    0.0800
50     H50    -5.2717   -6.1511    3.5067 H        1 ZINC000000537997    0.0800
51     H51    -6.2959   -4.7874    2.9980 H        1 ZINC000000537997    0.0400
52     H52    -1.0520   -6.6410   -1.0566 H        1 ZINC000000537997    0.0900
53     H53    -0.1546   -6.6228    0.4805 H        1 ZINC000000537997    0.0800
54     H54    -1.9337   -6.6759    0.4892 H        1 ZINC000000537997    0.0900
55     H55     2.1730   -2.5871   -0.0245 H        1 ZINC000000537997    0.1700
56     H56     2.1557   -0.1364   -0.0155 H        1 ZINC000000537997    0.1500
@<TRIPOS>BOND
1     1     2     1
2     1     31    1
3     1     32    1
4     1     33    1
5     2     30    1
6     2     3     2
7     3     4     1
8     3     34    1
9     4     28    1
10    4     5     am
11    5     6     2
12    5     7     1
13    7     8     1
14    7     25    2
15    8     9     1
16    8     35    1
17    8     36    1
18    9     10    1
19    9     37    1
20    9     38    1
21    10    24    1
22    10    11    1
23    11    12    1
24    11    39    1
25    11    40    1
26    12    13    1
27    12    41    1
28    12    42    1
29    13    14    1
30    13    23    1
31    13    43    1
32    14    15    2
33    14    16    1
34    16    22    ar
35    16    17    ar
36    17    18    ar
37    17    44    1
38    18    19    ar
39    18    45    1
40    19    20    1
41    19    21    ar
42    21    22    ar
43    21    46    1
44    22    47    1
45    23    24    1
46    23    48    1
47    23    49    1
48    24    50    1
49    24    51    1
50    25    26    1
51    25    27    1
52    26    52    1
53    26    53    1
54    26    54    1
55    27    28    2
56    28    29    1
57    29    30    2
58    29    55    1
59    30    56    1
@<TRIPOS>SUBSTRUCTURE
1   ZINC000000537997 1     RESIDUE    1   A     ZIN   1
