@<TRIPOS>MOLECULE
ZINC000003995327
  50   54    0    0    0
SMALL
USER_CHARGES
NO_NAME
@<TRIPOS>ATOM
    1 C1       -0.0369     1.4431    -0.4293 C.3    1 <0>       0.0200
    2 N2       -0.0104    -0.0188    -0.2875 N.3    1 <0>      -0.5400
    3 C3        0.6207    -0.6499    -1.4553 C.3    1 <0>       0.0300
    4 C4        0.4736    -2.1670    -1.3400 C.3    1 <0>      -0.1000
    5 C5        1.1512    -2.6612    -0.0581 C.3    1 <0>      -0.0100
    6 C6        2.6366    -2.4188    -0.1345 C.ar   1 <0>      -0.0400
    7 C7        3.5142    -3.4855    -0.0796 C.ar   1 <0>      -0.1300
    8 C8        4.8778    -3.2664    -0.1495 C.ar   1 <0>      -0.1000
    9 C9        5.3663    -1.9805    -0.2743 C.ar   1 <0>      -0.1500
   10 C10       4.4876    -0.9081    -0.3295 C.ar   1 <0>       0.1000
   11 O11       4.9658     0.3580    -0.4527 O.3    1 <0>      -0.5000
   12 C12       3.1200    -1.1310    -0.2649 C.ar   1 <0>      -0.1700
   13 C13       0.8589    -4.1559     0.0931 C.3    1 <0>      -0.0600
   14 C14       1.2978    -4.6581     1.4441 C.ar   1 <0>       0.1700
   15 C15       1.5279    -3.7969     2.5087 C.ar   1 <0>      -0.1200
   16 C16       1.9153    -4.3020     3.7244 C.ar   1 <0>      -0.0600
   17 C17       2.0789    -5.6904     3.8577 C.ar   1 <0>      -0.1000
   18 C18       2.4754    -6.2726     5.0723 C.ar   1 <0>      -0.1000
   19 C19       2.6240    -7.6234     5.1538 C.ar   1 <0>      -0.1200
   20 C20       2.3869    -8.4366     4.0471 C.ar   1 <0>      -0.1000
   21 C21       2.0000    -7.9061     2.8554 C.ar   1 <0>      -0.0900
   22 C22       1.8358    -6.5151     2.7311 C.ar   1 <0>       0.1300
   23 N23       1.4560    -5.9619     1.5797 N.ar   1 <0>      -0.4800
   24 C24       1.3825    -2.3049     2.3896 C.3    1 <0>      -0.0800
   25 C25       0.5623    -1.9279     1.1532 C.3    1 <0>      -0.0700
   26 H26      -0.4812    -2.2076     1.2986 H      1 <0>       0.0900
   27 C27       0.6748    -0.4147     0.9470 C.3    1 <0>       0.0400
   28 H28       0.9840     1.8239    -0.4587 H      1 <0>       0.0300
   29 H29      -0.5507     1.7093    -1.3530 H      1 <0>       0.0700
   30 H30      -0.5637     1.8809     0.4186 H      1 <0>       0.0700
   31 H31       0.1314    -0.3040    -2.3658 H      1 <0>       0.0800
   32 H32       1.6781    -0.3870    -1.4850 H      1 <0>       0.0600
   33 H33      -0.5846    -2.4271    -1.3135 H      1 <0>       0.0800
   34 H34       0.9403    -2.6425    -2.2026 H      1 <0>       0.0700
   35 H35       3.1342    -4.4917     0.0183 H      1 <0>       0.1300
   36 H36       5.5614    -4.1014    -0.1061 H      1 <0>       0.1200
   37 H37       6.4314    -1.8099    -0.3284 H      1 <0>       0.1300
   38 H38       5.0705     0.6515    -1.3681 H      1 <0>       0.3900
   39 H39       2.4340    -0.2980    -0.3078 H      1 <0>       0.1500
   40 H40      -0.2119    -4.3245    -0.0208 H      1 <0>       0.0900
   41 H41       1.3915    -4.7051    -0.6833 H      1 <0>       0.0900
   42 H42       2.0914    -3.6442     4.5627 H      1 <0>       0.1400
   43 H43       2.6617    -5.6524     5.9367 H      1 <0>       0.1300
   44 H44       2.9294    -8.0706     6.0882 H      1 <0>       0.1300
   45 H45       2.5118    -9.5056     4.1371 H      1 <0>       0.1300
   46 H46       1.8201    -8.5510     2.0079 H      1 <0>       0.1300
   47 H47       0.8838    -1.9220     3.2799 H      1 <0>       0.0800
   48 H48       2.3720    -1.8541     2.3133 H      1 <0>       0.0800
   49 H49       1.7266    -0.1364     0.8814 H      1 <0>       0.0600
   50 H50       0.2197     0.0998     1.7934 H      1 <0>       0.0800
@<TRIPOS>BOND
   1    1    2 1
   2    1   28 1
   3    1   29 1
   4    1   30 1
   5    2   27 1
   6    2    3 1
   7    3    4 1
   8    3   31 1
   9    3   32 1
  10    4    5 1
  11    4   33 1
  12    4   34 1
  13    5   25 1
  14    5    6 1
  15    5   13 1
  16    6   12 ar
  17    6    7 ar
  18    7    8 ar
  19    7   35 1
  20    8    9 ar
  21    8   36 1
  22    9   10 ar
  23    9   37 1
  24   10   11 1
  25   10   12 ar
  26   11   38 1
  27   12   39 1
  28   13   14 1
  29   13   40 1
  30   13   41 1
  31   14   23 ar
  32   14   15 ar
  33   15   16 ar
  34   15   24 1
  35   16   17 ar
  36   16   42 1
  37   17   22 ar
  38   17   18 ar
  39   18   19 ar
  40   18   43 1
  41   19   20 ar
  42   19   44 1
  43   20   21 ar
  44   20   45 1
  45   21   22 ar
  46   21   46 1
  47   22   23 ar
  48   24   25 1
  49   24   47 1
  50   24   48 1
  51   25   26 1
  52   25   27 1
  53   27   49 1
  54   27   50 1
