@<TRIPOS>MOLECULE
ZINC000014175498
83    85    1     0     0
SMALL
USER_CHARGES
@<TRIPOS>ATOM
1      C1     -0.0184    1.5028    0.0103 C.3      1 ZINC000014175498   -0.1700
2      C2      0.0021   -0.0041    0.0020 C.2      1 ZINC000014175498    0.5100
3      O3      1.0605   -0.5961   -0.0113 O.2      1 ZINC000014175498   -0.5000
4      N4     -1.1558   -0.6938    0.0094 N.am     1 ZINC000014175498   -0.7200
5      C5     -1.1360   -2.1586    0.0013 C.3      1 ZINC000014175498    0.1500
6      H6     -2.1585   -2.5359    0.0090 H        1 ZINC000014175498    0.1100
7      C7     -0.3960   -2.6654    1.2408 C.3      1 ZINC000014175498   -0.0900
8      C8     -1.1678   -2.2840    2.4777 C.ar     1 ZINC000014175498   -0.0800
9      C9     -0.9193   -1.0750    3.1009 C.ar     1 ZINC000014175498   -0.0900
10     C10    -1.6255   -0.7230    4.2348 C.ar     1 ZINC000014175498   -0.1400
11     C11    -2.5851   -1.5836    4.7479 C.ar     1 ZINC000014175498    0.1000
12     O12    -3.2815   -1.2394    5.8630 O.3      1 ZINC000014175498   -0.5000
13     C13    -2.8330   -2.7958    4.1205 C.ar     1 ZINC000014175498   -0.1400
14     C14    -2.1274   -3.1410    2.9841 C.ar     1 ZINC000014175498   -0.1000
15     C15    -0.4306   -2.6446   -1.2386 C.2      1 ZINC000014175498    0.5300
16     O16     0.3152   -1.9027   -1.8422 O.2      1 ZINC000014175498   -0.4900
17     N17    -0.6285   -3.9037   -1.6767 N.am     1 ZINC000014175498   -0.6100
18     C18    -1.5086   -4.9044   -1.0463 C.3      1 ZINC000014175498    0.1000
19     C19    -1.8750   -5.8854   -2.1878 C.3      1 ZINC000014175498   -0.1300
20     C20    -0.5454   -5.9461   -2.9852 C.3      1 ZINC000014175498   -0.1200
21     C21    -0.0073   -4.5047   -2.8660 C.3      1 ZINC000014175498    0.1300
22     H22    -0.2725   -3.9351   -3.7567 H        1 ZINC000014175498    0.1000
23     C23     1.4904   -4.5289   -2.7005 C.2      1 ZINC000014175498    0.5300
24     O24     1.9969   -4.0749   -1.6964 O.2      1 ZINC000014175498   -0.4900
25     N25     2.2669   -5.0549   -3.6684 N.am     1 ZINC000014175498   -0.6000
26     C26     1.7861   -5.6323   -4.9368 C.3      1 ZINC000014175498    0.0700
27     C27     2.9862   -5.5095   -5.9085 C.3      1 ZINC000014175498    0.0900
28     H28     2.9275   -6.2581   -6.6986 H        1 ZINC000014175498    0.0900
29     O29     3.0670   -4.1932   -6.4589 O.3      1 ZINC000014175498   -0.5500
30     C30     4.1832   -5.7920   -4.9626 C.3      1 ZINC000014175498   -0.1200
31     C31     3.7342   -5.1422   -3.6369 C.3      1 ZINC000014175498    0.1300
32     H32     4.1679   -4.1463   -3.5466 H        1 ZINC000014175498    0.1100
33     C33     4.1682   -5.9972   -2.4742 C.2      1 ZINC000014175498    0.5100
34     O34     3.3383   -6.4765   -1.7309 O.2      1 ZINC000014175498   -0.5200
35     N35     5.4785   -6.2293   -2.2605 N.am     1 ZINC000014175498   -0.7200
36     C36     5.9004   -7.0604   -1.1303 C.3      1 ZINC000014175498    0.1000
37     C37     7.4038   -7.1625   -1.1154 C.2      1 ZINC000014175498    0.5200
38     O38     8.0585   -6.5967   -1.9652 O.2      1 ZINC000014175498   -0.5300
39     N39     8.0209   -7.8826   -0.1577 N.am     1 ZINC000014175498   -0.7100
40     C40     9.4825   -7.9818   -0.1433 C.3      1 ZINC000014175498    0.1300
41     H41     9.9140   -7.0406   -0.4839 H        1 ZINC000014175498    0.1200
42     C42     9.9261   -9.1125   -1.0736 C.3      1 ZINC000014175498   -0.1600
43     C43     9.9525   -8.2715    1.2590 C.2      1 ZINC000014175498    0.5200
44     O44     9.1460   -8.3840    2.1578 O.2      1 ZINC000014175498   -0.5300
45     N45    11.2691   -8.4056    1.5142 N.am     1 ZINC000014175498   -0.7100
46     C46    11.7259   -8.6872    2.8774 C.3      1 ZINC000014175498    0.1000
47     C47    13.2294   -8.7893    2.8922 C.2      1 ZINC000014175498    0.5100
48     N48    13.8761   -9.0449    4.0467 N.am     1 ZINC000014175498   -0.8500
49     O49    13.8574   -8.6414    1.8653 O.2      1 ZINC000014175498   -0.5400
50     H50     1.0042    1.8801    0.0026 H        1 ZINC000014175498    0.0900
51     H51    -0.5455    1.8639   -0.8728 H        1 ZINC000014175498    0.0900
52     H52    -0.5286    1.8543    0.9071 H        1 ZINC000014175498    0.0800
53     H53    -2.0023   -0.2203    0.0200 H        1 ZINC000014175498    0.4000
54     H54    -0.3034   -3.7503    1.1905 H        1 ZINC000014175498    0.0800
55     H55     0.5970   -2.2175    1.2797 H        1 ZINC000014175498    0.1000
56     H56    -0.1721   -0.4055    2.7010 H        1 ZINC000014175498    0.1200
57     H57    -1.4305    0.2211    4.7216 H        1 ZINC000014175498    0.1300
58     H58    -4.0981   -0.7539    5.6825 H        1 ZINC000014175498    0.3900
59     H59    -3.5793   -3.4676    4.5182 H        1 ZINC000014175498    0.1300
60     H60    -2.3202   -4.0845    2.4951 H        1 ZINC000014175498    0.1300
61     H61    -0.9785   -5.4286   -0.2511 H        1 ZINC000014175498    0.0700
62     H62    -2.4063   -4.4266   -0.6539 H        1 ZINC000014175498    0.0800
63     H63    -2.1376   -6.8661   -1.7909 H        1 ZINC000014175498    0.0900
64     H64    -2.6814   -5.4858   -2.8026 H        1 ZINC000014175498    0.0800
65     H65     0.1442   -6.6579   -2.5315 H        1 ZINC000014175498    0.0900
66     H66    -0.7327   -6.2003   -4.0285 H        1 ZINC000014175498    0.0900
67     H67     1.5155   -6.6791   -4.7986 H        1 ZINC000014175498    0.0800
68     H68     0.9341   -5.0658   -5.3126 H        1 ZINC000014175498    0.0800
69     H69     2.2931   -3.9360   -6.9786 H        1 ZINC000014175498    0.3800
70     H70     4.3325   -6.8647   -4.8393 H        1 ZINC000014175498    0.1000
71     H71     5.0900   -5.3157   -5.3352 H        1 ZINC000014175498    0.1000
72     H72     6.1422   -5.8460   -2.8550 H        1 ZINC000014175498    0.4100
73     H73     5.5576   -6.6088   -0.1993 H        1 ZINC000014175498    0.1000
74     H74     5.4695   -8.0566   -1.2311 H        1 ZINC000014175498    0.1000
75     H75     7.4974   -8.3351    0.5220 H        1 ZINC000014175498    0.4100
76     H76     9.4947  -10.0537   -0.7330 H        1 ZINC000014175498    0.0700
77     H77     9.5862   -8.9030   -2.0879 H        1 ZINC000014175498    0.0800
78     H78    11.0136   -9.1864   -1.0629 H        1 ZINC000014175498    0.0800
79     H79    11.9141   -8.3156    0.7954 H        1 ZINC000014175498    0.4200
80     H80    11.4099   -7.8816    3.5402 H        1 ZINC000014175498    0.1000
81     H81    11.2945   -9.6284    3.2180 H        1 ZINC000014175498    0.1000
82     H82    13.3738   -9.1632    4.8681 H        1 ZINC000014175498    0.4100
83     H83    14.8438   -9.1106    4.0563 H        1 ZINC000014175498    0.4100
@<TRIPOS>BOND
1     1     2     1
2     1     50    1
3     1     51    1
4     1     52    1
5     2     3     2
6     2     4     am
7     4     5     1
8     4     53    1
9     5     6     1
10    5     7     1
11    5     15    1
12    7     8     1
13    7     54    1
14    7     55    1
15    8     14    ar
16    8     9     ar
17    9     10    ar
18    9     56    1
19    10    11    ar
20    10    57    1
21    11    12    1
22    11    13    ar
23    12    58    1
24    13    14    ar
25    13    59    1
26    14    60    1
27    15    16    2
28    15    17    am
29    17    21    1
30    17    18    1
31    18    19    1
32    18    61    1
33    18    62    1
34    19    20    1
35    19    63    1
36    19    64    1
37    20    21    1
38    20    65    1
39    20    66    1
40    21    22    1
41    21    23    1
42    23    24    2
43    23    25    am
44    25    31    1
45    25    26    1
46    26    27    1
47    26    67    1
48    26    68    1
49    27    28    1
50    27    29    1
51    27    30    1
52    29    69    1
53    30    31    1
54    30    70    1
55    30    71    1
56    31    32    1
57    31    33    1
58    33    34    2
59    33    35    am
60    35    36    1
61    35    72    1
62    36    37    1
63    36    73    1
64    36    74    1
65    37    38    2
66    37    39    am
67    39    40    1
68    39    75    1
69    40    41    1
70    40    42    1
71    40    43    1
72    42    76    1
73    42    77    1
74    42    78    1
75    43    44    2
76    43    45    am
77    45    46    1
78    45    79    1
79    46    47    1
80    46    80    1
81    46    81    1
82    47    48    am
83    47    49    2
84    48    82    1
85    48    83    1
@<TRIPOS>SUBSTRUCTURE
1   ZINC000014175498 1     RESIDUE    1   A     ZIN   1
