@<TRIPOS>MOLECULE
ZINC000008602616
58    58    1     0     0
SMALL
USER_CHARGES
@<TRIPOS>ATOM
1      C1      2.7529   -2.8279    1.9849 C.3      1 ZINC000008602616   -0.1500
2      C2      1.7069   -2.7002    0.8756 C.3      1 ZINC000008602616   -0.1300
3      C3      0.3950   -3.3392    1.3357 C.3      1 ZINC000008602616   -0.1200
4      C4     -0.6509   -3.2114    0.2264 C.3      1 ZINC000008602616   -0.1200
5      C5     -1.9628   -3.8504    0.6864 C.3      1 ZINC000008602616   -0.1400
6      C6     -3.0088   -3.7227   -0.4229 C.3      1 ZINC000008602616    0.1200
7      H7     -2.6157   -4.1524   -1.3442 H        1 ZINC000008602616    0.1100
8      O8     -3.3139   -2.3426   -0.6333 O.3      1 ZINC000008602616   -0.5500
9      C9     -4.2609   -4.4582   -0.0198 C.2      1 ZINC000008602616   -0.1800
10     C10    -4.6256   -5.5355   -0.6696 C.2      1 ZINC000008602616   -0.1300
11     C11    -3.7013   -6.1496   -1.6893 C.3      1 ZINC000008602616   -0.0600
12     H12    -2.7207   -5.6753   -1.6485 H        1 ZINC000008602616    0.1000
13     C13    -3.5753   -7.6758   -1.4572 C.3      1 ZINC000008602616    0.1100
14     H14    -4.5340   -8.1021   -1.1620 H        1 ZINC000008602616    0.0700
15     O15    -2.5745   -7.9580   -0.4769 O.3      1 ZINC000008602616   -0.5600
16     C16    -3.1474   -8.1993   -2.8507 C.3      1 ZINC000008602616   -0.1900
17     C17    -3.9512   -7.3339   -3.8431 C.3      1 ZINC000008602616    0.1100
18     H18    -4.8626   -7.8536   -4.1385 H        1 ZINC000008602616    0.0600
19     O19    -3.1571   -7.0454   -4.9956 O.3      1 ZINC000008602616   -0.5500
20     C20    -4.3017   -6.0275   -3.1051 C.3      1 ZINC000008602616   -0.0700
21     H21    -5.3838   -5.9134   -3.0413 H        1 ZINC000008602616    0.0800
22     C22    -3.6913   -4.8313   -3.8383 C.3      1 ZINC000008602616   -0.0800
23     C23    -4.3534   -4.6753   -5.1830 C.2      1 ZINC000008602616   -0.1600
24     C24    -4.8496   -3.5161   -5.5383 C.2      1 ZINC000008602616   -0.1500
25     C25    -4.6272   -2.3037   -4.6712 C.3      1 ZINC000008602616   -0.1000
26     C26    -4.0659   -1.1635   -5.5231 C.3      1 ZINC000008602616   -0.0800
27     C27    -3.8401    0.0674   -4.6429 C.3      1 ZINC000008602616   -0.1800
28     C28    -3.2872    1.1904   -5.4820 C.2      1 ZINC000008602616    0.4900
29     O29    -3.0918    1.0219   -6.6736 O.co2    1 ZINC000008602616   -0.7000
30     O30    -3.0352    2.2675   -4.9693 O.co2    1 ZINC000008602616   -0.7100
31     H31     3.6875   -2.3727    1.6572 H        1 ZINC000008602616    0.0500
32     H32     2.3961   -2.3202    2.8810 H        1 ZINC000008602616    0.0500
33     H33     2.9203   -3.8819    2.2068 H        1 ZINC000008602616    0.0500
34     H34     1.5395   -1.6462    0.6537 H        1 ZINC000008602616    0.0600
35     H35     2.0637   -3.2079   -0.0205 H        1 ZINC000008602616    0.0600
36     H36     0.5625   -4.3931    1.5575 H        1 ZINC000008602616    0.0600
37     H37     0.0382   -2.8314    2.2317 H        1 ZINC000008602616    0.0600
38     H38    -0.8184   -2.1575    0.0045 H        1 ZINC000008602616    0.0700
39     H39    -0.2941   -3.7192   -0.6697 H        1 ZINC000008602616    0.0600
40     H40    -1.7954   -4.9044    0.9083 H        1 ZINC000008602616    0.0700
41     H41    -2.3196   -3.3427    1.5825 H        1 ZINC000008602616    0.0600
42     H42    -3.7383   -1.9139    0.1226 H        1 ZINC000008602616    0.3700
43     H43    -4.8575   -4.0970    0.8048 H        1 ZINC000008602616    0.1100
44     H44    -5.5887   -5.9837   -0.4746 H        1 ZINC000008602616    0.1100
45     H45    -2.4567   -8.9004   -0.2952 H        1 ZINC000008602616    0.3800
46     H46    -2.0772   -8.0563   -2.9998 H        1 ZINC000008602616    0.0900
47     H47    -3.4118   -9.2510   -2.9608 H        1 ZINC000008602616    0.0700
48     H48    -2.8853   -7.8293   -5.4922 H        1 ZINC000008602616    0.3700
49     H49    -3.8462   -3.9269   -3.2499 H        1 ZINC000008602616    0.0800
50     H50    -2.6228   -4.9965   -3.9763 H        1 ZINC000008602616    0.0700
51     H51    -4.4188   -5.5191   -5.8539 H        1 ZINC000008602616    0.1100
52     H52    -5.4180   -3.4293   -6.4525 H        1 ZINC000008602616    0.1000
53     H53    -5.5744   -1.9946   -4.2291 H        1 ZINC000008602616    0.0600
54     H54    -3.9192   -2.5482   -3.8794 H        1 ZINC000008602616    0.0700
55     H55    -3.1187   -1.4726   -5.9653 H        1 ZINC000008602616    0.0600
56     H56    -4.7739   -0.9190   -6.3150 H        1 ZINC000008602616    0.0500
57     H57    -4.7872    0.3765   -4.2008 H        1 ZINC000008602616    0.0500
58     H58    -3.1321   -0.1771   -3.8510 H        1 ZINC000008602616    0.0600
@<TRIPOS>BOND
1     1     2     1
2     1     31    1
3     1     32    1
4     1     33    1
5     2     3     1
6     2     34    1
7     2     35    1
8     3     4     1
9     3     36    1
10    3     37    1
11    4     5     1
12    4     38    1
13    4     39    1
14    5     6     1
15    5     40    1
16    5     41    1
17    6     7     1
18    6     8     1
19    6     9     1
20    8     42    1
21    9     10    2
22    9     43    1
23    10    11    1
24    10    44    1
25    11    12    1
26    11    20    1
27    11    13    1
28    13    14    1
29    13    15    1
30    13    16    1
31    15    45    1
32    16    17    1
33    16    46    1
34    16    47    1
35    17    18    1
36    17    19    1
37    17    20    1
38    19    48    1
39    20    21    1
40    20    22    1
41    22    23    1
42    22    49    1
43    22    50    1
44    23    24    2
45    23    51    1
46    24    25    1
47    24    52    1
48    25    26    1
49    25    53    1
50    25    54    1
51    26    27    1
52    26    55    1
53    26    56    1
54    27    28    1
55    27    57    1
56    27    58    1
57    28    29    ar
58    28    30    ar
@<TRIPOS>SUBSTRUCTURE
1   ZINC000008602616 1     RESIDUE    1   A     ZIN   1
