@<TRIPOS>MOLECULE
ZINC000003961887
48    51    1     0     0
SMALL
USER_CHARGES
@<TRIPOS>ATOM
1      N1      1.0995    1.4530   -0.5190 N.am     1 ZINC000003961887   -0.8600
2      C2      0.8706    0.1294   -0.4083 C.2      1 ZINC000003961887    0.5500
3      O3      1.8020   -0.6388   -0.2679 O.2      1 ZINC000003961887   -0.5000
4      C4     -0.5135   -0.3881   -0.4577 C.ar     1 ZINC000003961887   -0.1400
5      C5     -1.5847    0.4907   -0.6246 C.ar     1 ZINC000003961887   -0.0900
6      C6     -2.8739    0.0012   -0.6703 C.ar     1 ZINC000003961887   -0.1400
7      C7     -3.1058   -1.3574   -0.5506 C.ar     1 ZINC000003961887   -0.0900
8      C8     -2.0481   -2.2341   -0.3845 C.ar     1 ZINC000003961887   -0.1100
9      C9     -2.3103   -3.7124   -0.2545 C.3      1 ZINC000003961887    0.1200
10     N10    -2.4541   -4.3019   -1.5879 N.pl3    1 ZINC000003961887   -0.4600
11     C11    -3.6092   -4.2997   -2.3268 C.2      1 ZINC000003961887    0.0800
12     C12    -3.3934   -4.9226   -3.4971 C.2      1 ZINC000003961887   -0.1800
13     C13    -4.4111   -5.1428   -4.5857 C.3      1 ZINC000003961887   -0.0300
14     C14    -5.4634   -4.0324   -4.5307 C.3      1 ZINC000003961887   -0.1200
15     C15    -6.5926   -4.4494   -3.5918 C.3      1 ZINC000003961887   -0.1200
16     C16    -6.0611   -4.6621   -2.1770 C.3      1 ZINC000003961887   -0.1100
17     C17    -4.9198   -3.6808   -1.9018 C.3      1 ZINC000003961887   -0.0600
18     C18    -1.9941   -5.3515   -3.5081 C.ar     1 ZINC000003961887   -0.1100
19     C19    -1.1935   -6.0293   -4.4282 C.ar     1 ZINC000003961887   -0.1000
20     C20     0.1273   -6.2949   -4.1310 C.ar     1 ZINC000003961887   -0.1500
21     C21     0.6718   -5.8948   -2.9250 C.ar     1 ZINC000003961887   -0.1000
22     C22    -0.1066   -5.2136   -1.9886 C.ar     1 ZINC000003961887   -0.1200
23     C23     0.4790   -4.7890   -0.7074 C.2      1 ZINC000003961887    0.5200
24     O24     1.3250   -3.9054   -0.6843 O.co2    1 ZINC000003961887   -0.6600
25     O25     0.1200   -5.3196    0.3350 O.co2    1 ZINC000003961887   -0.6900
26     C26    -1.4528   -4.9302   -2.2799 C.ar     1 ZINC000003961887    0.1200
27     C27    -0.7540   -1.7584   -0.3433 C.ar     1 ZINC000003961887   -0.0400
28     H28     2.0076    1.7925   -0.4866 H        1 ZINC000003961887    0.4000
29     H29     0.3565    2.0657   -0.6350 H        1 ZINC000003961887    0.3900
30     H30    -1.4050    1.5516   -0.7174 H        1 ZINC000003961887    0.1200
31     H31    -3.7038    0.6802   -0.7994 H        1 ZINC000003961887    0.1200
32     H32    -4.1169   -1.7354   -0.5867 H        1 ZINC000003961887    0.1200
33     H33    -1.4759   -4.1851    0.2637 H        1 ZINC000003961887    0.1400
34     H34    -3.2271   -3.8703    0.3134 H        1 ZINC000003961887    0.0800
35     H35    -3.9149   -5.1257   -5.5561 H        1 ZINC000003961887    0.0600
36     H36    -4.8944   -6.1091   -4.4414 H        1 ZINC000003961887    0.0600
37     H37    -5.0046   -3.1148   -4.1625 H        1 ZINC000003961887    0.0700
38     H38    -5.8652   -3.8627   -5.5296 H        1 ZINC000003961887    0.0600
39     H39    -7.3540   -3.6696   -3.5764 H        1 ZINC000003961887    0.0600
40     H40    -7.0362   -5.3774   -3.9526 H        1 ZINC000003961887    0.0600
41     H41    -6.8640   -4.4950   -1.4590 H        1 ZINC000003961887    0.0600
42     H42    -5.6933   -5.6833   -2.0775 H        1 ZINC000003961887    0.0700
43     H43    -4.8854   -3.4532   -0.8364 H        1 ZINC000003961887    0.0700
44     H44    -5.0869   -2.7622   -2.4642 H        1 ZINC000003961887    0.0800
45     H45    -1.6082   -6.3464   -5.3737 H        1 ZINC000003961887    0.1100
46     H46     0.7414   -6.8208   -4.8470 H        1 ZINC000003961887    0.1100
47     H47     1.7069   -6.1114   -2.7060 H        1 ZINC000003961887    0.1200
48     H48     0.0706   -2.4437   -0.2139 H        1 ZINC000003961887    0.1800
@<TRIPOS>BOND
1     1     2     am
2     1     28    1
3     1     29    1
4     2     3     2
5     2     4     1
6     4     27    ar
7     4     5     ar
8     5     6     ar
9     5     30    1
10    6     7     ar
11    6     31    1
12    7     8     ar
13    7     32    1
14    8     9     1
15    8     27    ar
16    9     10    1
17    9     33    1
18    9     34    1
19    10    26    1
20    10    11    1
21    11    17    1
22    11    12    2
23    12    13    1
24    12    18    1
25    13    14    1
26    13    35    1
27    13    36    1
28    14    15    1
29    14    37    1
30    14    38    1
31    15    16    1
32    15    39    1
33    15    40    1
34    16    17    1
35    16    41    1
36    16    42    1
37    17    43    1
38    17    44    1
39    18    26    ar
40    18    19    ar
41    19    20    ar
42    19    45    1
43    20    21    ar
44    20    46    1
45    21    22    ar
46    21    47    1
47    22    23    1
48    22    26    ar
49    23    24    ar
50    23    25    ar
51    27    48    1
@<TRIPOS>SUBSTRUCTURE
1   ZINC000003961887 1     RESIDUE    1   A     ZIN   1
