@<TRIPOS>MOLECULE
ZINC000003963671
62    67    1     0     0
SMALL
USER_CHARGES
@<TRIPOS>ATOM
1      O1     -0.1155    0.0847   -0.3337 O.2      1 ZINC000003963671   -0.5100
2      C2     -0.0857    1.2953   -0.2668 C.2      1 ZINC000003963671    0.5300
3      N3     -1.1583    2.1145   -0.2883 N.am     1 ZINC000003963671   -0.7200
4      C4     -0.7124    3.5111   -0.2028 C.3      1 ZINC000003963671    0.2400
5      N5      0.6813    3.4696    0.2984 N.3      1 ZINC000003963671   -0.4500
6      C6      1.4475    4.4909   -0.2681 C.ar     1 ZINC000003963671    0.0600
7      C7      2.4293    5.1235    0.4840 C.ar     1 ZINC000003963671   -0.0900
8      C8      3.1854    6.1326   -0.0793 C.ar     1 ZINC000003963671   -0.1100
9      C9      2.9658    6.5137   -1.3903 C.ar     1 ZINC000003963671   -0.1100
10     C10     1.9893    5.8861   -2.1418 C.ar     1 ZINC000003963671   -0.1000
11     C11     1.2334    4.8723   -1.5865 C.ar     1 ZINC000003963671   -0.1600
12     C12     1.1561    2.1425   -0.1388 C.3      1 ZINC000003963671    0.0500
13     C13     2.1056    1.5548    0.9019 C.3      1 ZINC000003963671   -0.1100
14     C14     2.6340    0.2079    0.4008 C.3      1 ZINC000003963671   -0.0200
15     N15     3.3350    0.3991   -0.8747 N.4      1 ZINC000003963671   -0.3800
16     H16     4.0726    1.0768   -0.7534 H        1 ZINC000003963671    0.4200
17     C17     3.9136   -0.8792   -1.3096 C.3      1 ZINC000003963671    0.0800
18     H18     4.5616   -1.2700   -0.5251 H        1 ZINC000003963671    0.1500
19     C19     2.7896   -1.8792   -1.5877 C.3      1 ZINC000003963671   -0.1400
20     C20     3.4079   -3.1477   -2.1821 C.3      1 ZINC000003963671   -0.1100
21     C21     3.9128   -2.8455   -3.5950 C.3      1 ZINC000003963671   -0.0500
22     H22     3.0622   -2.7495   -4.2697 H        1 ZINC000003963671    0.0900
23     C23     4.7989   -3.9959   -4.0595 C.3      1 ZINC000003963671   -0.1100
24     C24     5.5791   -3.7014   -5.3242 C.3      1 ZINC000003963671   -0.1200
25     C25     5.3352   -2.3036   -5.8761 C.3      1 ZINC000003963671   -0.0900
26     C26     5.4274   -1.2960   -4.7600 C.ar     1 ZINC000003963671   -0.0700
27     C27     6.2003   -0.1640   -4.8588 C.ar     1 ZINC000003963671   -0.0900
28     C28     6.2377    0.7301   -3.8018 C.ar     1 ZINC000003963671   -0.1000
29     C29     5.4967    0.4819   -2.6637 C.ar     1 ZINC000003963671   -0.1300
30     C30     4.7190   -0.6644   -2.5655 C.ar     1 ZINC000003963671   -0.1300
31     C31     4.7041   -1.5641   -3.6040 C.ar     1 ZINC000003963671   -0.0400
32     C32     2.3954    0.8789   -1.8953 C.3      1 ZINC000003963671   -0.0100
33     C33     1.8567    2.2538   -1.4903 C.3      1 ZINC000003963671   -0.1600
34     H34    -2.0820    1.8251   -0.3509 H        1 ZINC000003963671    0.4300
35     H35    -0.7426    3.9751   -1.1887 H        1 ZINC000003963671    0.0800
36     H36    -1.3443    4.0644    0.4919 H        1 ZINC000003963671    0.1200
37     H37     2.6008    4.8269    1.5082 H        1 ZINC000003963671    0.1300
38     H38     3.9488    6.6249    0.5049 H        1 ZINC000003963671    0.1300
39     H39     3.5580    7.3036   -1.8282 H        1 ZINC000003963671    0.1300
40     H40     1.8203    6.1861   -3.1655 H        1 ZINC000003963671    0.1300
41     H41     0.4712    4.3823   -2.1741 H        1 ZINC000003963671    0.1300
42     H42     2.9406    2.2375    1.0594 H        1 ZINC000003963671    0.1000
43     H43     1.5715    1.4096    1.8410 H        1 ZINC000003963671    0.1200
44     H44     3.3237   -0.2076    1.1354 H        1 ZINC000003963671    0.1400
45     H45     1.7997   -0.4787    0.2572 H        1 ZINC000003963671    0.1500
46     H46     2.2761   -2.1223   -0.6574 H        1 ZINC000003963671    0.1000
47     H47     2.0822   -1.4487   -2.2964 H        1 ZINC000003963671    0.0900
48     H48     4.2412   -3.4732   -1.5593 H        1 ZINC000003963671    0.0800
49     H49     2.6548   -3.9345   -2.2249 H        1 ZINC000003963671    0.0900
50     H50     5.5046   -4.2339   -3.2636 H        1 ZINC000003963671    0.0700
51     H51     4.1706   -4.8693   -4.2346 H        1 ZINC000003963671    0.0700
52     H52     6.6425   -3.8124   -5.1121 H        1 ZINC000003963671    0.0700
53     H53     5.2997   -4.4306   -6.0846 H        1 ZINC000003963671    0.0700
54     H54     6.0858   -2.0762   -6.6331 H        1 ZINC000003963671    0.0800
55     H55     4.3428   -2.2585   -6.3246 H        1 ZINC000003963671    0.0800
56     H56     6.7743    0.0268   -5.7535 H        1 ZINC000003963671    0.1400
57     H57     6.8459    1.6201   -3.8676 H        1 ZINC000003963671    0.1300
58     H58     5.5221    1.1843   -1.8437 H        1 ZINC000003963671    0.1200
59     H59     2.9093    0.9581   -2.8533 H        1 ZINC000003963671    0.1400
60     H60     1.5669    0.1764   -1.9850 H        1 ZINC000003963671    0.1400
61     H61     1.1468    2.6019   -2.2406 H        1 ZINC000003963671    0.1100
62     H62     2.6830    2.9606   -1.4148 H        1 ZINC000003963671    0.1100
@<TRIPOS>BOND
1     1     2     2
2     2     12    1
3     2     3     am
4     3     4     1
5     3     34    1
6     4     5     1
7     4     35    1
8     4     36    1
9     5     6     1
10    5     12    1
11    6     11    ar
12    6     7     ar
13    7     8     ar
14    7     37    1
15    8     9     ar
16    8     38    1
17    9     10    ar
18    9     39    1
19    10    11    ar
20    10    40    1
21    11    41    1
22    12    33    1
23    12    13    1
24    13    14    1
25    13    42    1
26    13    43    1
27    14    15    1
28    14    44    1
29    14    45    1
30    15    16    1
31    15    17    1
32    15    32    1
33    17    18    1
34    17    30    1
35    17    19    1
36    19    20    1
37    19    46    1
38    19    47    1
39    20    21    1
40    20    48    1
41    20    49    1
42    21    22    1
43    21    31    1
44    21    23    1
45    23    24    1
46    23    50    1
47    23    51    1
48    24    25    1
49    24    52    1
50    24    53    1
51    25    26    1
52    25    54    1
53    25    55    1
54    26    31    ar
55    26    27    ar
56    27    28    ar
57    27    56    1
58    28    29    ar
59    28    57    1
60    29    30    ar
61    29    58    1
62    30    31    ar
63    32    33    1
64    32    59    1
65    32    60    1
66    33    61    1
67    33    62    1
@<TRIPOS>SUBSTRUCTURE
1   ZINC000003963671 1     RESIDUE    1   A     ZIN   1
