@<TRIPOS>MOLECULE
ZINC000205341959
83    87    1     0     0
SMALL
USER_CHARGES
@<TRIPOS>ATOM
1      C1     -1.3406   -0.5046   -0.9270 C.2      1 ZINC000205341959   -0.0900
2      C2     -1.1551   -1.7942   -0.6597 C.2      1 ZINC000205341959   -0.2200
3      C3      0.2066   -2.3492   -0.6225 C.2      1 ZINC000205341959    0.5600
4      O4      1.1629   -1.6289   -0.8363 O.2      1 ZINC000205341959   -0.5400
5      N5      0.3946   -3.6560   -0.3516 N.am     1 ZINC000205341959   -0.6100
6      C6     -0.6701   -4.6392   -0.0812 C.3      1 ZINC000205341959    0.1000
7      C7     -0.0475   -6.0092   -0.4487 C.3      1 ZINC000205341959   -0.1300
8      C8      1.4170   -5.8240    0.0291 C.3      1 ZINC000205341959    0.0700
9      H9      1.5016   -6.0195    1.0980 H        1 ZINC000205341959    0.1100
10     O10     2.3005   -6.6703   -0.7093 O.3      1 ZINC000205341959   -0.2700
11     C11     3.5083   -6.9321   -0.1543 C.ar     1 ZINC000205341959    0.3600
12     N12     3.8268   -6.3994    1.0161 N.ar     1 ZINC000205341959   -0.5500
13     C13     5.0108   -6.6559    1.5606 C.ar     1 ZINC000205341959    0.4400
14     N14     5.3475   -6.1024    2.7825 N.pl3    1 ZINC000205341959   -0.6200
15     C15     4.3782   -5.4306    3.5379 C.ar     1 ZINC000205341959    0.1200
16     C16     3.2942   -4.8361    2.9056 C.ar     1 ZINC000205341959   -0.1200
17     C17     2.3386   -4.1738    3.6503 C.ar     1 ZINC000205341959   -0.1200
18     C18     2.4612   -4.1026    5.0318 C.ar     1 ZINC000205341959    0.1000
19     N19     1.4924   -3.4318    5.7866 N.3      1 ZINC000205341959   -0.4800
20     C20     1.3295   -2.0479    5.3233 C.3      1 ZINC000205341959    0.0600
21     C21     0.1662   -1.3920    6.0706 C.3      1 ZINC000205341959   -0.1200
22     C22     0.4536   -1.4160    7.5744 C.3      1 ZINC000205341959    0.0900
23     N23    -0.6858   -0.8404    8.3012 N.3      1 ZINC000205341959   -0.5300
24     C24    -1.1321    0.4117    7.6744 C.3      1 ZINC000205341959    0.0500
25     C25    -2.3666    0.9363    8.4115 C.3      1 ZINC000205341959    0.0600
26     N26    -2.0352    1.1485    9.8274 N.3      1 ZINC000205341959   -0.5500
27     C27    -3.1746    1.7241   10.5542 C.3      1 ZINC000205341959    0.0200
28     C28    -1.5889   -0.1036   10.4542 C.3      1 ZINC000205341959    0.0600
29     C29    -0.3544   -0.6282    9.7171 C.3      1 ZINC000205341959    0.0600
30     C30     0.6671   -2.8646    8.0222 C.3      1 ZINC000205341959   -0.1100
31     C31     1.8159   -3.4778    7.2183 C.3      1 ZINC000205341959    0.0500
32     C32     3.5451   -4.6976    5.6642 C.ar     1 ZINC000205341959   -0.1500
33     C33     4.4981   -5.3640    4.9199 C.ar     1 ZINC000205341959   -0.1200
34     C34     5.9194   -7.4916    0.8908 C.ar     1 ZINC000205341959   -0.0900
35     C35     7.2360   -7.7819    1.4886 C.2      1 ZINC000205341959    0.6000
36     N36     8.1758   -8.4258    0.7684 N.am     1 ZINC000205341959   -0.8300
37     O37     7.4737   -7.4402    2.6311 O.2      1 ZINC000205341959   -0.5500
38     N38     5.5885   -8.0216   -0.2854 N.ar     1 ZINC000205341959   -0.3400
39     C39     4.4121   -7.7675   -0.8151 C.ar     1 ZINC000205341959    0.0200
40     C40     4.0424   -8.3696   -2.1462 C.3      1 ZINC000205341959   -0.0600
41     C41     3.3656   -9.7235   -1.9232 C.3      1 ZINC000205341959   -0.1400
42     C42     1.6950   -4.3385   -0.2832 C.3      1 ZINC000205341959    0.0900
43     H43    -0.4914    0.1351   -1.1168 H        1 ZINC000205341959    0.1100
44     H44    -2.3406   -0.0981   -0.9587 H        1 ZINC000205341959    0.1200
45     H45    -2.0044   -2.4339   -0.4699 H        1 ZINC000205341959    0.1300
46     H46    -0.9466   -4.6186    0.9730 H        1 ZINC000205341959    0.0800
47     H47    -1.5401   -4.4379   -0.7063 H        1 ZINC000205341959    0.0900
48     H48    -0.5361   -6.8185    0.0939 H        1 ZINC000205341959    0.1000
49     H49    -0.0888   -6.1812   -1.5242 H        1 ZINC000205341959    0.0900
50     H50     6.2550   -6.1795    3.1163 H        1 ZINC000205341959    0.4400
51     H51     3.1988   -4.8914    1.8312 H        1 ZINC000205341959    0.1600
52     H52     1.4959   -3.7109    3.1584 H        1 ZINC000205341959    0.1200
53     H53     2.2458   -1.4900    5.5163 H        1 ZINC000205341959    0.0400
54     H54     1.1215   -2.0453    4.2533 H        1 ZINC000205341959    0.0800
55     H55     0.0555   -0.3600    5.7377 H        1 ZINC000205341959    0.0700
56     H56    -0.7530   -1.9412    5.8670 H        1 ZINC000205341959    0.0800
57     H57     1.3508   -0.8332    7.7831 H        1 ZINC000205341959    0.0400
58     H58    -0.3334    1.1513    7.7306 H        1 ZINC000205341959    0.0400
59     H59    -1.3836    0.2261    6.6302 H        1 ZINC000205341959    0.0900
60     H60    -2.6821    1.8799    7.9665 H        1 ZINC000205341959    0.0800
61     H61    -3.1741    0.2085    8.3321 H        1 ZINC000205341959    0.0400
62     H62    -4.0254    1.0455   10.4923 H        1 ZINC000205341959    0.0300
63     H63    -2.9022    1.8708   11.5994 H        1 ZINC000205341959    0.0700
64     H64    -3.4417    2.6831   10.1103 H        1 ZINC000205341959    0.0700
65     H65    -1.3374    0.0820   11.4984 H        1 ZINC000205341959    0.0800
66     H66    -2.3876   -0.8432   10.3980 H        1 ZINC000205341959    0.0400
67     H67    -0.0389   -1.5718   10.1621 H        1 ZINC000205341959    0.0800
68     H68     0.4531    0.0996    9.7965 H        1 ZINC000205341959    0.0400
69     H69     0.9143   -2.8847    9.0836 H        1 ZINC000205341959    0.0700
70     H70    -0.2442   -3.4370    7.8493 H        1 ZINC000205341959    0.0800
71     H71     1.9611   -4.5138    7.5247 H        1 ZINC000205341959    0.0900
72     H72     2.7299   -2.9133    7.4024 H        1 ZINC000205341959    0.0400
73     H73     3.6405   -4.6422    6.7385 H        1 ZINC000205341959    0.1300
74     H74     5.3408   -5.8270    5.4117 H        1 ZINC000205341959    0.1300
75     H75     7.9862   -8.6983   -0.1430 H        1 ZINC000205341959    0.4100
76     H76     9.0418   -8.6167    1.1616 H        1 ZINC000205341959    0.4100
77     H77     3.3570   -7.7025   -2.6689 H        1 ZINC000205341959    0.0900
78     H78     4.9426   -8.5077   -2.7451 H        1 ZINC000205341959    0.0800
79     H79     3.0982  -10.1590   -2.8859 H        1 ZINC000205341959    0.0600
80     H80     4.0510  -10.3906   -1.4004 H        1 ZINC000205341959    0.0600
81     H81     2.4654   -9.5854   -1.3242 H        1 ZINC000205341959    0.0500
82     H82     2.2156   -4.2513   -1.2369 H        1 ZINC000205341959    0.0800
83     H83     2.2973   -3.8990    0.5119 H        1 ZINC000205341959    0.0800
@<TRIPOS>BOND
1     1     2     2
2     1     43    1
3     1     44    1
4     2     3     1
5     2     45    1
6     3     4     2
7     3     5     am
8     5     42    1
9     5     6     1
10    6     7     1
11    6     46    1
12    6     47    1
13    7     8     1
14    7     48    1
15    7     49    1
16    8     9     1
17    8     10    1
18    8     42    1
19    10    11    1
20    11    39    ar
21    11    12    ar
22    12    13    ar
23    13    14    1
24    13    34    ar
25    14    15    1
26    14    50    1
27    15    33    ar
28    15    16    ar
29    16    17    ar
30    16    51    1
31    17    18    ar
32    17    52    1
33    18    19    1
34    18    32    ar
35    19    31    1
36    19    20    1
37    20    21    1
38    20    53    1
39    20    54    1
40    21    22    1
41    21    55    1
42    21    56    1
43    22    23    1
44    22    30    1
45    22    57    1
46    23    29    1
47    23    24    1
48    24    25    1
49    24    58    1
50    24    59    1
51    25    26    1
52    25    60    1
53    25    61    1
54    26    27    1
55    26    28    1
56    27    62    1
57    27    63    1
58    27    64    1
59    28    29    1
60    28    65    1
61    28    66    1
62    29    67    1
63    29    68    1
64    30    31    1
65    30    69    1
66    30    70    1
67    31    71    1
68    31    72    1
69    32    33    ar
70    32    73    1
71    33    74    1
72    34    35    1
73    34    38    ar
74    35    36    am
75    35    37    2
76    36    75    1
77    36    76    1
78    38    39    ar
79    39    40    1
80    40    41    1
81    40    77    1
82    40    78    1
83    41    79    1
84    41    80    1
85    41    81    1
86    42    82    1
87    42    83    1
@<TRIPOS>SUBSTRUCTURE
1   ZINC000205341959 1     RESIDUE    1   A     ZIN   1
