@<TRIPOS>MOLECULE
ZINC000144542146
45    47    1     0     0
SMALL
USER_CHARGES
@<TRIPOS>ATOM
1      C1      3.0219   -1.2448   -1.4432 C.3      1 ZINC000144542146    0.0900
2      N2      1.7449   -1.5696   -0.8029 N.am     1 ZINC000144542146   -0.9800
3      C3      1.5697   -2.7417   -0.0811 C.2      1 ZINC000144542146    0.6100
4      N4      2.4483   -3.1268    0.8015 N.2      1 ZINC000144542146   -0.6800
5      N5      0.4343   -3.4858   -0.3283 N.pl3    1 ZINC000144542146   -0.7400
6      C6     -0.8851   -2.8482   -0.2670 C.3      1 ZINC000144542146    0.2600
7      C7     -1.1255   -2.3059    1.1434 C.3      1 ZINC000144542146   -0.2000
8      C8     -1.9493   -3.8602   -0.6051 C.ar     1 ZINC000144542146   -0.1000
9      C9     -2.7779   -3.6536   -1.6902 C.ar     1 ZINC000144542146   -0.1000
10     C10    -3.7583   -4.5869   -2.0017 C.ar     1 ZINC000144542146    0.1400
11     N11    -4.5989   -4.3798   -3.1012 N.am     1 ZINC000144542146   -0.6500
12     C12    -5.8838   -4.7836   -3.0526 C.2      1 ZINC000144542146    0.5800
13     O13    -6.3393   -5.2384   -2.0216 O.2      1 ZINC000144542146   -0.5000
14     C14    -6.7402   -4.6730   -4.2547 C.ar     1 ZINC000144542146    0.0600
15     C15    -8.0696   -5.0872   -4.1957 C.ar     1 ZINC000144542146   -0.0700
16     C16    -8.8598   -4.9782   -5.3279 C.ar     1 ZINC000144542146   -0.1100
17     C17    -8.2925   -4.4575   -6.4835 C.ar     1 ZINC000144542146    0.0800
18     F18    -9.0287   -4.3338   -7.6095 F        1 ZINC000144542146   -0.1200
19     C19    -6.9601   -4.0647   -6.4694 C.ar     1 ZINC000144542146    0.0800
20     N20    -6.2363   -4.1751   -5.3779 N.ar     1 ZINC000144542146   -0.4300
21     C21    -3.9029   -5.7260   -1.2209 C.ar     1 ZINC000144542146   -0.0800
22     C22    -3.0718   -5.9287   -0.1363 C.ar     1 ZINC000144542146   -0.1300
23     C23    -2.0918   -4.9996    0.1693 C.ar     1 ZINC000144542146    0.1100
24     F24    -1.2799   -5.1998    1.2304 F        1 ZINC000144542146   -0.1200
25     C25    -0.9361   -1.6927   -1.2761 C.3      1 ZINC000144542146   -0.6300
26     S26     0.4332   -0.5465   -0.8995 S.o2     1 ZINC000144542146    2.5900
27     O27     0.2946   -0.0074    0.4079 O.2      1 ZINC000144542146   -0.9300
28     O28     0.7149    0.2866   -2.0157 O.2      1 ZINC000144542146   -0.9400
29     H29     3.6471   -0.6879   -0.7452 H        1 ZINC000144542146    0.0700
30     H30     3.5292   -2.1659   -1.7300 H        1 ZINC000144542146    0.0800
31     H31     2.8396   -0.6389   -2.3307 H        1 ZINC000144542146    0.1000
32     H32     3.2407   -2.5911    0.9626 H        1 ZINC000144542146    0.3500
33     H33     0.5086   -4.4289   -0.5425 H        1 ZINC000144542146    0.4200
34     H34    -0.3564   -1.5728    1.3867 H        1 ZINC000144542146    0.1000
35     H35    -2.1061   -1.8322    1.1882 H        1 ZINC000144542146    0.0800
36     H36    -1.0851   -3.1263    1.8599 H        1 ZINC000144542146    0.0900
37     H37    -2.6641   -2.7668   -2.2960 H        1 ZINC000144542146    0.1400
38     H38    -4.2567   -3.9456   -3.8983 H        1 ZINC000144542146    0.4200
39     H39    -8.4779   -5.4880   -3.2797 H        1 ZINC000144542146    0.1600
40     H40    -9.8933   -5.2913   -5.3125 H        1 ZINC000144542146    0.1600
41     H41    -6.5144   -3.6595   -7.3658 H        1 ZINC000144542146    0.1800
42     H42    -4.6648   -6.4527   -1.4611 H        1 ZINC000144542146    0.1500
43     H43    -3.1842   -6.8143    0.4715 H        1 ZINC000144542146    0.1500
44     H44    -0.8244   -2.0831   -2.2876 H        1 ZINC000144542146    0.1500
45     H45    -1.8877   -1.1687   -1.1868 H        1 ZINC000144542146    0.1500
@<TRIPOS>BOND
1     1     2     1
2     1     29    1
3     1     30    1
4     1     31    1
5     2     26    am
6     2     3     1
7     3     4     2
8     3     5     1
9     4     32    1
10    5     6     1
11    5     33    1
12    6     7     1
13    6     8     1
14    6     25    1
15    7     34    1
16    7     35    1
17    7     36    1
18    8     23    ar
19    8     9     ar
20    9     10    ar
21    9     37    1
22    10    11    1
23    10    21    ar
24    11    12    am
25    11    38    1
26    12    13    2
27    12    14    1
28    14    20    ar
29    14    15    ar
30    15    16    ar
31    15    39    1
32    16    17    ar
33    16    40    1
34    17    18    1
35    17    19    ar
36    19    20    ar
37    19    41    1
38    21    22    ar
39    21    42    1
40    22    23    ar
41    22    43    1
42    23    24    1
43    25    26    1
44    25    44    1
45    25    45    1
46    26    27    2
47    26    28    2
@<TRIPOS>SUBSTRUCTURE
1   ZINC000144542146 1     RESIDUE    1   A     ZIN   1
