@<TRIPOS>MOLECULE
ZINC000038836256
  53   57    0    0    0
SMALL
USER_CHARGES
NO_NAME
@<TRIPOS>ATOM
    1 C1       -0.8742    -0.2512     1.6503 C.2    1 <0>       0.2700
    2 N2        0.2920     0.3368     1.6040 N.2    1 <0>      -0.5400
    3 C3        1.2533    -0.5771     1.4146 C.2    1 <0>       0.2800
    4 C4        2.7063    -0.2949     1.3087 C.ar   1 <0>      -0.0500
    5 C5        3.1711     1.0211     1.4136 C.ar   1 <0>      -0.0300
    6 C6        4.5030     1.2980     1.3185 C.ar   1 <0>      -0.1400
    7 C7        5.4196     0.2678     1.1154 C.ar   1 <0>       0.1500
    8 N8        6.7842     0.2322     0.9815 N.pl3  1 <0>      -0.5000
    9 N9        7.1960    -1.0907     0.7929 N.2    1 <0>      -0.2300
   10 C10       6.1565    -1.8892     0.8016 C.2    1 <0>       0.1500
   11 C11       6.1813    -3.3615     0.6329 C.ar   1 <0>       0.0200
   12 C12       5.2711    -4.1600     1.3242 C.ar   1 <0>      -0.1300
   13 C13       5.2961    -5.5310     1.1649 C.ar   1 <0>      -0.0800
   14 C14       6.2215    -6.1159     0.3211 C.ar   1 <0>      -0.2000
   15 C15       7.1318    -5.3282    -0.3708 C.ar   1 <0>       0.1300
   16 O16       8.0399    -5.9079    -1.1993 O.3    1 <0>      -0.3100
   17 C17       8.0006    -7.3320    -1.3101 C.3    1 <0>       0.0200
   18 C18       9.0885    -7.7984    -2.2796 C.3    1 <0>       0.0600
   19 N19      10.4104    -7.4976    -1.7136 N.3    1 <0>      -0.5300
   20 C20      10.4972    -7.9391    -0.3158 C.3    1 <0>       0.0500
   21 C21      11.9267    -7.7436     0.1944 C.3    1 <0>      -0.1200
   22 C22      12.3056    -6.2643     0.0824 C.3    1 <0>      -0.1200
   23 C23      12.1603    -5.8172    -1.3749 C.3    1 <0>      -0.1200
   24 C24      10.7240    -6.0685    -1.8396 C.3    1 <0>       0.0500
   25 C25       7.1106    -3.9516    -0.2217 C.ar   1 <0>      -0.1200
   26 C26       4.9640    -1.0598     1.0087 C.ar   1 <0>      -0.1700
   27 C27       3.6005    -1.3365     1.1117 C.ar   1 <0>       0.0000
   28 N28       0.6958    -1.7656     1.3386 N.2    1 <0>      -0.3100
   29 N29      -0.6871    -1.5735     1.4897 N.pl3  1 <0>      -0.4800
   30 H30      -1.8248     0.2399     1.7971 H      1 <0>       0.2300
   31 H31       2.4678     1.8254     1.5710 H      1 <0>       0.1500
   32 H32       4.8484     2.3180     1.4005 H      1 <0>       0.1400
   33 H33       7.3714     1.0036     1.0128 H      1 <0>       0.4400
   34 H34       4.5469    -3.7060     1.9845 H      1 <0>       0.1300
   35 H35       4.5907    -6.1484     1.7013 H      1 <0>       0.1300
   36 H36       6.2369    -7.1890     0.2000 H      1 <0>       0.1300
   37 H37       8.1719    -7.7776    -0.3302 H      1 <0>       0.0700
   38 H38       7.0243    -7.6406    -1.6839 H      1 <0>       0.0700
   39 H39       8.9973    -8.8728    -2.4385 H      1 <0>       0.1000
   40 H40       8.9740    -7.2793    -3.2311 H      1 <0>       0.0900
   41 H41       9.8105    -7.3518     0.2939 H      1 <0>       0.0400
   42 H42      10.2294    -8.9937    -0.2507 H      1 <0>       0.0700
   43 H43      11.9872    -8.0568     1.2367 H      1 <0>       0.0700
   44 H44      12.6124    -8.3414    -0.4062 H      1 <0>       0.0700
   45 H45      11.6446    -5.6702     0.7133 H      1 <0>       0.0600
   46 H46      13.3380    -6.1273     0.4041 H      1 <0>       0.0600
   47 H47      12.3875    -4.7541    -1.4538 H      1 <0>       0.0700
   48 H48      12.8496    -6.3847    -2.0001 H      1 <0>       0.0700
   49 H49      10.6208    -5.7645    -2.8812 H      1 <0>       0.0700
   50 H50      10.0362    -5.4901    -1.2228 H      1 <0>       0.0600
   51 H51       7.8181    -3.3377    -0.7593 H      1 <0>       0.1400
   52 H52       3.2440    -2.3531     1.0359 H      1 <0>       0.1400
   53 H53      -1.3727    -2.2596     1.4806 H      1 <0>       0.4400
@<TRIPOS>BOND
   1    1   29 1
   2    1    2 2
   3    1   30 1
   4    2    3 1
   5    3    4 1
   6    3   28 2
   7    4   27 ar
   8    4    5 ar
   9    5    6 ar
  10    5   31 1
  11    6    7 ar
  12    6   32 1
  13    7   26 ar
  14    7    8 1
  15    8    9 1
  16    8   33 1
  17    9   10 2
  18   10   11 1
  19   10   26 1
  20   11   25 ar
  21   11   12 ar
  22   12   13 ar
  23   12   34 1
  24   13   14 ar
  25   13   35 1
  26   14   15 ar
  27   14   36 1
  28   15   16 1
  29   15   25 ar
  30   16   17 1
  31   17   18 1
  32   17   37 1
  33   17   38 1
  34   18   19 1
  35   18   39 1
  36   18   40 1
  37   19   24 1
  38   19   20 1
  39   20   21 1
  40   20   41 1
  41   20   42 1
  42   21   22 1
  43   21   43 1
  44   21   44 1
  45   22   23 1
  46   22   45 1
  47   22   46 1
  48   23   24 1
  49   23   47 1
  50   23   48 1
  51   24   49 1
  52   24   50 1
  53   25   51 1
  54   26   27 ar
  55   27   52 1
  56   28   29 1
  57   29   53 1
