@<TRIPOS>MOLECULE
ZINC000000007461
30    32    1     0     0
SMALL
USER_CHARGES
@<TRIPOS>ATOM
1      O1      0.0062    0.0354    0.3159 O.2      1 ZINC000000007461   -0.5200
2      C2     -0.0144    1.2114    0.0087 C.2      1 ZINC000000007461    0.5600
3      C3      1.2318    2.0055    0.0404 C.ar     1 ZINC000000007461   -0.0800
4      C4      1.1967    3.2810    0.5598 C.ar     1 ZINC000000007461   -0.0300
5      C5      2.3732    4.0506    0.5982 C.ar     1 ZINC000000007461    0.0100
6      N6      2.7562    5.2420    0.9879 N.2      1 ZINC000000007461   -0.3300
7      O7      3.9438    5.3695    0.7664 O.3      1 ZINC000000007461    0.3800
8      N8      4.5016    4.4180    0.2569 N.2      1 ZINC000000007461   -0.3400
9      C9      3.6297    3.4594    0.0728 C.ar     1 ZINC000000007461    0.0200
10     C10     3.5931    2.1085   -0.4608 C.ar     1 ZINC000000007461   -0.0500
11     C11     2.4211    1.4306   -0.4571 C.ar     1 ZINC000000007461   -0.0600
12     N12    -1.1726    1.7898   -0.3661 N.am     1 ZINC000000007461   -0.6000
13     C13    -1.1919    3.1706   -0.8678 C.3      1 ZINC000000007461    0.0900
14     C14    -1.8953    3.1911   -2.2285 C.3      1 ZINC000000007461   -0.1400
15     C15    -3.2794    2.5525   -2.0924 C.3      1 ZINC000000007461   -0.1200
16     C16    -3.1295    1.0957   -1.6481 C.3      1 ZINC000000007461   -0.1400
17     C17    -2.4392    1.0494   -0.2865 C.3      1 ZINC000000007461    0.1100
18     H18     0.2697    3.6883    0.9355 H        1 ZINC000000007461    0.1500
19     H19     4.4897    1.6495   -0.8506 H        1 ZINC000000007461    0.1600
20     H20     2.3935    0.4264   -0.8537 H        1 ZINC000000007461    0.1600
21     H21    -1.7330    3.8064   -0.1670 H        1 ZINC000000007461    0.0800
22     H22    -0.1700    3.5331   -0.9792 H        1 ZINC000000007461    0.0900
23     H23    -2.0018    4.2216   -2.5675 H        1 ZINC000000007461    0.0800
24     H24    -1.3047    2.6289   -2.9518 H        1 ZINC000000007461    0.0700
25     H25    -3.8608    3.1003   -1.3508 H        1 ZINC000000007461    0.0700
26     H26    -3.7918    2.5880   -3.0538 H        1 ZINC000000007461    0.0700
27     H27    -4.1144    0.6347   -1.5740 H        1 ZINC000000007461    0.0800
28     H28    -2.5273    0.5532   -2.3769 H        1 ZINC000000007461    0.0700
29     H29    -2.2416    0.0131   -0.0121 H        1 ZINC000000007461    0.1000
30     H30    -3.0799    1.5125    0.4639 H        1 ZINC000000007461    0.0700
@<TRIPOS>BOND
1     1     2     2
2     2     3     1
3     2     12    am
4     3     11    ar
5     3     4     ar
6     4     5     ar
7     4     18    1
8     5     9     ar
9     5     6     2
10    6     7     1
11    7     8     1
12    8     9     2
13    9     10    ar
14    10    11    ar
15    10    19    1
16    11    20    1
17    12    17    1
18    12    13    1
19    13    14    1
20    13    21    1
21    13    22    1
22    14    15    1
23    14    23    1
24    14    24    1
25    15    16    1
26    15    25    1
27    15    26    1
28    16    17    1
29    16    27    1
30    16    28    1
31    17    29    1
32    17    30    1
@<TRIPOS>SUBSTRUCTURE
1   ZINC000000007461 1     RESIDUE    1   A     ZIN   1
