@<TRIPOS>MOLECULE
ZINC000004611821
26    27    1     0     0
SMALL
USER_CHARGES
@<TRIPOS>ATOM
1      C1     -0.0178    1.4608    0.0101 C.3      1 ZINC000004611821    0.0500
2      N2      0.0021   -0.0041    0.0020 N.pl3    1 ZINC000004611821   -0.4900
3      C3      0.0053   -0.6587   -1.1847 C.2      1 ZINC000004611821    0.2600
4      C4      0.0227   -2.0047   -1.2703 C.2      1 ZINC000004611821   -0.6500
5      S5      0.0258   -2.7855   -2.8498 S.o      1 ZINC000004611821    1.3700
6      C6      1.6386   -3.6146   -2.8920 C.3      1 ZINC000004611821   -0.5000
7      O7      0.0348   -1.6860   -3.7499 O.2      1 ZINC000004611821   -0.8700
8      C8      0.0391   -2.7907   -0.0938 C.2      1 ZINC000004611821    0.4600
9      O9      0.0554   -4.0095   -0.1502 O.2      1 ZINC000004611821   -0.4800
10     C10     0.0362   -2.0890    1.2010 C.ar     1 ZINC000004611821   -0.2000
11     C11     0.0516   -2.7882    2.4080 C.ar     1 ZINC000004611821    0.0000
12     C12     0.0483   -2.1008    3.5889 C.ar     1 ZINC000004611821   -0.1900
13     C13     0.0298   -0.7104    3.5965 C.ar     1 ZINC000004611821    0.1700
14     F14     0.0273   -0.0478    4.7738 F        1 ZINC000004611821   -0.1300
15     C15     0.0144   -0.0004    2.4123 C.ar     1 ZINC000004611821   -0.2100
16     C16     0.0227   -0.6823    1.2005 C.ar     1 ZINC000004611821    0.2100
17     H17     1.0048    1.8381    0.0023 H        1 ZINC000004611821    0.0800
18     H18    -0.5450    1.8219   -0.8730 H        1 ZINC000004611821    0.1000
19     H19    -0.5280    1.8123    0.9069 H        1 ZINC000004611821    0.0900
20     H20    -0.0069   -0.0804   -2.0968 H        1 ZINC000004611821    0.1800
21     H21     1.7014   -4.3292   -2.0713 H        1 ZINC000004611821    0.1200
22     H22     1.7526   -4.1397   -3.8404 H        1 ZINC000004611821    0.1100
23     H23     2.4311   -2.8733   -2.7896 H        1 ZINC000004611821    0.0800
24     H24     0.0656   -3.8682    2.4091 H        1 ZINC000004611821    0.1600
25     H25     0.0598   -2.6415    4.5237 H        1 ZINC000004611821    0.1500
26     H26     0.0001    1.0794    2.4273 H        1 ZINC000004611821    0.1500
@<TRIPOS>BOND
1     1     2     1
2     1     17    1
3     1     18    1
4     1     19    1
5     2     16    1
6     2     3     1
7     3     4     2
8     3     20    1
9     4     5     1
10    4     8     1
11    5     6     1
12    5     7     2
13    6     21    1
14    6     22    1
15    6     23    1
16    8     9     2
17    8     10    1
18    10    16    ar
19    10    11    ar
20    11    12    ar
21    11    24    1
22    12    13    ar
23    12    25    1
24    13    14    1
25    13    15    ar
26    15    16    ar
27    15    26    1
@<TRIPOS>SUBSTRUCTURE
1   ZINC000004611821 1     RESIDUE    1   A     ZIN   1
