@<TRIPOS>MOLECULE
ZINC000003951737
76    78    1     0     0
SMALL
USER_CHARGES
@<TRIPOS>ATOM
1      C1     -0.9589    0.6963    0.6318 C.3      1 ZINC000003951737   -0.1000
2      C2     -0.4210   -0.6976    0.4345 C.2      1 ZINC000003951737   -0.1000
3      C3     -0.1509   -1.4592    1.4862 C.2      1 ZINC000003951737   -0.1000
4      C4     -0.2120   -0.8877    2.8473 C.2      1 ZINC000003951737    0.1000
5      C5     -0.0564   -1.6304    3.9647 C.2      1 ZINC000003951737   -0.2600
6      S6     -0.2012   -0.5552    5.3528 S.3      1 ZINC000003951737    0.1300
7      C7     -0.4545    0.7767    4.3122 C.2      1 ZINC000003951737    0.0500
8      C8     -0.6821    2.1938    4.7716 C.3      1 ZINC000003951737   -0.0800
9      N9     -0.4190    0.4015    3.0811 N.2      1 ZINC000003951737   -0.4600
10     C10    -0.1899   -1.2265   -0.9588 C.3      1 ZINC000003951737    0.1400
11     H11     0.1128   -2.2705   -0.9019 H        1 ZINC000003951737    0.1000
12     C12     0.9087   -0.4138   -1.6451 C.3      1 ZINC000003951737   -0.1100
13     C13     2.2800   -0.8667   -1.1432 C.3      1 ZINC000003951737    0.0100
14     H14     2.2737   -1.5004   -0.2529 H        1 ZINC000003951737    0.1200
15     O15     3.3553    0.0711   -1.2684 O.3      1 ZINC000003951737   -0.3600
16     C16     3.4012   -1.0610   -2.1591 C.3      1 ZINC000003951737    0.0300
17     C17     4.4850   -2.0956   -1.8585 C.3      1 ZINC000003951737   -0.1300
18     C18     3.1307   -0.7642   -3.6321 C.3      1 ZINC000003951737   -0.1000
19     C19     2.8232   -2.0259   -4.4253 C.3      1 ZINC000003951737   -0.1200
20     C20     1.3148   -2.1985   -4.6236 C.3      1 ZINC000003951737   -0.1200
21     C21     1.0266   -2.4336   -6.1043 C.3      1 ZINC000003951737   -0.0900
22     H22     2.0086   -2.4798   -6.6254 H        1 ZINC000003951737    0.0800
23     C23     0.2648   -1.2536   -6.6969 C.3      1 ZINC000003951737   -0.1500
24     C24     0.3351   -3.7597   -6.3440 C.3      1 ZINC000003951737    0.1300
25     H25     0.6233   -4.4691   -5.5596 H        1 ZINC000003951737    0.0700
26     O26     0.7897   -4.2985   -7.6021 O.3      1 ZINC000003951737   -0.5700
27     C27    -1.1896   -3.6666   -6.3836 C.3      1 ZINC000003951737   -0.1600
28     H28    -1.5130   -2.9798   -7.1566 H        1 ZINC000003951737    0.1000
29     C29    -1.7284   -5.0663   -6.7466 C.3      1 ZINC000003951737   -0.1500
30     C30    -1.7276   -3.2766   -5.0370 C.2      1 ZINC000003951737    0.3800
31     O31    -1.0937   -3.5885   -4.0483 O.2      1 ZINC000003951737   -0.4100
32     C32    -3.0010   -2.4921   -4.8690 C.3      1 ZINC000003951737   -0.1000
33     C33    -2.6680   -1.0045   -4.7544 C.3      1 ZINC000003951737   -0.1500
34     C34    -3.9009   -2.6776   -6.0977 C.3      1 ZINC000003951737   -0.1500
35     C35    -3.7637   -2.9888   -3.6437 C.3      1 ZINC000003951737    0.1400
36     H36    -4.8364   -2.9884   -3.8959 H        1 ZINC000003951737    0.0700
37     O37    -3.3974   -4.3434   -3.3625 O.3      1 ZINC000003951737   -0.5400
38     C38    -3.5666   -2.1291   -2.4092 C.3      1 ZINC000003951737   -0.1500
39     C39    -2.1682   -2.2258   -1.8624 C.2      1 ZINC000003951737    0.4700
40     O40    -1.7111   -3.3011   -1.5522 O.2      1 ZINC000003951737   -0.4700
41     O41    -1.4241   -1.1189   -1.7150 O.3      1 ZINC000003951737   -0.3500
42     H42    -0.1315    1.3831    0.8102 H        1 ZINC000003951737    0.0700
43     H43    -1.5020    1.0059   -0.2611 H        1 ZINC000003951737    0.0600
44     H44    -1.6321    0.7080    1.4890 H        1 ZINC000003951737    0.0800
45     H45     0.1137   -2.4970    1.3476 H        1 ZINC000003951737    0.1300
46     H46     0.1244   -2.6945    4.0008 H        1 ZINC000003951737    0.1800
47     H47    -0.6596    2.2307    5.8608 H        1 ZINC000003951737    0.0800
48     H48     0.1016    2.8362    4.3701 H        1 ZINC000003951737    0.0900
49     H49    -1.6528    2.5394    4.4163 H        1 ZINC000003951737    0.0900
50     H50     0.8402   -0.5645   -2.7175 H        1 ZINC000003951737    0.1000
51     H51     0.7695    0.6458   -1.4226 H        1 ZINC000003951737    0.0900
52     H52     4.9550   -1.8622   -0.9031 H        1 ZINC000003951737    0.0700
53     H53     4.0366   -3.0879   -1.8101 H        1 ZINC000003951737    0.0800
54     H54     5.2364   -2.0745   -2.6478 H        1 ZINC000003951737    0.0700
55     H55     2.3006   -0.0589   -3.7176 H        1 ZINC000003951737    0.0800
56     H56     4.0186   -0.2873   -4.0606 H        1 ZINC000003951737    0.0700
57     H57     3.2947   -1.9463   -5.4090 H        1 ZINC000003951737    0.0700
58     H58     3.2138   -2.9191   -3.9335 H        1 ZINC000003951737    0.0700
59     H59     0.9773   -3.0564   -4.0449 H        1 ZINC000003951737    0.0800
60     H60     0.7889   -1.3075   -4.2866 H        1 ZINC000003951737    0.0700
61     H61     0.8277   -0.3357   -6.5274 H        1 ZINC000003951737    0.0600
62     H62     0.1336   -1.4068   -7.7681 H        1 ZINC000003951737    0.0600
63     H63    -0.7116   -1.1745   -6.2189 H        1 ZINC000003951737    0.0600
64     H64     0.3933   -5.1502   -7.8314 H        1 ZINC000003951737    0.3700
65     H65    -1.4095   -5.7853   -5.9919 H        1 ZINC000003951737    0.0600
66     H66    -2.8174   -5.0379   -6.7841 H        1 ZINC000003951737    0.0700
67     H67    -1.3389   -5.3643   -7.7200 H        1 ZINC000003951737    0.0700
68     H68    -2.2627   -0.6488   -5.7016 H        1 ZINC000003951737    0.0700
69     H69    -3.5733   -0.4469   -4.5143 H        1 ZINC000003951737    0.0700
70     H70    -1.9305   -0.8570   -3.9654 H        1 ZINC000003951737    0.0700
71     H71    -4.1443   -3.7337   -6.2137 H        1 ZINC000003951737    0.0700
72     H72    -4.8192   -2.1055   -5.9652 H        1 ZINC000003951737    0.0700
73     H73    -3.3785   -2.3252   -6.9872 H        1 ZINC000003951737    0.0700
74     H74    -3.8469   -4.7210   -2.5940 H        1 ZINC000003951737    0.3800
75     H75    -3.8512   -1.0904   -2.5683 H        1 ZINC000003951737    0.1100
76     H76    -4.2446   -2.5118   -1.6211 H        1 ZINC000003951737    0.1000
@<TRIPOS>BOND
1     1     2     1
2     1     42    1
3     1     43    1
4     1     44    1
5     2     3     2
6     2     10    1
7     3     4     1
8     3     45    1
9     4     9     1
10    4     5     2
11    5     6     1
12    5     46    1
13    6     7     1
14    7     8     1
15    7     9     2
16    8     47    1
17    8     48    1
18    8     49    1
19    10    11    1
20    10    41    1
21    10    12    1
22    12    13    1
23    12    50    1
24    12    51    1
25    13    14    1
26    13    16    1
27    13    15    1
28    15    16    1
29    16    17    1
30    16    18    1
31    17    52    1
32    17    53    1
33    17    54    1
34    18    19    1
35    18    55    1
36    18    56    1
37    19    20    1
38    19    57    1
39    19    58    1
40    20    21    1
41    20    59    1
42    20    60    1
43    21    22    1
44    21    23    1
45    21    24    1
46    23    61    1
47    23    62    1
48    23    63    1
49    24    25    1
50    24    26    1
51    24    27    1
52    26    64    1
53    27    28    1
54    27    29    1
55    27    30    1
56    29    65    1
57    29    66    1
58    29    67    1
59    30    31    2
60    30    32    1
61    32    33    1
62    32    34    1
63    32    35    1
64    33    68    1
65    33    69    1
66    33    70    1
67    34    71    1
68    34    72    1
69    34    73    1
70    35    36    1
71    35    37    1
72    35    38    1
73    37    74    1
74    38    39    1
75    38    75    1
76    38    76    1
77    39    40    2
78    39    41    1
@<TRIPOS>SUBSTRUCTURE
1   ZINC000003951737 1     RESIDUE    1   A     ZIN   1
