@<TRIPOS>MOLECULE
ZINC000000164388
  21   21    0    0    0
SMALL
USER_CHARGES
NO_NAME
@<TRIPOS>ATOM
    1 C1       -0.0173     1.4248     0.0099 C.3    1 <0>       0.0200
    2 O2        0.0021    -0.0041     0.0020 O.3    1 <0>      -0.3100
    3 C3        0.6262    -0.6188     1.0422 C.ar   1 <0>       0.1000
    4 C4        1.2019     0.1365     2.0506 C.ar   1 <0>      -0.1800
    5 C5        1.8358    -0.4901     3.1079 C.ar   1 <0>      -0.0600
    6 C6        2.4616     0.3332     4.2041 C.3    1 <0>       0.1200
    7 O7        1.4976     0.5685     5.2324 O.3    1 <0>      -0.5700
    8 C8        1.8964    -1.8699     3.1617 C.ar   1 <0>      -0.1200
    9 C9        1.3241    -2.6298     2.1580 C.ar   1 <0>      -0.1100
   10 C10       0.6830    -2.0084     1.0988 C.ar   1 <0>       0.0800
   11 O11       0.1197    -2.7543     0.1110 O.3    1 <0>      -0.4900
   12 H12       1.0053     1.8021     0.0021 H      1 <0>       0.0600
   13 H13      -0.5445     1.7859    -0.8732 H      1 <0>       0.1000
   14 H14      -0.5275     1.7763     0.9067 H      1 <0>       0.0600
   15 H15       1.1560     1.2148     2.0110 H      1 <0>       0.1300
   16 H16       3.3135    -0.2041     4.6208 H      1 <0>       0.0600
   17 H17       2.7975     1.2864     3.7959 H      1 <0>       0.0600
   18 H18       1.8320     1.0938     5.9722 H      1 <0>       0.3800
   19 H19       2.3920    -2.3556     3.9892 H      1 <0>       0.1300
   20 H20       1.3734    -3.7078     2.2020 H      1 <0>       0.1400
   21 H21      -0.8039    -2.9899     0.2740 H      1 <0>       0.3900
@<TRIPOS>BOND
   1    1    2 1
   2    1   12 1
   3    1   13 1
   4    1   14 1
   5    2    3 1
   6    3   10 ar
   7    3    4 ar
   8    4    5 ar
   9    4   15 1
  10    5    6 1
  11    5    8 ar
  12    6    7 1
  13    6   16 1
  14    6   17 1
  15    7   18 1
  16    8    9 ar
  17    8   19 1
  18    9   10 ar
  19    9   20 1
  20   10   11 1
  21   11   21 1
