@<TRIPOS>MOLECULE
ZINC000002039311
  26   26    0    0    0
SMALL
USER_CHARGES
NO_NAME
@<TRIPOS>ATOM
    1 C1       -0.0176     1.4478     0.0100 C.3    1 <0>       0.0300
    2 O2        0.0021    -0.0041     0.0020 O.3    1 <0>      -0.3600
    3 C3        0.6181    -0.6108     1.0287 C.2    1 <0>       0.4700
    4 O4        1.1242     0.0494     1.9050 O.2    1 <0>      -0.5000
    5 C5        0.6786    -2.1154     1.0883 C.3    1 <0>      -0.0800
    6 H6       -0.3334    -2.5196     1.1129 H      1 <0>       0.1200
    7 C7        1.4323    -2.5471     2.3493 C.3    1 <0>      -0.1100
    8 C8        1.5415    -4.0743     2.3715 C.3    1 <0>      -0.1200
    9 C9        2.2499    -4.5487     1.1006 C.3    1 <0>       0.0500
   10 N10       1.4897    -4.1114    -0.0773 N.3    1 <0>      -0.5400
   11 C11       2.0642    -4.6660    -1.3103 C.3    1 <0>       0.0200
   12 C12       1.4111    -2.6466    -0.1459 C.3    1 <0>       0.0600
   13 H13       1.0050     1.8251     0.0023 H      1 <0>       0.0600
   14 H14      -0.5448     1.8089    -0.8731 H      1 <0>       0.1000
   15 H15      -0.5278     1.7993     0.9068 H      1 <0>       0.0600
   16 H16       2.4311    -2.1106     2.3442 H      1 <0>       0.0700
   17 H17       0.8901    -2.2079     3.2319 H      1 <0>       0.0800
   18 H18       2.1143    -4.3855     3.2451 H      1 <0>       0.0800
   19 H19       0.5433    -4.5099     2.4159 H      1 <0>       0.0800
   20 H20       3.2529    -4.1237     1.0637 H      1 <0>       0.0400
   21 H21       2.3165    -5.6366     1.1065 H      1 <0>       0.0800
   22 H22       1.9776    -5.7525    -1.2948 H      1 <0>       0.0700
   23 H23       1.5258    -4.2709    -2.1718 H      1 <0>       0.0700
   24 H24       3.1154    -4.3863    -1.3792 H      1 <0>       0.0300
   25 H25       0.8691    -2.3537    -1.0450 H      1 <0>       0.0900
   26 H26       2.4179    -2.2300    -0.1769 H      1 <0>       0.0400
@<TRIPOS>BOND
   1    1    2 1
   2    1   13 1
   3    1   14 1
   4    1   15 1
   5    2    3 1
   6    3    4 2
   7    3    5 1
   8    5    6 1
   9    5   12 1
  10    5    7 1
  11    7    8 1
  12    7   16 1
  13    7   17 1
  14    8    9 1
  15    8   18 1
  16    8   19 1
  17    9   10 1
  18    9   20 1
  19    9   21 1
  20   10   11 1
  21   10   12 1
  22   11   22 1
  23   11   23 1
  24   11   24 1
  25   12   25 1
  26   12   26 1
