@<TRIPOS>MOLECULE
ZINC000003643198
  53   55    0    0    0
SMALL
USER_CHARGES
NO_NAME
@<TRIPOS>ATOM
    1 C1        0.1231     1.4448    -0.0466 C.3    1 <0>       0.0200
    2 N2        0.1226    -0.0242    -0.0536 N.3    1 <0>      -0.5300
    3 C3        0.8539    -0.5563     1.1040 C.3    1 <0>       0.0200
    4 C4       -1.2483    -0.5500    -0.0974 C.3    1 <0>       0.0600
    5 C5       -1.8942    -0.1794    -1.4340 C.3    1 <0>       0.0600
    6 O6       -1.2024    -0.8387    -2.4964 O.3    1 <0>      -0.3400
    7 C7       -1.7976    -0.6515    -3.7820 C.3    1 <0>       0.1600
    8 C8       -1.7824     0.8074    -4.1592 C.ar   1 <0>      -0.1000
    9 C9       -2.8137     1.3374    -4.9119 C.ar   1 <0>      -0.1200
   10 C10      -2.7998     2.6757    -5.2580 C.ar   1 <0>      -0.1200
   11 C11      -1.7550     3.4841    -4.8510 C.ar   1 <0>      -0.1200
   12 C12      -0.7242     2.9543    -4.0975 C.ar   1 <0>      -0.1200
   13 C13      -0.7402     1.6170    -3.7478 C.ar   1 <0>      -0.1000
   14 C14      -3.2435    -1.1981    -3.7912 C.3    1 <0>      -0.1500
   15 C15      -3.2324    -2.3239    -4.8700 C.3    1 <0>      -0.0900
   16 H16      -4.0384    -3.0548    -4.8042 H      1 <0>       0.1000
   17 C17      -3.1105    -1.5639    -6.2260 C.3    1 <0>      -0.1200
   18 C18      -1.6700    -1.0032    -6.2316 C.3    1 <0>      -0.1300
   19 C19      -1.0491    -1.4985    -4.8560 C.3    1 <0>      -0.0300
   20 C20       0.4786    -1.4934    -4.7715 C.3    1 <0>      -0.1200
   21 C21      -1.7755    -2.8803    -4.6937 C.3    1 <0>      -0.0600
   22 C22      -1.5419    -3.4923    -3.3110 C.3    1 <0>      -0.1400
   23 C23      -1.4106    -3.8555    -5.8147 C.3    1 <0>      -0.1400
   24 H24       1.1501     1.8080    -0.0848 H      1 <0>       0.0700
   25 H25      -0.4249     1.8124    -0.9142 H      1 <0>       0.0700
   26 H26      -0.3557     1.8040     0.8644 H      1 <0>       0.0200
   27 H27       0.3400    -0.2695     2.0215 H      1 <0>       0.0200
   28 H28       0.8984    -1.6434     1.0372 H      1 <0>       0.0700
   29 H29       1.8657    -0.1510     1.1123 H      1 <0>       0.0700
   30 H30      -1.2249    -1.6348     0.0064 H      1 <0>       0.0800
   31 H31      -1.8289    -0.1194     0.7185 H      1 <0>       0.0500
   32 H32      -2.9386    -0.4915    -1.4317 H      1 <0>       0.0500
   33 H33      -1.8378     0.8995    -1.5780 H      1 <0>       0.0500
   34 H34      -3.6300     0.7058    -5.2299 H      1 <0>       0.1300
   35 H35      -3.6052     3.0896    -5.8467 H      1 <0>       0.1200
   36 H36      -1.7438     4.5295    -5.1220 H      1 <0>       0.1200
   37 H37       0.0923     3.5858    -3.7798 H      1 <0>       0.1200
   38 H38       0.0651     1.2031    -3.1591 H      1 <0>       0.1300
   39 H39      -3.5003    -1.6097    -2.8151 H      1 <0>       0.0800
   40 H40      -3.9452    -0.4119    -4.0696 H      1 <0>       0.0800
   41 H41      -3.2543    -2.2502    -7.0605 H      1 <0>       0.0700
   42 H42      -3.8349    -0.7508    -6.2724 H      1 <0>       0.0600
   43 H43      -1.1056    -1.4138    -7.0688 H      1 <0>       0.0700
   44 H44      -1.6862     0.0856    -6.2807 H      1 <0>       0.0800
   45 H45       0.8465    -0.4761    -4.9050 H      1 <0>       0.0600
   46 H46       0.7897    -1.8671    -3.7960 H      1 <0>       0.0700
   47 H47       0.8879    -2.1334    -5.5532 H      1 <0>       0.0600
   48 H48      -1.9223    -2.8162    -2.5454 H      1 <0>       0.0700
   49 H49      -2.0630    -4.4474    -3.2437 H      1 <0>       0.0500
   50 H50      -0.4741    -3.6495    -3.1589 H      1 <0>       0.0600
   51 H51      -0.3353    -4.0335    -5.8059 H      1 <0>       0.0600
   52 H52      -1.9362    -4.7981    -5.6617 H      1 <0>       0.0500
   53 H53      -1.7005    -3.4297    -6.7754 H      1 <0>       0.0600
@<TRIPOS>BOND
   1    1    2 1
   2    1   24 1
   3    1   25 1
   4    1   26 1
   5    2    3 1
   6    2    4 1
   7    3   27 1
   8    3   28 1
   9    3   29 1
  10    4    5 1
  11    4   30 1
  12    4   31 1
  13    5    6 1
  14    5   32 1
  15    5   33 1
  16    6    7 1
  17    7   19 1
  18    7    8 1
  19    7   14 1
  20    8   13 ar
  21    8    9 ar
  22    9   10 ar
  23    9   34 1
  24   10   11 ar
  25   10   35 1
  26   11   12 ar
  27   11   36 1
  28   12   13 ar
  29   12   37 1
  30   13   38 1
  31   14   15 1
  32   14   39 1
  33   14   40 1
  34   15   16 1
  35   15   21 1
  36   15   17 1
  37   17   18 1
  38   17   41 1
  39   17   42 1
  40   18   19 1
  41   18   43 1
  42   18   44 1
  43   19   20 1
  44   19   21 1
  45   20   45 1
  46   20   46 1
  47   20   47 1
  48   21   22 1
  49   21   23 1
  50   22   48 1
  51   22   49 1
  52   22   50 1
  53   23   51 1
  54   23   52 1
  55   23   53 1
