@<TRIPOS>MOLECULE
ZINC000096928979
76    82    1     0     0
SMALL
USER_CHARGES
@<TRIPOS>ATOM
1      C1      2.5855   -1.6886    1.4807 C.3      1 ZINC000096928979    0.0800
2      N2      1.3452   -1.5397    0.7154 N.pl3    1 ZINC000096928979   -0.4900
3      C3      1.1516   -1.8888   -0.6079 C.ar     1 ZINC000096928979    0.0600
4      C4      1.9605   -2.4418   -1.5836 C.ar     1 ZINC000096928979   -0.1200
5      C5      1.4402   -2.6749   -2.8596 C.ar     1 ZINC000096928979   -0.0100
6      C6      2.2909   -3.2617   -3.9026 C.2      1 ZINC000096928979   -0.1200
7      C7      1.7877   -3.4877   -5.1386 C.2      1 ZINC000096928979   -0.1600
8      C8      2.6066   -4.0526   -6.1428 C.2      1 ZINC000096928979    0.5000
9      O9      3.7721   -4.3377   -5.8943 O.co2    1 ZINC000096928979   -0.7000
10     O10     2.1511   -4.2572   -7.2617 O.co2    1 ZINC000096928979   -0.7000
11     C11     0.1044   -2.3487   -3.1449 C.ar     1 ZINC000096928979   -0.1200
12     C12    -0.6935   -1.8039   -2.1860 C.ar     1 ZINC000096928979   -0.0600
13     C13    -0.1865   -1.5644   -0.9026 C.ar     1 ZINC000096928979    0.0400
14     N14    -0.7243   -1.0471    0.2288 N.2      1 ZINC000096928979   -0.4600
15     C15     0.1695   -1.0380    1.1760 C.2      1 ZINC000096928979    0.2700
16     C16    -0.0634   -0.5341    2.5770 C.3      1 ZINC000096928979    0.2300
17     N17     0.7235    0.6614    2.8898 N.am     1 ZINC000096928979   -0.7100
18     C18     0.4880    1.8142    2.2324 C.2      1 ZINC000096928979    0.5600
19     O19    -0.3124    1.8397    1.3175 O.2      1 ZINC000096928979   -0.5000
20     C20     1.2020    3.0458    2.6231 C.ar     1 ZINC000096928979   -0.1100
21     C21     2.1286    3.0116    3.6748 C.ar     1 ZINC000096928979   -0.1200
22     C22     2.7938    4.1402    4.0452 C.ar     1 ZINC000096928979   -0.0600
23     C23     2.5550    5.3476    3.3738 C.ar     1 ZINC000096928979   -0.0900
24     C24     1.6254    5.3917    2.3147 C.ar     1 ZINC000096928979    0.1000
25     C25     0.9563    4.2354    1.9416 C.ar     1 ZINC000096928979   -0.0500
26     N26     1.5966    6.6887    1.8493 N.pl3    1 ZINC000096928979   -0.4500
27     C27     0.7637    7.1819    0.7497 C.3      1 ZINC000096928979    0.0700
28     C28     2.4783    7.4443    2.5874 C.2      1 ZINC000096928979    0.1000
29     C29     2.7366    8.8870    2.3959 C.ar     1 ZINC000096928979    0.4000
30     N30     3.6201    9.4966    3.1771 N.ar     1 ZINC000096928979   -0.4900
31     C31     3.8745   10.7850    3.0317 C.ar     1 ZINC000096928979    0.2000
32     C32     3.2053   11.5007    2.0483 C.ar     1 ZINC000096928979   -0.2200
33     Br33    3.5367   13.3462    1.8024 Br       1 ZINC000096928979   -0.0100
34     C34     2.2880   10.8324    1.2489 C.ar     1 ZINC000096928979    0.1900
35     N35     2.0837    9.5415    1.4431 N.ar     1 ZINC000096928979   -0.5100
36     C36     3.0734    6.6572    3.5188 C.2      1 ZINC000096928979   -0.0700
37     C37     4.1022    7.0983    4.5278 C.3      1 ZINC000096928979   -0.0400
38     C38     3.6454    6.7340    5.9623 C.3      1 ZINC000096928979   -0.1200
39     C39     4.9822    6.6778    6.7427 C.3      1 ZINC000096928979   -0.1200
40     C40     5.9756    6.0451    5.7464 C.3      1 ZINC000096928979   -0.1200
41     C41     5.4160    6.3124    4.3382 C.3      1 ZINC000096928979   -0.1200
42     C42    -1.5507   -0.4092    2.9475 C.3      1 ZINC000096928979   -0.1100
43     C43    -1.1706   -0.9570    4.3332 C.3      1 ZINC000096928979   -0.1400
44     C44     0.0307   -1.6316    3.6501 C.3      1 ZINC000096928979   -0.1300
45     H45     2.5623   -2.6294    2.0306 H        1 ZINC000096928979    0.0700
46     H46     3.4357   -1.6874    0.7985 H        1 ZINC000096928979    0.0800
47     H47     2.6813   -0.8599    2.1822 H        1 ZINC000096928979    0.0800
48     H48     2.9874   -2.6916   -1.3612 H        1 ZINC000096928979    0.1200
49     H49     3.3182   -3.5130   -3.6836 H        1 ZINC000096928979    0.1300
50     H50     0.7604   -3.2363   -5.3576 H        1 ZINC000096928979    0.1000
51     H51    -0.2927   -2.5312   -4.1326 H        1 ZINC000096928979    0.1300
52     H52    -1.7193   -1.5558   -2.4153 H        1 ZINC000096928979    0.1300
53     H53     1.4140    0.6233    3.5699 H        1 ZINC000096928979    0.4000
54     H54     2.3157    2.0837    4.1948 H        1 ZINC000096928979    0.1300
55     H55     3.5055    4.1055    4.8568 H        1 ZINC000096928979    0.1300
56     H56     0.2426    4.2591    1.1314 H        1 ZINC000096928979    0.1400
57     H57    -0.1921    7.5267    1.1442 H        1 ZINC000096928979    0.0700
58     H58     1.2709    8.0086    0.2522 H        1 ZINC000096928979    0.1100
59     H59     0.5926    6.3774    0.0344 H        1 ZINC000096928979    0.0800
60     H60     4.5940   11.2755    3.6705 H        1 ZINC000096928979    0.1800
61     H61     1.7505   11.3604    0.4751 H        1 ZINC000096928979    0.1800
62     H62     4.2830    8.1698    4.4434 H        1 ZINC000096928979    0.1200
63     H63     2.9934    7.5075    6.3682 H        1 ZINC000096928979    0.0600
64     H64     3.1496    5.7634    5.9751 H        1 ZINC000096928979    0.0700
65     H65     5.3055    7.6816    7.0184 H        1 ZINC000096928979    0.0600
66     H66     4.8803    6.0519    7.6293 H        1 ZINC000096928979    0.0600
67     H67     6.9566    6.5081    5.8525 H        1 ZINC000096928979    0.0600
68     H68     6.0478    4.9718    5.9219 H        1 ZINC000096928979    0.0600
69     H69     5.2167    5.3688    3.8302 H        1 ZINC000096928979    0.0600
70     H70     6.1256    6.9051    3.7608 H        1 ZINC000096928979    0.0600
71     H71    -1.9106    0.6195    2.9683 H        1 ZINC000096928979    0.0800
72     H72    -2.1998   -1.0743    2.3780 H        1 ZINC000096928979    0.1000
73     H73    -0.8890   -0.1826    5.0467 H        1 ZINC000096928979    0.0800
74     H74    -1.8960   -1.6630    4.7376 H        1 ZINC000096928979    0.0800
75     H75    -0.1861   -2.6309    3.2727 H        1 ZINC000096928979    0.1000
76     H76     0.9475   -1.5898    4.2382 H        1 ZINC000096928979    0.0800
@<TRIPOS>BOND
1     1     2     1
2     1     45    1
3     1     46    1
4     1     47    1
5     2     15    1
6     2     3     1
7     3     13    ar
8     3     4     ar
9     4     5     ar
10    4     48    1
11    5     6     1
12    5     11    ar
13    6     7     2
14    6     49    1
15    7     8     1
16    7     50    1
17    8     9     ar
18    8     10    ar
19    11    12    ar
20    11    51    1
21    12    13    ar
22    12    52    1
23    13    14    1
24    14    15    2
25    15    16    1
26    16    44    1
27    16    17    1
28    16    42    1
29    17    18    am
30    17    53    1
31    18    19    2
32    18    20    1
33    20    25    ar
34    20    21    ar
35    21    22    ar
36    21    54    1
37    22    23    ar
38    22    55    1
39    23    36    1
40    23    24    ar
41    24    25    ar
42    24    26    1
43    25    56    1
44    26    27    1
45    26    28    1
46    27    57    1
47    27    58    1
48    27    59    1
49    28    29    1
50    28    36    2
51    29    35    ar
52    29    30    ar
53    30    31    ar
54    31    32    ar
55    31    60    1
56    32    33    1
57    32    34    ar
58    34    35    ar
59    34    61    1
60    36    37    1
61    37    41    1
62    37    38    1
63    37    62    1
64    38    39    1
65    38    63    1
66    38    64    1
67    39    40    1
68    39    65    1
69    39    66    1
70    40    41    1
71    40    67    1
72    40    68    1
73    41    69    1
74    41    70    1
75    42    43    1
76    42    71    1
77    42    72    1
78    43    44    1
79    43    73    1
80    43    74    1
81    44    75    1
82    44    76    1
@<TRIPOS>SUBSTRUCTURE
1   ZINC000096928979 1     RESIDUE    1   A     ZIN   1
