@<TRIPOS>MOLECULE
ZINC000017174165
  28   29    0    0    0
SMALL
USER_CHARGES
NO_NAME
@<TRIPOS>ATOM
    1 O1        0.0021    -0.0041     0.0020 O.2    1 <0>      -0.5100
    2 C2       -0.0144     1.2136     0.0087 C.2    1 <0>       0.5500
    3 C3       -1.2461     1.9113     0.0302 C.2    1 <0>      -0.2800
    4 C4       -1.2363     3.2615     0.0376 C.2    1 <0>       0.1700
    5 N5       -0.0428     3.9305     0.0245 N.am   1 <0>      -0.5300
    6 C6       -0.0320     5.3955     0.0326 C.3    1 <0>       0.2800
    7 H7       -1.0507     5.7739    -0.0526 H      1 <0>       0.1300
    8 O8        0.7641     5.8845    -1.0598 O.3    1 <0>      -0.3400
    9 C9        1.4039     7.0964    -0.6056 C.3    1 <0>       0.1000
   10 H10       0.7048     7.9323    -0.6311 H      1 <0>       0.1000
   11 C11       2.6397     7.4037    -1.4538 C.3    1 <0>       0.0900
   12 O12       2.2356     7.7168    -2.7883 O.3    1 <0>      -0.5700
   13 C13       1.8078     6.7670     0.8541 C.3    1 <0>       0.0600
   14 H14       2.7349     6.1944     0.8814 H      1 <0>       0.1100
   15 O15       1.9247     7.9597     1.6324 O.3    1 <0>      -0.5500
   16 C16       0.6098     5.9075     1.3366 C.3    1 <0>       0.0200
   17 H17      -0.0964     6.5187     1.8987 H      1 <0>       0.1300
   18 F18       1.0583     4.8368     2.1174 F      1 <0>      -0.1800
   19 C19       1.1209     3.2557     0.0046 C.2    1 <0>       0.7100
   20 O20       2.1700     3.8702    -0.0065 O.2    1 <0>      -0.5200
   21 N21       1.1403     1.9098     0.0014 N.am   1 <0>      -0.6600
   22 H22      -2.1811     1.3708     0.0400 H      1 <0>       0.1800
   23 H23      -2.1661     3.8107     0.0536 H      1 <0>       0.1800
   24 H24       3.1716     8.2537    -1.0264 H      1 <0>       0.0700
   25 H25       3.2963     6.5338    -1.4677 H      1 <0>       0.0600
   26 H26       2.9695     7.9227    -3.3833 H      1 <0>       0.3900
   27 H27       2.1757     7.8053     2.5534 H      1 <0>       0.3900
   28 H28       1.9882     1.4389    -0.0127 H      1 <0>       0.4300
@<TRIPOS>BOND
   1    1    2 2
   2    2   21 am
   3    2    3 1
   4    3    4 2
   5    3   22 1
   6    4    5 1
   7    4   23 1
   8    5    6 1
   9    5   19 am
  10    6    7 1
  11    6   16 1
  12    6    8 1
  13    8    9 1
  14    9   10 1
  15    9   11 1
  16    9   13 1
  17   11   12 1
  18   11   24 1
  19   11   25 1
  20   12   26 1
  21   13   14 1
  22   13   15 1
  23   13   16 1
  24   15   27 1
  25   16   17 1
  26   16   18 1
  27   19   20 2
  28   19   21 am
  29   21   28 1
