@<TRIPOS>MOLECULE
ZINC000113676839
59    62    1     0     0
SMALL
USER_CHARGES
@<TRIPOS>ATOM
1      C1     -0.9856    1.3902    2.9299 C.3      1 ZINC000113676839    0.1100
2      N2     -0.9452   -0.0738    2.8932 N.pl3    1 ZINC000113676839   -0.7000
3      C3      0.1690   -0.7231    2.3899 C.ar     1 ZINC000113676839    0.5700
4      N4      0.1740   -2.0517    2.3648 N.ar     1 ZINC000113676839   -0.5500
5      C5      1.2124   -2.7309    1.8945 C.ar     1 ZINC000113676839    0.3000
6      C6      1.2041   -4.2112    1.8721 C.ar     1 ZINC000113676839   -0.0300
7      C7      2.3282   -4.9237    2.2913 C.ar     1 ZINC000113676839   -0.1100
8      C8      2.3183   -6.3039    2.2696 C.ar     1 ZINC000113676839   -0.1000
9      C9      1.1976   -6.9847    1.8331 C.ar     1 ZINC000113676839   -0.1300
10     C10     0.0728   -6.2838    1.4134 C.ar     1 ZINC000113676839    0.1400
11     N11    -1.0590   -6.9770    0.9724 N.am     1 ZINC000113676839   -0.6700
12     C12    -1.8326   -6.4549    0.0001 C.2      1 ZINC000113676839    0.5600
13     O13    -1.4954   -5.4306   -0.5605 O.2      1 ZINC000113676839   -0.5000
14     C14    -3.0927   -7.1290   -0.3850 C.ar     1 ZINC000113676839   -0.1000
15     C15    -3.4827   -8.3022    0.2628 C.ar     1 ZINC000113676839   -0.1000
16     C16    -4.6559   -8.9300   -0.0956 C.ar     1 ZINC000113676839   -0.0600
17     C17    -5.4544   -8.3924   -1.1067 C.ar     1 ZINC000113676839   -0.1000
18     C18    -6.7141   -9.0658   -1.4912 C.2      1 ZINC000113676839    0.5100
19     O19    -7.0536  -10.0864   -0.9273 O.2      1 ZINC000113676839   -0.5000
20     O20    -7.4844   -8.5471   -2.4667 O.3      1 ZINC000113676839   -0.3500
21     C21    -8.7064   -9.2610   -2.7915 C.3      1 ZINC000113676839    0.0400
22     C22    -5.0642   -7.2189   -1.7545 C.ar     1 ZINC000113676839   -0.0700
23     C23    -3.8938   -6.5883   -1.3920 C.ar     1 ZINC000113676839   -0.0700
24     C24     0.0711   -4.8977    1.4375 C.ar     1 ZINC000113676839   -0.0700
25     C25     2.3281   -2.0040    1.4141 C.ar     1 ZINC000113676839   -0.1900
26     C26     3.4638   -2.6434    0.9009 C.ar     1 ZINC000113676839   -0.1400
27     C27     4.5128   -1.8941    0.4501 C.ar     1 ZINC000113676839    0.1000
28     O28     5.6160   -2.5134   -0.0484 O.3      1 ZINC000113676839   -0.3000
29     C29     5.6046   -3.9422   -0.0682 C.3      1 ZINC000113676839    0.0200
30     C30     4.4650   -0.4929    0.4950 C.ar     1 ZINC000113676839    0.1700
31     O31     5.5218    0.2288    0.0392 O.3      1 ZINC000113676839   -0.3000
32     C32     5.4147    1.6520    0.1108 C.3      1 ZINC000113676839    0.0200
33     C33     3.3689    0.1559    0.9908 C.ar     1 ZINC000113676839   -0.2000
34     C34     2.2779   -0.5872    1.4608 C.ar     1 ZINC000113676839    0.2300
35     N35     1.1789    0.0035    1.9505 N.ar     1 ZINC000113676839   -0.5700
36     H36    -0.8876    1.7818    1.9174 H        1 ZINC000113676839    0.0600
37     H37    -1.9344    1.7169    3.3555 H        1 ZINC000113676839    0.0800
38     H38    -0.1650    1.7611    3.5439 H        1 ZINC000113676839    0.0600
39     H39    -1.6992   -0.5881    3.2216 H        1 ZINC000113676839    0.4100
40     H40     3.2061   -4.3953    2.6325 H        1 ZINC000113676839    0.1300
41     H41     3.1893   -6.8536    2.5945 H        1 ZINC000113676839    0.1400
42     H42     1.1958   -8.0646    1.8176 H        1 ZINC000113676839    0.1300
43     H43    -1.2872   -7.8335    1.3664 H        1 ZINC000113676839    0.4100
44     H44    -2.8647   -8.7182    1.0448 H        1 ZINC000113676839    0.1400
45     H45    -4.9574   -9.8379    0.4055 H        1 ZINC000113676839    0.1500
46     H46    -8.4609  -10.2715   -3.1183 H        1 ZINC000113676839    0.0700
47     H47    -9.3444   -9.3095   -1.9091 H        1 ZINC000113676839    0.0700
48     H48    -9.2312   -8.7381   -3.5910 H        1 ZINC000113676839    0.1100
49     H49    -5.6817   -6.8031   -2.5370 H        1 ZINC000113676839    0.1500
50     H50    -3.5919   -5.6805   -1.8931 H        1 ZINC000113676839    0.1500
51     H51    -0.8017   -4.3512    1.1119 H        1 ZINC000113676839    0.1400
52     H52     3.5097   -3.7217    0.8624 H        1 ZINC000113676839    0.1500
53     H53     6.5416   -4.3073   -0.4888 H        1 ZINC000113676839    0.1000
54     H54     5.4916   -4.3187    0.9485 H        1 ZINC000113676839    0.0600
55     H55     4.7719   -4.2906   -0.6792 H        1 ZINC000113676839    0.0600
56     H56     5.2795    1.9544    1.1492 H        1 ZINC000113676839    0.0600
57     H57     6.3240    2.1051   -0.2842 H        1 ZINC000113676839    0.1100
58     H58     4.5589    1.9820   -0.4781 H        1 ZINC000113676839    0.0600
59     H59     3.3440    1.2352    1.0205 H        1 ZINC000113676839    0.1500
@<TRIPOS>BOND
1     1     2     1
2     1     36    1
3     1     37    1
4     1     38    1
5     2     3     1
6     2     39    1
7     3     35    ar
8     3     4     ar
9     4     5     ar
10    5     6     1
11    5     25    ar
12    6     24    ar
13    6     7     ar
14    7     8     ar
15    7     40    1
16    8     9     ar
17    8     41    1
18    9     10    ar
19    9     42    1
20    10    11    1
21    10    24    ar
22    11    12    am
23    11    43    1
24    12    13    2
25    12    14    1
26    14    23    ar
27    14    15    ar
28    15    16    ar
29    15    44    1
30    16    17    ar
31    16    45    1
32    17    18    1
33    17    22    ar
34    18    19    2
35    18    20    1
36    20    21    1
37    21    46    1
38    21    47    1
39    21    48    1
40    22    23    ar
41    22    49    1
42    23    50    1
43    24    51    1
44    25    34    ar
45    25    26    ar
46    26    27    ar
47    26    52    1
48    27    28    1
49    27    30    ar
50    28    29    1
51    29    53    1
52    29    54    1
53    29    55    1
54    30    31    1
55    30    33    ar
56    31    32    1
57    32    56    1
58    32    57    1
59    32    58    1
60    33    34    ar
61    33    59    1
62    34    35    ar
@<TRIPOS>SUBSTRUCTURE
1   ZINC000113676839 1     RESIDUE    1   A     ZIN   1
