@<TRIPOS>MOLECULE
ZINC000003831243
46    49    1     0     0
SMALL
USER_CHARGES
@<TRIPOS>ATOM
1      C1     -0.0184    1.5028    0.0103 C.3      1 ZINC000003831243   -0.0900
2      C2      0.0021   -0.0041    0.0020 C.2      1 ZINC000003831243    0.0300
3      C3     -1.0865   -0.8393    0.0024 C.2      1 ZINC000003831243   -0.2500
4      C4     -2.5160   -0.4850    0.0101 C.2      1 ZINC000003831243    0.6100
5      O5     -3.1105   -0.3331   -1.0400 O.2      1 ZINC000003831243   -0.5100
6      N6     -3.1654   -0.3291    1.1808 N.am     1 ZINC000003831243   -0.7000
7      C7     -4.5873    0.0233    1.1884 C.3      1 ZINC000003831243    0.0900
8      H8     -5.1067   -0.2865    0.2816 H        1 ZINC000003831243    0.1500
9      C9     -4.8573    1.4599    1.5851 C.2      1 ZINC000003831243    0.4900
10     O10    -4.5241    2.5360    1.1356 O.2      1 ZINC000003831243   -0.4300
11     N11    -5.6240    1.0693    2.6479 N.am     1 ZINC000003831243   -0.4800
12     C12    -5.3127   -0.3689    2.4788 C.3      1 ZINC000003831243    0.1000
13     H13    -4.6891   -0.8191    3.2511 H        1 ZINC000003831243    0.1400
14     S14    -6.9357   -1.1820    2.2369 S.3      1 ZINC000003831243   -0.2900
15     C15    -7.9030    0.1724    3.0271 C.3      1 ZINC000003831243    0.0300
16     C16    -9.3194    0.2520    2.4539 C.3      1 ZINC000003831243   -0.1200
17     C17    -7.9314    0.0206    4.5493 C.3      1 ZINC000003831243   -0.1300
18     C18    -7.0508    1.3986    2.5808 C.3      1 ZINC000003831243    0.0200
19     H19    -7.3260    1.6775    1.5636 H        1 ZINC000003831243    0.0800
20     C20    -7.3228    2.5571    3.5054 C.2      1 ZINC000003831243    0.5100
21     O21    -6.4619    2.9312    4.2835 O.co2    1 ZINC000003831243   -0.6600
22     O22    -8.4038    3.1203    3.4755 O.co2    1 ZINC000003831243   -0.6800
23     C23    -0.4699   -2.1825   -0.0077 C.2      1 ZINC000003831243    0.1000
24     C24    -1.1639   -3.4934   -0.0117 C.ar     1 ZINC000003831243   -0.0300
25     C25    -2.3637   -3.6517    0.6796 C.ar     1 ZINC000003831243   -0.0900
26     C26    -3.0053   -4.8736    0.6720 C.ar     1 ZINC000003831243   -0.1100
27     C27    -2.4595   -5.9400   -0.0195 C.ar     1 ZINC000003831243   -0.1000
28     C28    -1.2689   -5.7886   -0.7073 C.ar     1 ZINC000003831243   -0.1200
29     C29    -0.6216   -4.5697   -0.7114 C.ar     1 ZINC000003831243   -0.0900
30     N30     0.8206   -1.9653   -0.0123 N.2      1 ZINC000003831243   -0.3400
31     O31     1.0828   -0.7876   -0.0130 O.3      1 ZINC000003831243    0.1000
32     H32     1.0042    1.8801    0.0026 H        1 ZINC000003831243    0.0900
33     H33    -0.5455    1.8639   -0.8728 H        1 ZINC000003831243    0.1000
34     H34    -0.5286    1.8543    0.9071 H        1 ZINC000003831243    0.1000
35     H35    -2.6912   -0.4503    2.0183 H        1 ZINC000003831243    0.4100
36     H36    -9.8449   -0.6820    2.6527 H        1 ZINC000003831243    0.0600
37     H37    -9.8552    1.0773    2.9227 H        1 ZINC000003831243    0.0900
38     H38    -9.2670    0.4174    1.3778 H        1 ZINC000003831243    0.0600
39     H39    -6.9115    0.0248    4.9339 H        1 ZINC000003831243    0.0700
40     H40    -8.4880    0.8494    4.9868 H        1 ZINC000003831243    0.0800
41     H41    -8.4148   -0.9204    4.8117 H        1 ZINC000003831243    0.0600
42     H42    -2.7903   -2.8199    1.2204 H        1 ZINC000003831243    0.1200
43     H43    -3.9351   -4.9974    1.2073 H        1 ZINC000003831243    0.1300
44     H44    -2.9646   -6.8946   -0.0221 H        1 ZINC000003831243    0.1300
45     H45    -0.8471   -6.6247   -1.2452 H        1 ZINC000003831243    0.1300
46     H46     0.3077   -4.4525   -1.2490 H        1 ZINC000003831243    0.1300
@<TRIPOS>BOND
1     1     2     1
2     1     32    1
3     1     33    1
4     1     34    1
5     2     31    1
6     2     3     2
7     3     4     1
8     3     23    1
9     4     5     2
10    4     6     am
11    6     7     1
12    6     35    1
13    7     8     1
14    7     12    1
15    7     9     1
16    9     10    2
17    9     11    am
18    11    18    1
19    11    12    1
20    12    13    1
21    12    14    1
22    14    15    1
23    15    16    1
24    15    17    1
25    15    18    1
26    16    36    1
27    16    37    1
28    16    38    1
29    17    39    1
30    17    40    1
31    17    41    1
32    18    19    1
33    18    20    1
34    20    21    ar
35    20    22    ar
36    23    24    1
37    23    30    2
38    24    29    ar
39    24    25    ar
40    25    26    ar
41    25    42    1
42    26    27    ar
43    26    43    1
44    27    28    ar
45    27    44    1
46    28    29    ar
47    28    45    1
48    29    46    1
49    30    31    1
@<TRIPOS>SUBSTRUCTURE
1   ZINC000003831243 1     RESIDUE    1   A     ZIN   1
