@<TRIPOS>MOLECULE
ZINC000100004133
31    31    1     0     0
SMALL
USER_CHARGES
@<TRIPOS>ATOM
1      C1     -0.0189    1.5408    0.0105 C.3      1 ZINC000100004133   -0.1400
2      C2      0.0021   -0.0041    0.0020 C.3      1 ZINC000100004133    0.1100
3      C3     -1.4564   -0.4774    0.0140 C.3      1 ZINC000100004133   -0.1800
4      C4      0.6716   -0.4474   -1.2964 C.3      1 ZINC000100004133   -0.1000
5      C5      0.9848   -1.9426   -1.2506 C.3      1 ZINC000100004133    0.1000
6      O6      1.6314   -2.3265   -2.4698 O.3      1 ZINC000100004133   -0.5700
7      C7      1.9276   -2.2059   -0.0767 C.3      1 ZINC000100004133   -0.1400
8      C8      1.2711   -1.7857    1.2360 C.3      1 ZINC000100004133    0.1400
9      C9      0.2116   -2.8205    1.6335 C.3      1 ZINC000100004133   -0.1800
10     C10     2.3625   -1.8058    2.3293 C.3      1 ZINC000100004133   -0.1400
11     N11     0.7073   -0.4531    1.1842 N.3      1 ZINC000100004133   -0.3900
12     O12    -0.0015   -0.1049    2.4158 O.3      1 ZINC000100004133   -0.4000
13     H13     1.0037    1.9181    0.0028 H        1 ZINC000100004133    0.0700
14     H14    -0.5461    1.9019   -0.8725 H        1 ZINC000100004133    0.0700
15     H15    -0.5291    1.8923    0.9073 H        1 ZINC000100004133    0.0600
16     H16    -1.9694   -0.0960   -0.8689 H        1 ZINC000100004133    0.0600
17     H17    -1.4848   -1.5670    0.0084 H        1 ZINC000100004133    0.0600
18     H18    -1.9517   -0.1056    0.9110 H        1 ZINC000100004133    0.0600
19     H19     0.0051   -0.2424   -2.1373 H        1 ZINC000100004133    0.0800
20     H20     1.5986    0.1130   -1.4372 H        1 ZINC000100004133    0.0800
21     H21     0.0701   -2.5191   -1.1399 H        1 ZINC000100004133    0.0600
22     H22     1.8616   -3.2647   -2.5144 H        1 ZINC000100004133    0.3800
23     H23     2.1695   -3.2704   -0.0378 H        1 ZINC000100004133    0.0800
24     H24     2.8508   -1.6397   -0.2191 H        1 ZINC000100004133    0.0800
25     H25     0.6844   -3.7945    1.7597 H        1 ZINC000100004133    0.0600
26     H26    -0.2564   -2.5196    2.5708 H        1 ZINC000100004133    0.0700
27     H27    -0.5462   -2.8829    0.8525 H        1 ZINC000100004133    0.0500
28     H28     3.1577   -1.1101    2.0617 H        1 ZINC000100004133    0.0600
29     H29     1.9265   -1.5098    3.2834 H        1 ZINC000100004133    0.0600
30     H30     2.7733   -2.8119    2.4142 H        1 ZINC000100004133    0.0600
31     H31    -0.3890    0.7811    2.4096 H        1 ZINC000100004133    0.3800
@<TRIPOS>BOND
1     1     2     1
2     1     13    1
3     1     14    1
4     1     15    1
5     2     11    1
6     2     3     1
7     2     4     1
8     3     16    1
9     3     17    1
10    3     18    1
11    4     5     1
12    4     19    1
13    4     20    1
14    5     6     1
15    5     7     1
16    5     21    1
17    6     22    1
18    7     8     1
19    7     23    1
20    7     24    1
21    8     9     1
22    8     10    1
23    8     11    1
24    9     25    1
25    9     26    1
26    9     27    1
27    10    28    1
28    10    29    1
29    10    30    1
30    11    12    1
31    12    31    1
@<TRIPOS>SUBSTRUCTURE
1   ZINC000100004133 1     RESIDUE    1   A     ZIN   1
