@<TRIPOS>MOLECULE
ZINC000003800054
61    64    1     0     0
SMALL
USER_CHARGES
@<TRIPOS>ATOM
1      C1      0.9158    0.9815   -0.3774 C.3      1 ZINC000003800054    0.0800
2      N2      0.7417   -0.4587   -0.1727 N.am     1 ZINC000003800054   -0.5800
3      C3      0.5212   -0.9414    1.0662 C.2      1 ZINC000003800054    0.5300
4      O4      0.3771   -2.1336    1.2357 O.2      1 ZINC000003800054   -0.5300
5      C5      0.4538    0.0003    2.2408 C.3      1 ZINC000003800054   -0.0200
6      C6      0.1996   -0.7860    3.5011 C.ar     1 ZINC000003800054   -0.0700
7      C7     -0.8883   -0.4819    4.2979 C.ar     1 ZINC000003800054   -0.1100
8      C8     -1.1214   -1.2032    5.4539 C.ar     1 ZINC000003800054   -0.1200
9      C9     -0.2669   -2.2288    5.8128 C.ar     1 ZINC000003800054   -0.1200
10     C10     0.8205   -2.5335    5.0155 C.ar     1 ZINC000003800054   -0.1200
11     C11     1.0512   -1.8150    3.8573 C.ar     1 ZINC000003800054   -0.0800
12     C12     1.7599    0.7416    2.3661 C.ar     1 ZINC000003800054   -0.0700
13     C13     2.9545    0.0467    2.3370 C.ar     1 ZINC000003800054   -0.0900
14     C14     4.1526    0.7266    2.4518 C.ar     1 ZINC000003800054   -0.1100
15     C15     4.1560    2.1015    2.5953 C.ar     1 ZINC000003800054   -0.1200
16     C16     2.9614    2.7965    2.6235 C.ar     1 ZINC000003800054   -0.1200
17     C17     1.7635    2.1170    2.5043 C.ar     1 ZINC000003800054   -0.1100
18     C18     0.8073   -1.3741   -1.3146 C.3      1 ZINC000003800054    0.1900
19     H19     0.6941   -2.4002   -0.9646 H        1 ZINC000003800054    0.1100
20     C20     2.1590   -1.2201   -2.0147 C.3      1 ZINC000003800054    0.0400
21     N21     3.2404   -1.4201   -1.0408 N.3      1 ZINC000003800054   -0.5000
22     C22     3.3579   -2.8516   -0.6623 C.3      1 ZINC000003800054    0.0300
23     C23     4.7970   -2.9518   -0.0969 C.3      1 ZINC000003800054   -0.1600
24     C24     5.5973   -2.0030   -1.0185 C.3      1 ZINC000003800054    0.1000
25     H25     6.0894   -2.5695   -1.8090 H        1 ZINC000003800054    0.0600
26     O26     6.5620   -1.2714   -0.2594 O.3      1 ZINC000003800054   -0.5600
27     C27     4.5498   -1.0471   -1.6187 C.3      1 ZINC000003800054    0.0400
28     C28    -0.3002   -1.0488   -2.2834 C.ar     1 ZINC000003800054   -0.1000
29     C29    -0.0994   -1.2087   -3.6417 C.ar     1 ZINC000003800054   -0.1200
30     C30    -1.1153   -0.9103   -4.5305 C.ar     1 ZINC000003800054   -0.1200
31     C31    -2.3321   -0.4524   -4.0609 C.ar     1 ZINC000003800054   -0.1200
32     C32    -2.5332   -0.2932   -2.7025 C.ar     1 ZINC000003800054   -0.1200
33     C33    -1.5188   -0.5957   -1.8135 C.ar     1 ZINC000003800054   -0.1000
34     H34     1.9580    1.2497   -0.2043 H        1 ZINC000003800054    0.0700
35     H35     0.6393    1.2392   -1.3998 H        1 ZINC000003800054    0.0700
36     H36     0.2797    1.5271    0.3195 H        1 ZINC000003800054    0.0700
37     H37    -0.3559    0.7140    2.0884 H        1 ZINC000003800054    0.1100
38     H38    -1.5559    0.3193    4.0174 H        1 ZINC000003800054    0.1200
39     H39    -1.9710   -0.9652    6.0768 H        1 ZINC000003800054    0.1200
40     H40    -0.4487   -2.7918    6.7163 H        1 ZINC000003800054    0.1200
41     H41     1.4883   -3.3345    5.2962 H        1 ZINC000003800054    0.1200
42     H42     1.9007   -2.0530    3.2344 H        1 ZINC000003800054    0.1200
43     H43     2.9518   -1.0275    2.2249 H        1 ZINC000003800054    0.1200
44     H44     5.0859    0.1836    2.4298 H        1 ZINC000003800054    0.1200
45     H45     5.0920    2.6326    2.6858 H        1 ZINC000003800054    0.1200
46     H46     2.9641    3.8706    2.7359 H        1 ZINC000003800054    0.1200
47     H47     0.8302    2.6599    2.5263 H        1 ZINC000003800054    0.1200
48     H48     2.2434   -1.9620   -2.8088 H        1 ZINC000003800054    0.0500
49     H49     2.2350   -0.2203   -2.4419 H        1 ZINC000003800054    0.0800
50     H50     2.6253   -3.1086    0.1028 H        1 ZINC000003800054    0.0900
51     H51     3.2428   -3.4915   -1.5371 H        1 ZINC000003800054    0.0500
52     H52     4.8306   -2.6054    0.9360 H        1 ZINC000003800054    0.0800
53     H53     5.1718   -3.9723   -0.1750 H        1 ZINC000003800054    0.0700
54     H54     7.2222   -1.8268    0.1773 H        1 ZINC000003800054    0.3800
55     H55     4.5227   -1.1591   -2.7026 H        1 ZINC000003800054    0.0500
56     H56     4.7923   -0.0176   -1.3551 H        1 ZINC000003800054    0.0900
57     H57     0.8513   -1.5665   -4.0086 H        1 ZINC000003800054    0.1200
58     H58    -0.9582   -1.0346   -5.5917 H        1 ZINC000003800054    0.1200
59     H59    -3.1255   -0.2185   -4.7553 H        1 ZINC000003800054    0.1200
60     H60    -3.4838    0.0649   -2.3356 H        1 ZINC000003800054    0.1200
61     H61    -1.6759   -0.4715   -0.7523 H        1 ZINC000003800054    0.1200
@<TRIPOS>BOND
1     1     2     1
2     1     34    1
3     1     35    1
4     1     36    1
5     2     3     am
6     2     18    1
7     3     4     2
8     3     5     1
9     5     6     1
10    5     12    1
11    5     37    1
12    6     11    ar
13    6     7     ar
14    7     8     ar
15    7     38    1
16    8     9     ar
17    8     39    1
18    9     10    ar
19    9     40    1
20    10    11    ar
21    10    41    1
22    11    42    1
23    12    17    ar
24    12    13    ar
25    13    14    ar
26    13    43    1
27    14    15    ar
28    14    44    1
29    15    16    ar
30    15    45    1
31    16    17    ar
32    16    46    1
33    17    47    1
34    18    19    1
35    18    20    1
36    18    28    1
37    20    21    1
38    20    48    1
39    20    49    1
40    21    27    1
41    21    22    1
42    22    23    1
43    22    50    1
44    22    51    1
45    23    24    1
46    23    52    1
47    23    53    1
48    24    25    1
49    24    26    1
50    24    27    1
51    26    54    1
52    27    55    1
53    27    56    1
54    28    33    ar
55    28    29    ar
56    29    30    ar
57    29    57    1
58    30    31    ar
59    30    58    1
60    31    32    ar
61    31    59    1
62    32    33    ar
63    32    60    1
64    33    61    1
@<TRIPOS>SUBSTRUCTURE
1   ZINC000003800054 1     RESIDUE    1   A     ZIN   1
