@<TRIPOS>MOLECULE
ZINC000068151296
46    49    1     0     0
SMALL
USER_CHARGES
@<TRIPOS>ATOM
1      O1     -0.9135    1.5959   -0.3935 O.2      1 ZINC000068151296   -0.4700
2      C2     -0.6453    2.7692   -0.5583 C.2      1 ZINC000068151296    0.6200
3      N3      0.6335    3.1865   -0.4739 N.am     1 ZINC000068151296   -0.7000
4      C4      1.7000    2.2251   -0.1834 C.3      1 ZINC000068151296    0.1700
5      C5      3.0252    2.9416   -0.1437 C.ar     1 ZINC000068151296   -0.1500
6      C6      3.7712    3.0774   -1.2999 C.ar     1 ZINC000068151296   -0.0600
7      C7      4.9862    3.7338   -1.2663 C.ar     1 ZINC000068151296   -0.1500
8      C8      5.4578    4.2570   -0.0708 C.ar     1 ZINC000068151296    0.1400
9      O9      6.6525    4.9035   -0.0351 O.3      1 ZINC000068151296   -0.2600
10     C10     7.0778    5.3925    1.1592 C.ar     1 ZINC000068151296    0.0800
11     C11     7.8519    4.6028    1.9975 C.ar     1 ZINC000068151296   -0.1200
12     C12     8.2833    5.1025    3.2109 C.ar     1 ZINC000068151296   -0.1100
13     C13     7.9442    6.3880    3.5906 C.ar     1 ZINC000068151296   -0.1100
14     C14     7.1730    7.1770    2.7571 C.ar     1 ZINC000068151296   -0.1100
15     C15     6.7437    6.6842    1.5401 C.ar     1 ZINC000068151296   -0.1200
16     C16     4.7072    4.1194    1.0880 C.ar     1 ZINC000068151296   -0.2000
17     C17     3.4902    3.4670    1.0478 C.ar     1 ZINC000068151296   -0.0600
18     C18    -1.7240    3.7413   -0.8585 C.2      1 ZINC000068151296    0.1500
19     N19    -3.0086    3.4765   -0.9697 N.2      1 ZINC000068151296   -0.4100
20     C20    -3.5993    4.6571   -1.2457 C.2      1 ZINC000068151296    0.2100
21     C21    -5.0493    4.8853   -1.4619 C.ar     1 ZINC000068151296   -0.0300
22     C22    -5.9434    3.8192   -1.3807 C.ar     1 ZINC000068151296   -0.0200
23     C23    -7.2914    4.0339   -1.5821 C.ar     1 ZINC000068151296   -0.1200
24     Br24   -8.5052    2.5882   -1.4715 Br       1 ZINC000068151296   -0.0100
25     C25    -7.7576    5.3113   -1.8656 C.ar     1 ZINC000068151296    0.1900
26     O26    -9.0854    5.5202   -2.0635 O.3      1 ZINC000068151296   -0.4700
27     C27    -6.8686    6.3756   -1.9466 C.ar     1 ZINC000068151296   -0.1200
28     Br28   -7.5078    8.1131   -2.3316 Br       1 ZINC000068151296   -0.0100
29     C29    -5.5204    6.1670   -1.7408 C.ar     1 ZINC000068151296   -0.0200
30     N30    -2.6566    5.5648   -1.2873 N.2      1 ZINC000068151296   -0.3500
31     O31    -1.5773    5.0592   -1.0626 O.3      1 ZINC000068151296    0.1100
32     H32     0.8477    4.1233   -0.6056 H        1 ZINC000068151296    0.4100
33     H33     1.5122    1.7548    0.7818 H        1 ZINC000068151296    0.0900
34     H34     1.7229    1.4617   -0.9611 H        1 ZINC000068151296    0.0900
35     H35     3.4038    2.6697   -2.2301 H        1 ZINC000068151296    0.1400
36     H36     5.5687    3.8393   -2.1696 H        1 ZINC000068151296    0.1400
37     H37     8.1164    3.5984    1.7017 H        1 ZINC000068151296    0.1300
38     H38     8.8858    4.4883    3.8638 H        1 ZINC000068151296    0.1300
39     H39     8.2820    6.7765    4.5401 H        1 ZINC000068151296    0.1300
40     H40     6.9092    8.1806    3.0562 H        1 ZINC000068151296    0.1300
41     H41     6.1417    7.3010    0.8893 H        1 ZINC000068151296    0.1300
42     H42     5.0720    4.5257    2.0198 H        1 ZINC000068151296    0.1300
43     H43     2.9054    3.3599    1.9494 H        1 ZINC000068151296    0.1300
44     H44    -5.5814    2.8257   -1.1606 H        1 ZINC000068151296    0.1600
45     H45    -9.5744    5.7342   -1.2572 H        1 ZINC000068151296    0.4000
46     H46    -4.8297    6.9949   -1.8035 H        1 ZINC000068151296    0.1500
@<TRIPOS>BOND
1     1     2     2
2     2     3     am
3     2     18    1
4     3     4     1
5     3     32    1
6     4     5     1
7     4     33    1
8     4     34    1
9     5     17    ar
10    5     6     ar
11    6     7     ar
12    6     35    1
13    7     8     ar
14    7     36    1
15    8     9     1
16    8     16    ar
17    9     10    1
18    10    15    ar
19    10    11    ar
20    11    12    ar
21    11    37    1
22    12    13    ar
23    12    38    1
24    13    14    ar
25    13    39    1
26    14    15    ar
27    14    40    1
28    15    41    1
29    16    17    ar
30    16    42    1
31    17    43    1
32    18    31    1
33    18    19    2
34    19    20    1
35    20    21    1
36    20    30    2
37    21    29    ar
38    21    22    ar
39    22    23    ar
40    22    44    1
41    23    24    1
42    23    25    ar
43    25    26    1
44    25    27    ar
45    26    45    1
46    27    28    1
47    27    29    ar
48    29    46    1
49    30    31    1
@<TRIPOS>SUBSTRUCTURE
1   ZINC000068151296 1     RESIDUE    1   A     ZIN   1
