@<TRIPOS>MOLECULE
ZINC000003979756
75    77    1     0     0
SMALL
USER_CHARGES
@<TRIPOS>ATOM
1      C1      1.5914    0.6506   -0.4165 C.3      1 ZINC000003979756   -0.1500
2      C2      1.4115   -0.8680   -0.4643 C.3      1 ZINC000003979756    0.0800
3      O3      0.0065   -1.1945   -0.2980 O.3      1 ZINC000003979756   -0.3300
4      C4     -0.3239   -2.4985   -0.3163 C.2      1 ZINC000003979756    0.6000
5      O5      0.5375   -3.3410   -0.4670 O.2      1 ZINC000003979756   -0.5500
6      O6     -1.6086   -2.8691   -0.1677 O.3      1 ZINC000003979756   -0.3200
7      C7     -1.8916   -4.2929   -0.1977 C.3      1 ZINC000003979756    0.1000
8      C8     -3.3938   -4.5182   -0.0142 C.3      1 ZINC000003979756    0.1100
9      H9     -3.7257   -4.0284    0.9012 H        1 ZINC000003979756    0.0900
10     O10    -4.0978   -3.9698   -1.1303 O.3      1 ZINC000003979756   -0.3600
11     C11    -5.5181   -4.1039   -1.0474 C.3      1 ZINC000003979756    0.2400
12     H12    -5.8779   -3.6088   -0.1455 H        1 ZINC000003979756    0.0800
13     O13    -6.1214   -3.5020   -2.1945 O.3      1 ZINC000003979756   -0.2700
14     C14    -5.9779   -2.1568   -2.3331 C.2      1 ZINC000003979756    0.2700
15     N15    -5.3320   -1.3629   -1.5136 N.2      1 ZINC000003979756   -0.3100
16     N16    -5.4188   -0.0565   -2.0113 N.pl3    1 ZINC000003979756   -0.3500
17     C17    -4.8334    1.1387   -1.3989 C.3      1 ZINC000003979756    0.1600
18     C18    -5.4149    1.3303    0.0032 C.3      1 ZINC000003979756   -0.1600
19     C19    -3.3156    0.9712   -1.3030 C.3      1 ZINC000003979756   -0.1600
20     C20    -6.1363   -0.0917   -3.1538 C.2      1 ZINC000003979756    0.1100
21     C21    -6.4762    1.0899   -4.0252 C.3      1 ZINC000003979756   -0.1000
22     C22    -6.4902   -1.3774   -3.3811 C.2      1 ZINC000003979756   -0.2300
23     C23    -7.3001   -1.8816   -4.5477 C.3      1 ZINC000003979756    0.0100
24     C24    -6.3757   -2.2469   -5.6805 C.ar     1 ZINC000003979756   -0.1100
25     C25    -6.0290   -1.2959   -6.6224 C.ar     1 ZINC000003979756   -0.0800
26     C26    -5.1818   -1.6282   -7.6617 C.ar     1 ZINC000003979756   -0.2100
27     C27    -4.6785   -2.9172   -7.7597 C.ar     1 ZINC000003979756    0.1300
28     O28    -3.8445   -3.2465   -8.7810 O.3      1 ZINC000003979756   -0.3100
29     C29    -3.6216   -2.2522   -9.7828 C.3      1 ZINC000003979756    0.0800
30     C30    -2.5040   -1.3114   -9.3278 C.3      1 ZINC000003979756   -0.1800
31     C31    -3.2156   -2.9302  -11.0929 C.3      1 ZINC000003979756   -0.1500
32     C32    -5.0275   -3.8695   -6.8131 C.ar     1 ZINC000003979756   -0.1500
33     C33    -5.8712   -3.5309   -5.7730 C.ar     1 ZINC000003979756   -0.0700
34     C34    -5.8869   -5.5889   -0.9964 C.3      1 ZINC000003979756    0.0600
35     H35    -5.5632   -6.0764   -1.9160 H        1 ZINC000003979756    0.0900
36     O36    -7.3025   -5.7248   -0.8567 O.3      1 ZINC000003979756   -0.5500
37     C37    -5.1882   -6.2397    0.2013 C.3      1 ZINC000003979756    0.0900
38     H38    -5.5487   -5.7859    1.1245 H        1 ZINC000003979756    0.0800
39     O39    -5.4695   -7.6406    0.2157 O.3      1 ZINC000003979756   -0.5500
40     C40    -3.6772   -6.0198    0.0786 C.3      1 ZINC000003979756    0.0900
41     H41    -3.3087   -6.5160   -0.8192 H        1 ZINC000003979756    0.0800
42     O42    -3.0210   -6.5611    1.2268 O.3      1 ZINC000003979756   -0.5500
43     H43     2.6461    0.8957   -0.5413 H        1 ZINC000003979756    0.0900
44     H44     1.0142    1.1103   -1.2188 H        1 ZINC000003979756    0.0700
45     H45     1.2419    1.0278    0.5446 H        1 ZINC000003979756    0.0700
46     H46     1.7609   -1.2452   -1.4254 H        1 ZINC000003979756    0.0800
47     H47     1.9887   -1.3277    0.3380 H        1 ZINC000003979756    0.0800
48     H48    -1.5767   -4.7058   -1.1560 H        1 ZINC000003979756    0.0900
49     H49    -1.3489   -4.7883    0.6074 H        1 ZINC000003979756    0.1100
50     H50    -5.0647    2.0108   -2.0106 H        1 ZINC000003979756    0.1000
51     H51    -5.1835    0.4582    0.6148 H        1 ZINC000003979756    0.0700
52     H52    -4.9793    2.2195    0.4588 H        1 ZINC000003979756    0.0800
53     H53    -6.4962    1.4496   -0.0651 H        1 ZINC000003979756    0.0600
54     H54    -2.9013    0.8347   -2.3020 H        1 ZINC000003979756    0.0600
55     H55    -2.8800    1.8604   -0.8474 H        1 ZINC000003979756    0.0700
56     H56    -3.0842    0.0991   -0.6914 H        1 ZINC000003979756    0.0800
57     H57    -5.6947    1.2269   -4.7726 H        1 ZINC000003979756    0.0800
58     H58    -7.4287    0.9113   -4.5241 H        1 ZINC000003979756    0.0900
59     H59    -6.5510    1.9860   -3.4093 H        1 ZINC000003979756    0.0700
60     H60    -7.8670   -2.7614   -4.2433 H        1 ZINC000003979756    0.0800
61     H61    -7.9875   -1.1023   -4.8766 H        1 ZINC000003979756    0.0800
62     H62    -6.4211   -0.2925   -6.5457 H        1 ZINC000003979756    0.1200
63     H63    -4.9118   -0.8852   -8.3976 H        1 ZINC000003979756    0.1300
64     H64    -4.5368   -1.6809   -9.9377 H        1 ZINC000003979756    0.0700
65     H65    -2.7932   -0.8284   -8.3945 H        1 ZINC000003979756    0.0600
66     H66    -1.5888   -1.8827   -9.1729 H        1 ZINC000003979756    0.0700
67     H67    -2.3340   -0.5529  -10.0920 H        1 ZINC000003979756    0.0700
68     H68    -4.0118   -3.6004  -11.4171 H        1 ZINC000003979756    0.0700
69     H69    -3.0456   -2.1717  -11.8571 H        1 ZINC000003979756    0.0800
70     H70    -2.3004   -3.5015  -10.9380 H        1 ZINC000003979756    0.0700
71     H71    -4.6372   -4.8738   -6.8874 H        1 ZINC000003979756    0.1300
72     H72    -6.1430   -4.2717   -5.0356 H        1 ZINC000003979756    0.1300
73     H73    -7.8088   -5.3302   -1.5799 H        1 ZINC000003979756    0.4000
74     H74    -6.4105   -7.8521    0.2856 H        1 ZINC000003979756    0.4000
75     H75    -3.1618   -7.5099    1.3495 H        1 ZINC000003979756    0.4000
@<TRIPOS>BOND
1     1     2     1
2     1     43    1
3     1     44    1
4     1     45    1
5     2     3     1
6     2     46    1
7     2     47    1
8     3     4     1
9     4     5     2
10    4     6     1
11    6     7     1
12    7     8     1
13    7     48    1
14    7     49    1
15    8     9     1
16    8     40    1
17    8     10    1
18    10    11    1
19    11    12    1
20    11    13    1
21    11    34    1
22    13    14    1
23    14    22    1
24    14    15    2
25    15    16    1
26    16    17    1
27    16    20    1
28    17    18    1
29    17    19    1
30    17    50    1
31    18    51    1
32    18    52    1
33    18    53    1
34    19    54    1
35    19    55    1
36    19    56    1
37    20    21    1
38    20    22    2
39    21    57    1
40    21    58    1
41    21    59    1
42    22    23    1
43    23    24    1
44    23    60    1
45    23    61    1
46    24    33    ar
47    24    25    ar
48    25    26    ar
49    25    62    1
50    26    27    ar
51    26    63    1
52    27    28    1
53    27    32    ar
54    28    29    1
55    29    30    1
56    29    31    1
57    29    64    1
58    30    65    1
59    30    66    1
60    30    67    1
61    31    68    1
62    31    69    1
63    31    70    1
64    32    33    ar
65    32    71    1
66    33    72    1
67    34    35    1
68    34    36    1
69    34    37    1
70    36    73    1
71    37    38    1
72    37    39    1
73    37    40    1
74    39    74    1
75    40    41    1
76    40    42    1
77    42    75    1
@<TRIPOS>SUBSTRUCTURE
1   ZINC000003979756 1     RESIDUE    1   A     ZIN   1
