@<TRIPOS>MOLECULE
ZINC000003954923
63    65    1     0     0
SMALL
USER_CHARGES
@<TRIPOS>ATOM
1      C1      0.9378    1.1555    0.9961 C.3      1 ZINC000003954923   -0.1500
2      C2      0.8472   -0.3680    0.8876 C.3      1 ZINC000003954923   -0.1300
3      C3     -0.6226   -0.7883    0.8249 C.3      1 ZINC000003954923    0.0600
4      N4     -0.7095   -2.2510    0.7207 N.3      1 ZINC000003954923   -0.5400
5      C5      0.2294   -2.7640   -0.2867 C.3      1 ZINC000003954923    0.0500
6      C6      0.1652   -4.2930   -0.3082 C.3      1 ZINC000003954923    0.0500
7      N7     -1.2090   -4.7189   -0.6081 N.3      1 ZINC000003954923   -0.4900
8      C8     -1.2913   -6.1033   -0.7067 C.ar     1 ZINC000003954923    0.1500
9      C9     -0.1525   -6.8820   -0.5194 C.ar     1 ZINC000003954923   -0.1800
10     C10    -0.2307   -8.2524   -0.6163 C.ar     1 ZINC000003954923   -0.0300
11     C11    -1.4554   -8.8626   -0.9031 C.ar     1 ZINC000003954923   -0.1700
12     C12    -1.5428  -10.3316   -1.0073 C.2      1 ZINC000003954923    0.5600
13     O13    -0.5491  -11.0129   -0.8436 O.2      1 ZINC000003954923   -0.5200
14     N14    -2.7242  -10.9184   -1.2838 N.am     1 ZINC000003954923   -0.7200
15     C15    -2.7909  -12.3664   -1.4959 C.3      1 ZINC000003954923    0.1700
16     C16    -1.8256  -12.7597   -2.5843 C.2      1 ZINC000003954923    0.5300
17     O17    -1.2304  -13.8142   -2.5151 O.2      1 ZINC000003954923   -0.5200
18     N18    -1.6237  -11.9396   -3.6347 N.am     1 ZINC000003954923   -0.7300
19     C19    -0.6061  -12.2687   -4.6359 C.3      1 ZINC000003954923    0.2200
20     C20    -0.5818  -11.2238   -5.6725 C.1      1 ZINC000003954923    0.1900
21     N21    -0.5631  -10.4175   -6.4725 N.1      1 ZINC000003954923   -0.4000
22     C22    -2.4199  -13.0894   -0.1995 C.3      1 ZINC000003954923   -0.1200
23     C23    -3.3999  -12.6901    0.9055 C.3      1 ZINC000003954923   -0.1200
24     C24    -4.8206  -13.0801    0.4926 C.3      1 ZINC000003954923   -0.1200
25     C25    -5.1916  -12.3572   -0.8038 C.3      1 ZINC000003954923   -0.1200
26     C26    -4.2116  -12.7565   -1.9088 C.3      1 ZINC000003954923   -0.1200
27     C27    -2.5971   -8.0780   -1.0906 C.ar     1 ZINC000003954923   -0.0600
28     C28    -2.5135   -6.7083   -0.9868 C.ar     1 ZINC000003954923   -0.1500
29     C29    -2.1479   -4.2059    0.3993 C.3      1 ZINC000003954923    0.0600
30     C30    -2.0837   -2.6768    0.4208 C.3      1 ZINC000003954923    0.0500
31     H31     1.9849    1.4549    1.0409 H        1 ZINC000003954923    0.0600
32     H32     0.4667    1.6104    0.1248 H        1 ZINC000003954923    0.0500
33     H33     0.4264    1.4864    1.9000 H        1 ZINC000003954923    0.0600
34     H34     1.3587   -0.6989   -0.0162 H        1 ZINC000003954923    0.0600
35     H35     1.3183   -0.8229    1.7590 H        1 ZINC000003954923    0.0700
36     H36    -1.1340   -0.4573    1.7287 H        1 ZINC000003954923    0.0800
37     H37    -1.0937   -0.3333   -0.0465 H        1 ZINC000003954923    0.0400
38     H38    -0.0417   -2.3748   -1.2681 H        1 ZINC000003954923    0.0400
39     H39     1.2414   -2.4460   -0.0359 H        1 ZINC000003954923    0.0900
40     H40     0.8396   -4.6746   -1.0748 H        1 ZINC000003954923    0.0900
41     H41     0.4626   -4.6832    0.6652 H        1 ZINC000003954923    0.0600
42     H42     0.7934   -6.4100   -0.2982 H        1 ZINC000003954923    0.1300
43     H43     0.6531   -8.8559   -0.4713 H        1 ZINC000003954923    0.1400
44     H44    -3.5302  -10.3820   -1.3425 H        1 ZINC000003954923    0.4000
45     H45    -2.1522  -11.1316   -3.7277 H        1 ZINC000003954923    0.4000
46     H46     0.3707  -12.3268   -4.1556 H        1 ZINC000003954923    0.1200
47     H47    -0.8438  -13.2290   -5.0935 H        1 ZINC000003954923    0.1200
48     H48    -2.4696  -14.1667   -0.3573 H        1 ZINC000003954923    0.0800
49     H49    -1.4078  -12.8115    0.0946 H        1 ZINC000003954923    0.0900
50     H50    -3.1356  -13.2051    1.8290 H        1 ZINC000003954923    0.0700
51     H51    -3.3503  -11.6127    1.0633 H        1 ZINC000003954923    0.0600
52     H52    -4.8702  -14.1575    0.3348 H        1 ZINC000003954923    0.0700
53     H53    -5.5188  -12.7957    1.2798 H        1 ZINC000003954923    0.0700
54     H54    -6.2037  -12.6350   -1.0979 H        1 ZINC000003954923    0.0700
55     H55    -5.1419  -11.2798   -0.6460 H        1 ZINC000003954923    0.0600
56     H56    -4.4758  -12.2414   -2.8324 H        1 ZINC000003954923    0.0800
57     H57    -4.2612  -13.8338   -2.0666 H        1 ZINC000003954923    0.0900
58     H58    -3.5445   -8.5464   -1.3127 H        1 ZINC000003954923    0.1300
59     H59    -3.3952   -6.1016   -1.1312 H        1 ZINC000003954923    0.1300
60     H60    -3.1599   -4.5238    0.1485 H        1 ZINC000003954923    0.0900
61     H61    -1.8768   -4.5950    1.3807 H        1 ZINC000003954923    0.0600
62     H62    -2.7581   -2.2953    1.1874 H        1 ZINC000003954923    0.0900
63     H63    -2.3811   -2.2867   -0.5525 H        1 ZINC000003954923    0.0500
@<TRIPOS>BOND
1     1     2     1
2     1     31    1
3     1     32    1
4     1     33    1
5     2     3     1
6     2     34    1
7     2     35    1
8     3     4     1
9     3     36    1
10    3     37    1
11    4     30    1
12    4     5     1
13    5     6     1
14    5     38    1
15    5     39    1
16    6     7     1
17    6     40    1
18    6     41    1
19    7     8     1
20    7     29    1
21    8     28    ar
22    8     9     ar
23    9     10    ar
24    9     42    1
25    10    11    ar
26    10    43    1
27    11    12    1
28    11    27    ar
29    12    13    2
30    12    14    am
31    14    15    1
32    14    44    1
33    15    26    1
34    15    16    1
35    15    22    1
36    16    17    2
37    16    18    am
38    18    19    1
39    18    45    1
40    19    20    1
41    19    46    1
42    19    47    1
43    20    21    3
44    22    23    1
45    22    48    1
46    22    49    1
47    23    24    1
48    23    50    1
49    23    51    1
50    24    25    1
51    24    52    1
52    24    53    1
53    25    26    1
54    25    54    1
55    25    55    1
56    26    56    1
57    26    57    1
58    27    28    ar
59    27    58    1
60    28    59    1
61    29    30    1
62    29    60    1
63    29    61    1
64    30    62    1
65    30    63    1
@<TRIPOS>SUBSTRUCTURE
1   ZINC000003954923 1     RESIDUE    1   A     ZIN   1
