@<TRIPOS>MOLECULE
ZINC000040873973
  41   43    0    0    0
SMALL
USER_CHARGES
NO_NAME
@<TRIPOS>ATOM
    1 C1       -0.5087     1.9678    -3.7487 C.3    1 <0>      -0.1600
    2 C2       -0.5181     0.8434    -2.7112 C.3    1 <0>      -0.1200
    3 C3        0.4705    -0.2463    -3.1310 C.3    1 <0>      -0.1300
    4 C4        0.4611    -1.3706    -2.0934 C.3    1 <0>      -0.1100
    5 C5        1.3429    -2.5219    -2.5810 C.3    1 <0>      -0.0200
    6 C6        2.7750    -2.0683    -2.7018 C.ar   1 <0>      -0.1200
    7 C7        3.7264    -2.5481    -1.8125 C.ar   1 <0>      -0.1100
    8 C8        5.0410    -2.1458    -1.9051 C.ar   1 <0>      -0.1100
    9 C9        5.4209    -1.2504    -2.8992 C.ar   1 <0>       0.1000
   10 N10       6.6215    -0.6720    -3.2457 N.pl3  1 <0>      -0.5900
   11 C11       6.4466     0.1526    -4.3236 C.2    1 <0>       0.0600
   12 C12       5.1599     0.1397    -4.7058 C.2    1 <0>      -0.2100
   13 C13       4.4527    -0.7673    -3.7986 C.ar   1 <0>      -0.1000
   14 C14       3.1274    -1.1922    -3.6896 C.ar   1 <0>      -0.0600
   15 C15       0.8306    -3.0526    -3.9359 C.3    1 <0>      -0.1500
   16 C16       0.4615    -4.5287    -3.6749 C.3    1 <0>       0.0000
   17 N17       0.1990    -4.5963    -2.2143 N.4    1 <0>      -0.5200
   18 H18      -0.7223    -4.2424    -2.0045 H      1 <0>       0.4300
   19 H19       0.2972    -5.5438    -1.8816 H      1 <0>       0.4300
   20 C20       1.2403    -3.7221    -1.6155 C.3    1 <0>      -0.0100
   21 H21       0.4931     2.3922    -3.8156 H      1 <0>       0.0600
   22 H22      -0.7995     1.5681    -4.7202 H      1 <0>       0.0500
   23 H23      -1.2130     2.7441    -3.4496 H      1 <0>       0.0600
   24 H24      -0.2273     1.2431    -1.7397 H      1 <0>       0.0600
   25 H25      -1.5198     0.4190    -2.6443 H      1 <0>       0.0600
   26 H26       0.1797    -0.6459    -4.1025 H      1 <0>       0.0700
   27 H27       1.4722     0.1781    -3.1978 H      1 <0>       0.0800
   28 H28       0.8464    -0.9939    -1.1460 H      1 <0>       0.0800
   29 H29      -0.5592    -1.7282    -1.9543 H      1 <0>       0.0700
   30 H30       3.4333    -3.2435    -1.0399 H      1 <0>       0.1200
   31 H31       5.7738    -2.5243    -1.2079 H      1 <0>       0.1300
   32 H32       7.4654    -0.8259    -2.7930 H      1 <0>       0.4200
   33 H33       7.2280     0.7290    -4.7964 H      1 <0>       0.1800
   34 H34       4.7280     0.6932    -5.5265 H      1 <0>       0.1500
   35 H35       2.3829    -0.8280    -4.3821 H      1 <0>       0.1300
   36 H36      -0.0491    -2.4928    -4.2535 H      1 <0>       0.1100
   37 H37       1.6152    -2.9861    -4.6897 H      1 <0>       0.1200
   38 H38      -0.4329    -4.8016    -4.2349 H      1 <0>       0.1400
   39 H39       1.2925    -5.1814    -3.9425 H      1 <0>       0.1300
   40 H40       2.1931    -4.2486    -1.5607 H      1 <0>       0.1400
   41 H41       0.9322    -3.3877    -0.6248 H      1 <0>       0.1400
@<TRIPOS>BOND
   1    1    2 1
   2    1   21 1
   3    1   22 1
   4    1   23 1
   5    2    3 1
   6    2   24 1
   7    2   25 1
   8    3    4 1
   9    3   26 1
  10    3   27 1
  11    4    5 1
  12    4   28 1
  13    4   29 1
  14    5   20 1
  15    5    6 1
  16    5   15 1
  17    6   14 ar
  18    6    7 ar
  19    7    8 ar
  20    7   30 1
  21    8    9 ar
  22    8   31 1
  23    9   13 ar
  24    9   10 1
  25   10   11 1
  26   10   32 1
  27   11   12 2
  28   11   33 1
  29   12   13 1
  30   12   34 1
  31   13   14 ar
  32   14   35 1
  33   15   16 1
  34   15   36 1
  35   15   37 1
  36   16   17 1
  37   16   38 1
  38   16   39 1
  39   17   18 1
  40   17   19 1
  41   17   20 1
  42   20   40 1
  43   20   41 1
