@<TRIPOS>MOLECULE
ZINC000003780631
28    31    1     0     0
SMALL
USER_CHARGES
@<TRIPOS>ATOM
1      O1      0.0021   -0.0041    0.0020 O.2      1 ZINC000003780631   -0.6100
2      C2     -0.0144    1.2112    0.0087 C.2      1 ZINC000003780631    0.6600
3      N3     -1.1371    1.9409    0.0291 N.pl3    1 ZINC000003780631   -0.7100
4      C4     -0.8697    3.2642    0.0329 C.2      1 ZINC000003780631    0.5100
5      O5     -1.6689    4.1756    0.0500 O.2      1 ZINC000003780631   -0.5400
6      C6      0.6356    3.3674    0.0118 C.3      1 ZINC000003780631    0.1500
7      N7      1.0953    1.9761    0.0022 N.am     1 ZINC000003780631   -0.7500
8      C8      1.1147    4.1193   -1.1971 C.ar     1 ZINC000003780631   -0.0600
9      C9      0.9572    3.9111   -2.5508 C.ar     1 ZINC000003780631   -0.0800
10     C10     1.5231    4.7885   -3.4589 C.ar     1 ZINC000003780631   -0.1100
11     C11     2.2480    5.8781   -3.0117 C.ar     1 ZINC000003780631   -0.1200
12     C12     2.4119    6.0953   -1.6592 C.ar     1 ZINC000003780631   -0.1000
13     C13     1.8460    5.2141   -0.7372 C.ar     1 ZINC000003780631   -0.0500
14     C14     1.8669    5.2059    0.7473 C.ar     1 ZINC000003780631   -0.0600
15     C15     2.4573    6.0786    1.6622 C.ar     1 ZINC000003780631   -0.0700
16     C16     2.3312    5.8486    3.0162 C.ar     1 ZINC000003780631   -0.1600
17     C17     1.6184    4.7523    3.4732 C.ar     1 ZINC000003780631    0.1000
18     F18     1.4979    4.5311    4.8005 F        1 ZINC000003780631   -0.1400
19     C19     1.0284    3.8823    2.5699 C.ar     1 ZINC000003780631   -0.1200
20     C20     1.1494    4.1052    1.2153 C.ar     1 ZINC000003780631   -0.0300
21     H21     2.0147    1.6673   -0.0110 H        1 ZINC000003780631    0.4000
22     H22     0.3914    3.0614   -2.9032 H        1 ZINC000003780631    0.1200
23     H23     1.3981    4.6224   -4.5187 H        1 ZINC000003780631    0.1300
24     H24     2.6876    6.5610   -3.7236 H        1 ZINC000003780631    0.1200
25     H25     2.9787    6.9473   -1.3140 H        1 ZINC000003780631    0.1200
26     H26     3.0137    6.9345    1.3098 H        1 ZINC000003780631    0.1300
27     H27     2.7898    6.5251    3.7222 H        1 ZINC000003780631    0.1400
28     H28     0.4728    3.0282    2.9282 H        1 ZINC000003780631    0.1400
@<TRIPOS>BOND
1     1     2     2
2     2     7     am
3     2     3     1
4     3     4     1
5     4     5     2
6     4     6     1
7     6     20    1
8     6     7     1
9     6     8     1
10    7     21    1
11    8     13    ar
12    8     9     ar
13    9     10    ar
14    9     22    1
15    10    11    ar
16    10    23    1
17    11    12    ar
18    11    24    1
19    12    13    ar
20    12    25    1
21    13    14    1
22    14    20    ar
23    14    15    ar
24    15    16    ar
25    15    26    1
26    16    17    ar
27    16    27    1
28    17    18    1
29    17    19    ar
30    19    20    ar
31    19    28    1
@<TRIPOS>SUBSTRUCTURE
1   ZINC000003780631 1     RESIDUE    1   A     ZIN   1
