@<TRIPOS>MOLECULE
ZINC000005921098
  55   58    0    0    0
SMALL
USER_CHARGES
NO_NAME
@<TRIPOS>ATOM
    1 C1        0.0555    -1.1938     0.0339 C.1    1 <0>      -0.1800
    2 C2        0.0262    -0.0202     0.0413 C.1    1 <0>      -0.2100
    3 C3       -0.0106     1.4513     0.0507 C.3    1 <0>       0.2500
    4 O4       -0.6891     1.9215     1.2171 O.3    1 <0>      -0.5400
    5 C5       -0.7082     1.9790    -1.2278 C.3    1 <0>      -0.1400
    6 C6        0.3702     2.7653    -2.0224 C.3    1 <0>      -0.1100
    7 C7        1.6813     2.1490    -1.5227 C.3    1 <0>      -0.0800
    8 H8        1.8334     1.1666    -1.9698 H      1 <0>       0.0700
    9 C9        2.9229     3.0040    -1.6934 C.3    1 <0>      -0.0700
   10 H10       2.7890     3.9549    -1.1777 H      1 <0>       0.0900
   11 C11       3.1959     3.2547    -3.1772 C.3    1 <0>      -0.1100
   12 C12       4.4801     4.0728    -3.3281 C.3    1 <0>      -0.1200
   13 C13       5.6525     3.3013    -2.7191 C.3    1 <0>      -0.0700
   14 H14       5.7681     2.3489    -3.2364 H      1 <0>       0.0800
   15 C15       6.9357     4.1208    -2.8681 C.3    1 <0>      -0.1100
   16 C16       8.1079     3.3476    -2.2606 C.3    1 <0>       0.1100
   17 H17       9.0225     3.9310    -2.3673 H      1 <0>       0.0500
   18 O18       8.2575     2.0987    -2.9388 O.3    1 <0>      -0.5600
   19 C19       7.8354     3.0930    -0.7766 C.3    1 <0>      -0.1500
   20 C20       6.5526     2.2730    -0.6273 C.3    1 <0>      -0.1100
   21 C21       5.3801     3.0456    -1.2352 C.3    1 <0>      -0.0400
   22 C22       5.2156     4.3807    -0.5062 C.3    1 <0>      -0.1500
   23 C23       4.0951     2.2336    -1.0661 C.3    1 <0>      -0.0700
   24 H24       4.2020     1.2901    -1.6014 H      1 <0>       0.0600
   25 C25       3.8541     1.9380     0.4102 C.3    1 <0>      -0.1200
   26 C26       2.5221     1.1991     0.6232 C.3    1 <0>      -0.1000
   27 C27       1.4054     2.0157    -0.0005 C.3    1 <0>      -0.0400
   28 C28       1.4211     3.4348     0.5711 C.3    1 <0>      -0.1400
   29 H29       0.0817    -2.2434     0.0272 H      1 <0>       0.2200
   30 H30      -1.6017     1.6111     1.2933 H      1 <0>       0.3800
   31 H31      -1.0778     1.1446    -1.8238 H      1 <0>       0.0700
   32 H32      -1.5314     2.6409    -0.9588 H      1 <0>       0.0800
   33 H33       0.2526     2.6054    -3.0942 H      1 <0>       0.0700
   34 H34       0.3275     3.8278    -1.7829 H      1 <0>       0.0800
   35 H35       3.3102     2.3007    -3.6919 H      1 <0>       0.0600
   36 H36       2.3615     3.8047    -3.6123 H      1 <0>       0.0600
   37 H37       4.6739     4.2527    -4.3855 H      1 <0>       0.0600
   38 H38       4.3659     5.0263    -2.8126 H      1 <0>       0.0600
   39 H39       7.1296     4.3034    -3.9250 H      1 <0>       0.0700
   40 H40       6.8209     5.0729    -2.3499 H      1 <0>       0.0800
   41 H41       8.9839     1.5545    -2.6051 H      1 <0>       0.3700
   42 H42       8.6707     2.5432    -0.3429 H      1 <0>       0.0600
   43 H43       7.7199     4.0457    -0.2598 H      1 <0>       0.0700
   44 H44       6.6683     1.3203    -1.1441 H      1 <0>       0.0700
   45 H45       6.3588     2.0912     0.4299 H      1 <0>       0.0600
   46 H46       6.1291     4.9662    -0.6100 H      1 <0>       0.0600
   47 H47       4.3802     4.9307    -0.9396 H      1 <0>       0.0600
   48 H48       5.0202     4.1962     0.5501 H      1 <0>       0.0600
   49 H49       4.6690     1.3204     0.7880 H      1 <0>       0.0600
   50 H50       3.8336     2.8770     0.9633 H      1 <0>       0.0700
   51 H51       2.5458     0.2370     0.1114 H      1 <0>       0.0600
   52 H52       2.3475     1.0491     1.6886 H      1 <0>       0.0700
   53 H53       2.4175     3.8617     0.4563 H      1 <0>       0.0700
   54 H54       0.6982     4.0502     0.0356 H      1 <0>       0.0600
   55 H55       1.1589     3.4034     1.6286 H      1 <0>       0.0600
@<TRIPOS>BOND
   1    1    2 3
   2    1   29 1
   3    2    3 1
   4    3   27 1
   5    3    4 1
   6    3    5 1
   7    4   30 1
   8    5    6 1
   9    5   31 1
  10    5   32 1
  11    6    7 1
  12    6   33 1
  13    6   34 1
  14    7    8 1
  15    7   27 1
  16    7    9 1
  17    9   10 1
  18    9   23 1
  19    9   11 1
  20   11   12 1
  21   11   35 1
  22   11   36 1
  23   12   13 1
  24   12   37 1
  25   12   38 1
  26   13   14 1
  27   13   21 1
  28   13   15 1
  29   15   16 1
  30   15   39 1
  31   15   40 1
  32   16   17 1
  33   16   18 1
  34   16   19 1
  35   18   41 1
  36   19   20 1
  37   19   42 1
  38   19   43 1
  39   20   21 1
  40   20   44 1
  41   20   45 1
  42   21   22 1
  43   21   23 1
  44   22   46 1
  45   22   47 1
  46   22   48 1
  47   23   24 1
  48   23   25 1
  49   25   26 1
  50   25   49 1
  51   25   50 1
  52   26   27 1
  53   26   51 1
  54   26   52 1
  55   27   28 1
  56   28   53 1
  57   28   54 1
  58   28   55 1
