@<TRIPOS>MOLECULE
ZINC000040836075
37    38    1     0     0
SMALL
USER_CHARGES
@<TRIPOS>ATOM
1      N1     -0.0178    1.4648    0.0101 N.3      1 ZINC000040836075   -0.8300
2      C2      0.0021   -0.0041    0.0020 C.3      1 ZINC000040836075    0.0500
3      C3      0.8136   -0.5019    1.1702 C.2      1 ZINC000040836075    0.5300
4      O4      1.3250    0.2891    1.9343 O.2      1 ZINC000040836075   -0.5200
5      N5      0.9710   -1.8260    1.3659 N.am     1 ZINC000040836075   -0.5900
6      C6      0.4126   -2.8927    0.5151 C.3      1 ZINC000040836075    0.0900
7      C7      0.3248   -4.1324    1.4398 C.3      1 ZINC000040836075    0.1300
8      H8      0.3512   -5.0550    0.8600 H        1 ZINC000040836075    0.1100
9      N9     -0.8745   -4.0773    2.2794 N.am     1 ZINC000040836075   -0.7100
10     C10    -2.0448   -4.5583    1.8151 C.2      1 ZINC000040836075    0.5600
11     O11    -2.1051   -5.0379    0.6998 O.2      1 ZINC000040836075   -0.5400
12     C12    -3.2551   -4.5028    2.6624 C.ar     1 ZINC000040836075   -0.1300
13     C13    -3.1905   -3.9476    3.9413 C.ar     1 ZINC000040836075   -0.0800
14     C14    -4.3237   -3.8984    4.7266 C.ar     1 ZINC000040836075   -0.1300
15     C15    -5.5222   -4.3983    4.2491 C.ar     1 ZINC000040836075   -0.1000
16     C16    -5.5930   -4.9504    2.9824 C.ar     1 ZINC000040836075   -0.1300
17     C17    -4.4686   -5.0001    2.1845 C.ar     1 ZINC000040836075   -0.0600
18     C18     1.6104   -3.9754    2.2942 C.3      1 ZINC000040836075   -0.1100
19     C19     1.7334   -2.4459    2.4595 C.3      1 ZINC000040836075    0.0700
20     H20     1.3120   -2.1415    3.4176 H        1 ZINC000040836075    0.0700
21     C21     3.1820   -2.0371    2.3840 C.2      1 ZINC000040836075    0.5000
22     O22     3.5899   -1.4137    1.4189 O.co2    1 ZINC000040836075   -0.6800
23     O23     3.9459   -2.3297    3.2880 O.co2    1 ZINC000040836075   -0.7000
24     H24     0.9191    1.8392    0.0032 H        1 ZINC000040836075    0.3500
25     H25    -0.5563    1.8234   -0.7642 H        1 ZINC000040836075    0.3400
26     H26    -1.0174   -0.3817    0.0806 H        1 ZINC000040836075    0.0900
27     H27     0.4494   -0.3563   -0.9275 H        1 ZINC000040836075    0.0500
28     H28    -0.5792   -2.6139    0.1592 H        1 ZINC000040836075    0.0700
29     H29     1.0760   -3.0932   -0.3262 H        1 ZINC000040836075    0.0800
30     H30    -0.8264   -3.6947    3.1694 H        1 ZINC000040836075    0.4000
31     H31    -2.2554   -3.5577    4.3154 H        1 ZINC000040836075    0.1300
32     H32    -4.2751   -3.4690    5.7164 H        1 ZINC000040836075    0.1300
33     H33    -6.4064   -4.3577    4.8680 H        1 ZINC000040836075    0.1300
34     H34    -6.5315   -5.3392    2.6158 H        1 ZINC000040836075    0.1300
35     H35    -4.5252   -5.4309    1.1958 H        1 ZINC000040836075    0.1400
36     H36     1.4919   -4.4620    3.2623 H        1 ZINC000040836075    0.0800
37     H37     2.4762   -4.3733    1.7648 H        1 ZINC000040836075    0.0900
@<TRIPOS>BOND
1     1     2     1
2     1     24    1
3     1     25    1
4     2     3     1
5     2     26    1
6     2     27    1
7     3     4     2
8     3     5     am
9     5     19    1
10    5     6     1
11    6     7     1
12    6     28    1
13    6     29    1
14    7     8     1
15    7     9     1
16    7     18    1
17    9     10    am
18    9     30    1
19    10    11    2
20    10    12    1
21    12    17    ar
22    12    13    ar
23    13    14    ar
24    13    31    1
25    14    15    ar
26    14    32    1
27    15    16    ar
28    15    33    1
29    16    17    ar
30    16    34    1
31    17    35    1
32    18    19    1
33    18    36    1
34    18    37    1
35    19    20    1
36    19    21    1
37    21    22    ar
38    21    23    ar
@<TRIPOS>SUBSTRUCTURE
1   ZINC000040836075 1     RESIDUE    1   A     ZIN   1
