@<TRIPOS>MOLECULE
ZINC000001849528
53    56    1     0     0
SMALL
USER_CHARGES
@<TRIPOS>ATOM
1      C1      0.0412   -1.1879    0.0176 C.1      1 ZINC000001849528   -0.1600
2      C2      0.0169   -0.0141    0.0249 C.1      1 ZINC000001849528   -0.2000
3      C3     -0.0135    1.4575    0.0339 C.3      1 ZINC000001849528    0.2500
4      O4     -0.7148    1.9382    1.2109 O.3      1 ZINC000001849528   -0.3400
5      C5     -1.9904    1.5487    1.3617 C.2      1 ZINC000001849528    0.4500
6      C6     -2.7820    2.0080    2.5591 C.3      1 ZINC000001849528   -0.1500
7      O7     -2.5041    0.8299    0.5375 O.2      1 ZINC000001849528   -0.5000
8      C8     -0.6938    1.9882   -1.2526 C.3      1 ZINC000001849528   -0.1300
9      C9      0.3972    2.7696   -2.0345 C.3      1 ZINC000001849528   -0.1200
10     C10     1.7000    2.1483   -1.5189 C.3      1 ZINC000001849528   -0.0800
11     H11     1.8539    1.1654   -1.9643 H        1 ZINC000001849528    0.0800
12     C12     2.9460    3.0004   -1.6786 C.3      1 ZINC000001849528   -0.0800
13     H13     2.8060    3.9615   -1.1838 H        1 ZINC000001849528    0.0900
14     C14     3.2384    3.2155   -3.1664 C.3      1 ZINC000001849528   -0.1100
15     C15     4.4541    4.1333   -3.3113 C.3      1 ZINC000001849528   -0.1000
16     C16     5.6151    3.5319   -2.5405 C.2      1 ZINC000001849528   -0.0300
17     C17     6.7907    3.4415   -3.1622 C.2      1 ZINC000001849528   -0.2400
18     C18     7.9514    2.8828   -2.4607 C.2      1 ZINC000001849528    0.3900
19     O19     8.9053    2.4338   -3.0612 O.2      1 ZINC000001849528   -0.4600
20     C20     7.8966    2.8963   -0.9455 C.3      1 ZINC000001849528   -0.1700
21     C21     6.5484    2.3082   -0.5316 C.3      1 ZINC000001849528   -0.1100
22     C22     5.3887    3.0858   -1.1290 C.3      1 ZINC000001849528   -0.0600
23     H23     5.2352    3.9798   -0.5246 H        1 ZINC000001849528    0.0900
24     C24     4.1129    2.2414   -1.0305 C.3      1 ZINC000001849528   -0.0700
25     H25     4.2586    1.3132   -1.5831 H        1 ZINC000001849528    0.0700
26     C26     3.8449    1.9102    0.4347 C.3      1 ZINC000001849528   -0.1100
27     C27     2.5120    1.1671    0.6155 C.3      1 ZINC000001849528   -0.1000
28     C28     1.4055    2.0157   -0.0005 C.3      1 ZINC000001849528   -0.0500
29     C29     1.4345    3.4220    0.6014 C.3      1 ZINC000001849528   -0.1400
30     H30     0.0629   -2.2376    0.0112 H        1 ZINC000001849528    0.2200
31     H31    -2.1567    2.6438    3.1858 H        1 ZINC000001849528    0.0900
32     H32    -3.6530    2.5715    2.2244 H        1 ZINC000001849528    0.1100
33     H33    -3.1088    1.1408    3.1329 H        1 ZINC000001849528    0.1000
34     H34    -1.0601    1.1553   -1.8529 H        1 ZINC000001849528    0.0800
35     H35    -1.5171    2.6537   -0.9932 H        1 ZINC000001849528    0.0800
36     H36     0.2918    2.6095   -3.1076 H        1 ZINC000001849528    0.0700
37     H37     0.3559    3.8324   -1.7962 H        1 ZINC000001849528    0.0800
38     H38     3.4481    2.2558   -3.6389 H        1 ZINC000001849528    0.0700
39     H39     2.3744    3.6770   -3.6445 H        1 ZINC000001849528    0.0700
40     H40     4.7215    4.2221   -4.3642 H        1 ZINC000001849528    0.0800
41     H41     4.2187    5.1181   -2.9076 H        1 ZINC000001849528    0.0800
42     H42     6.8886    3.7796   -4.1832 H        1 ZINC000001849528    0.1300
43     H43     8.7058    2.2890   -0.5401 H        1 ZINC000001849528    0.0900
44     H44     7.9819    3.9199   -0.5808 H        1 ZINC000001849528    0.1000
45     H45     6.4935    1.2731   -0.8689 H        1 ZINC000001849528    0.0700
46     H46     6.4693    2.3310    0.5553 H        1 ZINC000001849528    0.0800
47     H47     4.6543    1.2849    0.8115 H        1 ZINC000001849528    0.0700
48     H48     3.8163    2.8362    1.0089 H        1 ZINC000001849528    0.0700
49     H49     2.5418    0.2162    0.0835 H        1 ZINC000001849528    0.0600
50     H50     2.3235    0.9950    1.6752 H        1 ZINC000001849528    0.0700
51     H51     2.4336    3.8438    0.4914 H        1 ZINC000001849528    0.0700
52     H52     0.7140    4.0542    0.0826 H        1 ZINC000001849528    0.0600
53     H53     1.1766    3.3698    1.6592 H        1 ZINC000001849528    0.0600
@<TRIPOS>BOND
1     1     2     3
2     1     30    1
3     2     3     1
4     3     28    1
5     3     4     1
6     3     8     1
7     4     5     1
8     5     6     1
9     5     7     2
10    6     31    1
11    6     32    1
12    6     33    1
13    8     9     1
14    8     34    1
15    8     35    1
16    9     10    1
17    9     36    1
18    9     37    1
19    10    11    1
20    10    28    1
21    10    12    1
22    12    13    1
23    12    24    1
24    12    14    1
25    14    15    1
26    14    38    1
27    14    39    1
28    15    16    1
29    15    40    1
30    15    41    1
31    16    22    1
32    16    17    2
33    17    18    1
34    17    42    1
35    18    19    2
36    18    20    1
37    20    21    1
38    20    43    1
39    20    44    1
40    21    22    1
41    21    45    1
42    21    46    1
43    22    23    1
44    22    24    1
45    24    25    1
46    24    26    1
47    26    27    1
48    26    47    1
49    26    48    1
50    27    28    1
51    27    49    1
52    27    50    1
53    28    29    1
54    29    51    1
55    29    52    1
56    29    53    1
@<TRIPOS>SUBSTRUCTURE
1   ZINC000001849528 1     RESIDUE    1   A     ZIN   1
