@<TRIPOS>MOLECULE
ZINC000118417658
61    65    1     0     0
SMALL
USER_CHARGES
@<TRIPOS>ATOM
1      O1      0.0021   -0.0041    0.0020 O.2      1 ZINC000118417658   -0.5000
2      C2     -0.0144    1.2113    0.0087 C.2      1 ZINC000118417658    0.5700
3      C3     -1.2365    2.0381    0.0312 C.ar     1 ZINC000118417658   -0.1100
4      C4     -2.5933    1.7098    0.0490 C.ar     1 ZINC000118417658   -0.0700
5      C5     -3.5439    2.7101    0.0686 C.ar     1 ZINC000118417658   -0.0800
6      C6     -3.1612    4.0386    0.0703 C.ar     1 ZINC000118417658   -0.1700
7      C7     -1.8131    4.3763    0.0528 C.ar     1 ZINC000118417658    0.1400
8      O8     -1.4380    5.6826    0.0549 O.3      1 ZINC000118417658   -0.3100
9      C9     -2.4825    6.6575    0.0758 C.3      1 ZINC000118417658    0.0900
10     C10    -1.8804    8.0390    0.0751 C.ar     1 ZINC000118417658   -0.0600
11     C11    -1.5817    8.6633    1.2717 C.ar     1 ZINC000118417658   -0.0900
12     C12    -1.0293    9.9305    1.2711 C.ar     1 ZINC000118417658   -0.0900
13     C13    -0.7753   10.5732    0.0739 C.ar     1 ZINC000118417658   -0.1500
14     C14    -0.1736   11.9549    0.0732 C.3      1 ZINC000118417658    0.0400
15     N15     1.2914   11.8509    0.0456 N.4      1 ZINC000118417658   -0.3800
16     H16     1.6026   11.2771    0.8149 H        1 ZINC000118417658    0.4200
17     C17     1.8801   13.1919    0.1652 C.3      1 ZINC000118417658   -0.0400
18     C18     3.4065   13.0809    0.1364 C.3      1 ZINC000118417658    0.0400
19     O19     3.8096   12.4364   -1.0752 O.3      1 ZINC000118417658   -0.3600
20     C20     3.2423   11.1349   -1.2490 C.3      1 ZINC000118417658    0.0400
21     C21     1.7156   11.2421   -1.2227 C.3      1 ZINC000118417658   -0.0500
22     C22    -1.0728    9.9483   -1.1228 C.ar     1 ZINC000118417658   -0.1000
23     C23    -1.6216    8.6795   -1.1222 C.ar     1 ZINC000118417658   -0.0900
24     C24    -0.8561    3.3816    0.0335 C.ar     1 ZINC000118417658   -0.1100
25     C25     0.6518    3.3985    0.0124 C.3      1 ZINC000118417658    0.1600
26     N26     1.0781    1.9945    0.0025 N.am     1 ZINC000118417658   -0.6000
27     C27     2.4653    1.5239   -0.0183 C.3      1 ZINC000118417658    0.1500
28     H28     3.1402    2.3798   -0.0254 H        1 ZINC000118417658    0.1400
29     C29     2.7349    0.6694    1.2248 C.3      1 ZINC000118417658   -0.1400
30     C30     4.1530    0.0973    1.1255 C.3      1 ZINC000118417658   -0.1400
31     C31     4.2913   -0.6592   -0.1692 C.2      1 ZINC000118417658    0.5200
32     O32     5.0638   -1.5913   -0.2334 O.2      1 ZINC000118417658   -0.4900
33     N33     3.5760   -0.3220   -1.2527 N.am     1 ZINC000118417658   -0.6700
34     C34     2.6958    0.6911   -1.2516 C.2      1 ZINC000118417658    0.5100
35     O35     2.0731    0.9385   -2.2619 O.2      1 ZINC000118417658   -0.4800
36     H36    -2.8988    0.6739    0.0470 H        1 ZINC000118417658    0.1400
37     H37    -4.5929    2.4536    0.0823 H        1 ZINC000118417658    0.1400
38     H38    -3.9113    4.8155    0.0850 H        1 ZINC000118417658    0.1400
39     H39    -3.1116    6.5349   -0.8059 H        1 ZINC000118417658    0.0800
40     H40    -3.0858    6.5245    0.9738 H        1 ZINC000118417658    0.0800
41     H41    -1.7801    8.1612    2.2070 H        1 ZINC000118417658    0.1400
42     H42    -0.7966   10.4186    2.2060 H        1 ZINC000118417658    0.1400
43     H43    -0.5159   12.4998   -0.8066 H        1 ZINC000118417658    0.1400
44     H44    -0.4833   12.4864    0.9730 H        1 ZINC000118417658    0.1400
45     H45     1.5448   13.8117   -0.6664 H        1 ZINC000118417658    0.1400
46     H46     1.5661   13.6443    1.1059 H        1 ZINC000118417658    0.1400
47     H47     3.8449   14.0779    0.1816 H        1 ZINC000118417658    0.1400
48     H48     3.7450   12.4946    0.9906 H        1 ZINC000118417658    0.0800
49     H49     3.5619   10.7235   -2.2065 H        1 ZINC000118417658    0.1400
50     H50     3.5752   10.4820   -0.4422 H        1 ZINC000118417658    0.0800
51     H51     1.2796   10.2471   -1.3124 H        1 ZINC000118417658    0.1400
52     H52     1.3803   11.8626   -2.0538 H        1 ZINC000118417658    0.1400
53     H53    -0.8740   10.4503   -2.0581 H        1 ZINC000118417658    0.1400
54     H54    -1.8540    8.1913   -2.0571 H        1 ZINC000118417658    0.1400
55     H55     1.0082    3.9068   -0.8835 H        1 ZINC000118417658    0.1000
56     H56     1.0333    3.8972    0.9034 H        1 ZINC000118417658    0.1000
57     H57     2.6512    1.2873    2.1189 H        1 ZINC000118417658    0.1000
58     H58     2.0135   -0.1464    1.2717 H        1 ZINC000118417658    0.1000
59     H59     4.8770    0.9118    1.1506 H        1 ZINC000118417658    0.1200
60     H60     4.3332   -0.5772    1.9626 H        1 ZINC000118417658    0.1200
61     H61     3.7004   -0.8299   -2.0697 H        1 ZINC000118417658    0.4200
@<TRIPOS>BOND
1     1     2     2
2     2     26    am
3     2     3     1
4     3     24    ar
5     3     4     ar
6     4     5     ar
7     4     36    1
8     5     6     ar
9     5     37    1
10    6     7     ar
11    6     38    1
12    7     8     1
13    7     24    ar
14    8     9     1
15    9     10    1
16    9     39    1
17    9     40    1
18    10    23    ar
19    10    11    ar
20    11    12    ar
21    11    41    1
22    12    13    ar
23    12    42    1
24    13    14    1
25    13    22    ar
26    14    15    1
27    14    43    1
28    14    44    1
29    15    16    1
30    15    21    1
31    15    17    1
32    17    18    1
33    17    45    1
34    17    46    1
35    18    19    1
36    18    47    1
37    18    48    1
38    19    20    1
39    20    21    1
40    20    49    1
41    20    50    1
42    21    51    1
43    21    52    1
44    22    23    ar
45    22    53    1
46    23    54    1
47    24    25    1
48    25    26    1
49    25    55    1
50    25    56    1
51    26    27    1
52    27    28    1
53    27    34    1
54    27    29    1
55    29    30    1
56    29    57    1
57    29    58    1
58    30    31    1
59    30    59    1
60    30    60    1
61    31    32    2
62    31    33    am
63    33    34    am
64    33    61    1
65    34    35    2
@<TRIPOS>SUBSTRUCTURE
1   ZINC000118417658 1     RESIDUE    1   A     ZIN   1
