@<TRIPOS>MOLECULE
ZINC000096170459
59    62    1     0     0
SMALL
USER_CHARGES
@<TRIPOS>ATOM
1      C1     -0.0178    1.4648    0.0101 C.3      1 ZINC000096170459   -0.0500
2      N2      0.0021   -0.0041    0.0020 N.4      1 ZINC000096170459   -0.5100
3      H3      0.4901   -0.3383    0.8195 H        1 ZINC000096170459    0.4300
4      H4     -0.9445   -0.3533    0.0092 H        1 ZINC000096170459    0.4300
5      C5      0.6897   -0.4778   -1.2066 C.3      1 ZINC000096170459    0.0400
6      C6      0.7101   -1.9847   -1.2149 C.ar     1 ZINC000096170459   -0.1600
7      C7      1.7608   -2.6628   -0.6239 C.ar     1 ZINC000096170459   -0.0900
8      C8      1.7845   -4.0429   -0.6286 C.ar     1 ZINC000096170459   -0.0900
9      C9      0.7474   -4.7527   -1.2297 C.ar     1 ZINC000096170459    0.0200
10     C10     0.7673   -6.2372   -1.2374 C.2      1 ZINC000096170459    0.0400
11     N11     1.6860   -7.0135   -0.7164 N.2      1 ZINC000096170459   -0.3300
12     O12     1.4298   -8.1834   -0.8797 O.3      1 ZINC000096170459    0.1100
13     C13     0.2750   -8.3515   -1.5494 C.2      1 ZINC000096170459    0.0400
14     C14    -0.3502   -9.6349   -1.9275 C.ar     1 ZINC000096170459    0.0700
15     N15    -1.6730   -9.7546   -1.9372 N.ar     1 ZINC000096170459   -0.3600
16     C16    -2.2306  -10.9111   -2.2785 C.ar     1 ZINC000096170459    0.0500
17     C17    -3.7076  -11.0458   -2.2903 C.ar     1 ZINC000096170459    0.0200
18     C18    -4.5134   -9.9340   -2.0515 C.ar     1 ZINC000096170459   -0.1100
19     C19    -5.8871  -10.0651   -2.0642 C.ar     1 ZINC000096170459   -0.0200
20     C20    -6.4646  -11.2973   -2.3128 C.ar     1 ZINC000096170459   -0.6500
21     S21    -8.2193  -11.4574   -2.3268 S.o2     1 ZINC000096170459    2.4900
22     O22    -8.4498  -12.8179   -1.9877 O.2      1 ZINC000096170459   -0.9300
23     O23    -8.6738  -10.4057   -1.4862 O.2      1 ZINC000096170459   -0.9300
24     C24    -8.6887  -11.1427   -4.0505 C.3      1 ZINC000096170459   -0.5700
25     C25   -10.2141  -11.1307   -4.1696 C.3      1 ZINC000096170459   -0.1500
26     C26    -8.1321   -9.7874   -4.4914 C.3      1 ZINC000096170459   -0.1500
27     C27    -5.6698  -12.4041   -2.5509 C.ar     1 ZINC000096170459   -0.0200
28     C28    -4.2950  -12.2836   -2.5459 C.ar     1 ZINC000096170459   -0.1300
29     C29    -1.4296  -11.9987   -2.6262 C.ar     1 ZINC000096170459    0.1600
30     N30    -0.1136  -11.8851   -2.6177 N.ar     1 ZINC000096170459   -0.4900
31     C31     0.4529  -10.7331   -2.2841 C.ar     1 ZINC000096170459    0.4000
32     N32     1.8334  -10.6150   -2.2760 N.pl3    1 ZINC000096170459   -0.8200
33     C33    -0.2077   -7.0982   -1.8050 C.2      1 ZINC000096170459   -0.1700
34     C34    -0.3086   -4.0647   -1.8231 C.ar     1 ZINC000096170459   -0.0900
35     C35    -0.3248   -2.6846   -1.8085 C.ar     1 ZINC000096170459   -0.0900
36     H36     1.0047    1.8421    0.0024 H        1 ZINC000096170459    0.1200
37     H37    -0.5450    1.8259   -0.8730 H        1 ZINC000096170459    0.1200
38     H38    -0.5280    1.8163    0.9069 H        1 ZINC000096170459    0.1300
39     H39     0.1625   -0.1167   -2.0897 H        1 ZINC000096170459    0.1400
40     H40     1.7123   -0.1005   -1.2143 H        1 ZINC000096170459    0.1400
41     H41     2.5643   -2.1115   -0.1582 H        1 ZINC000096170459    0.1400
42     H42     2.6057   -4.5714   -0.1675 H        1 ZINC000096170459    0.1400
43     H43    -4.0635   -8.9716   -1.8566 H        1 ZINC000096170459    0.1400
44     H44    -6.5125   -9.2042   -1.8793 H        1 ZINC000096170459    0.1500
45     H45    -8.2807  -11.9276   -4.6873 H        1 ZINC000096170459    0.1400
46     H46   -10.6220  -10.3457   -3.5328 H        1 ZINC000096170459    0.0800
47     H47   -10.4961  -10.9416   -5.2054 H        1 ZINC000096170459    0.0900
48     H48   -10.6106  -12.0961   -3.8555 H        1 ZINC000096170459    0.0700
49     H49    -7.0454   -9.7960   -4.4066 H        1 ZINC000096170459    0.0700
50     H50    -8.4142   -9.5983   -5.5272 H        1 ZINC000096170459    0.0800
51     H51    -8.5401   -9.0025   -3.8546 H        1 ZINC000096170459    0.0800
52     H52    -6.1261  -13.3637   -2.7444 H        1 ZINC000096170459    0.1500
53     H53    -3.6754  -13.1485   -2.7319 H        1 ZINC000096170459    0.1400
54     H54    -1.8869  -12.9371   -2.9030 H        1 ZINC000096170459    0.1900
55     H55     2.3866  -11.3753   -2.5144 H        1 ZINC000096170459    0.4200
56     H56     2.2467   -9.7721   -2.0318 H        1 ZINC000096170459    0.4100
57     H57    -1.1154   -6.8268   -2.3234 H        1 ZINC000096170459    0.1800
58     H58    -1.1150   -4.6102   -2.2907 H        1 ZINC000096170459    0.1400
59     H59    -1.1432   -2.1502   -2.2679 H        1 ZINC000096170459    0.1400
@<TRIPOS>BOND
1     1     2     1
2     1     36    1
3     1     37    1
4     1     38    1
5     2     3     1
6     2     4     1
7     2     5     1
8     5     6     1
9     5     39    1
10    5     40    1
11    6     35    ar
12    6     7     ar
13    7     8     ar
14    7     41    1
15    8     9     ar
16    8     42    1
17    9     10    1
18    9     34    ar
19    10    33    1
20    10    11    2
21    11    12    1
22    12    13    1
23    13    14    1
24    13    33    2
25    14    31    ar
26    14    15    ar
27    15    16    ar
28    16    17    1
29    16    29    ar
30    17    28    ar
31    17    18    ar
32    18    19    ar
33    18    43    1
34    19    20    ar
35    19    44    1
36    20    21    1
37    20    27    ar
38    21    22    2
39    21    23    2
40    21    24    1
41    24    25    1
42    24    26    1
43    24    45    1
44    25    46    1
45    25    47    1
46    25    48    1
47    26    49    1
48    26    50    1
49    26    51    1
50    27    28    ar
51    27    52    1
52    28    53    1
53    29    30    ar
54    29    54    1
55    30    31    ar
56    31    32    1
57    32    55    1
58    32    56    1
59    33    57    1
60    34    35    ar
61    34    58    1
62    35    59    1
@<TRIPOS>SUBSTRUCTURE
1   ZINC000096170459 1     RESIDUE    1   A     ZIN   1
