@<TRIPOS>MOLECULE
ZINC000045348138
49    53    1     0     0
SMALL
USER_CHARGES
@<TRIPOS>ATOM
1      O1      0.0021   -0.0041    0.0020 O.2      1 ZINC000045348138   -0.5100
2      C2     -0.0144    1.2087    0.0087 C.2      1 ZINC000045348138    0.5300
3      N3      1.1435    1.8984    0.0013 N.am     1 ZINC000045348138   -0.6300
4      C4      2.3661    1.2145   -0.0140 C.2      1 ZINC000045348138    0.3000
5      N5      3.5568    1.7667   -0.0167 N.2      1 ZINC000045348138   -0.3000
6      N6      4.5138    0.7438   -0.0328 N.pl3    1 ZINC000045348138   -0.3200
7      C7      5.9050    0.9160   -0.0404 C.ar     1 ZINC000045348138    0.1300
8      C8      6.7426   -0.1902   -0.0617 C.ar     1 ZINC000045348138   -0.1200
9      C9      8.1135   -0.0176   -0.0691 C.ar     1 ZINC000045348138   -0.1000
10     C10     8.6524    1.2555   -0.0548 C.ar     1 ZINC000045348138   -0.1000
11     C11     7.8220    2.3612   -0.0336 C.ar     1 ZINC000045348138   -0.1300
12     C12     6.4490    2.1960   -0.0323 C.ar     1 ZINC000045348138    0.1000
13     F13     5.6376    3.2760   -0.0120 F        1 ZINC000045348138   -0.1200
14     C14     3.8559   -0.4439   -0.0397 C.2      1 ZINC000045348138    0.0600
15     C15     2.5294   -0.1804   -0.0231 C.2      1 ZINC000045348138   -0.2500
16     C16    -1.3296    1.9444    0.0189 C.3      1 ZINC000045348138   -0.1100
17     C17    -1.4286    2.8295   -1.2252 C.3      1 ZINC000045348138   -0.1100
18     C18    -1.3347    1.9580   -2.4794 C.3      1 ZINC000045348138   -0.1200
19     C19    -2.4736    0.9385   -2.4792 C.3      1 ZINC000045348138    0.1600
20     C20    -2.3878    0.0584   -1.2324 C.3      1 ZINC000045348138   -0.1300
21     C21    -2.4789    0.9345    0.0189 C.3      1 ZINC000045348138   -0.1000
22     O22    -3.7541    1.6243   -2.5162 O.3      1 ZINC000045348138   -0.3000
23     C23    -4.4130    1.2600   -3.6303 C.2      1 ZINC000045348138    0.5200
24     O24    -5.5133    1.6617   -3.9506 O.2      1 ZINC000045348138   -0.4400
25     C25    -3.6042    0.3022   -4.4066 C.ar     1 ZINC000045348138   -0.1500
26     C26    -3.8034   -0.3752   -5.6099 C.ar     1 ZINC000045348138   -0.0900
27     C27    -2.8117   -1.2248   -6.0661 C.ar     1 ZINC000045348138    0.1000
28     N28    -1.6969   -1.3974   -5.3845 N.ar     1 ZINC000045348138   -0.4500
29     C29    -1.4698   -0.7751   -4.2420 C.ar     1 ZINC000045348138    0.1300
30     C30    -2.4051    0.0873   -3.7186 C.ar     1 ZINC000045348138   -0.1400
31     H31     1.1304    2.8683    0.0067 H        1 ZINC000045348138    0.4200
32     H32     6.3233   -1.1854   -0.0721 H        1 ZINC000045348138    0.1400
33     H33     8.7652   -0.8786   -0.0856 H        1 ZINC000045348138    0.1400
34     H34     9.7244    1.3868   -0.0600 H        1 ZINC000045348138    0.1400
35     H35     8.2460    3.3544   -0.0225 H        1 ZINC000045348138    0.1500
36     H36     4.3104   -1.4235   -0.0520 H        1 ZINC000045348138    0.1800
37     H37     1.7359   -0.9131   -0.0228 H        1 ZINC000045348138    0.1800
38     H38    -1.3916    2.5654    0.9126 H        1 ZINC000045348138    0.1100
39     H39    -2.3820    3.3578   -1.2204 H        1 ZINC000045348138    0.0900
40     H40    -0.6126    3.5522   -1.2229 H        1 ZINC000045348138    0.0800
41     H41    -1.4111    2.5878   -3.3658 H        1 ZINC000045348138    0.0800
42     H42    -0.3786    1.4346   -2.4873 H        1 ZINC000045348138    0.0900
43     H43    -3.2101   -0.6571   -1.2356 H        1 ZINC000045348138    0.0800
44     H44    -1.4392   -0.4786   -1.2315 H        1 ZINC000045348138    0.1200
45     H45    -2.4113    0.3069    0.9075 H        1 ZINC000045348138    0.0800
46     H46    -3.4302    1.4666    0.0214 H        1 ZINC000045348138    0.0800
47     H47    -4.7143   -0.2393   -6.1740 H        1 ZINC000045348138    0.1500
48     H48    -2.9533   -1.7556   -6.9960 H        1 ZINC000045348138    0.1700
49     H49    -0.5426   -0.9445   -3.7146 H        1 ZINC000045348138    0.1700
@<TRIPOS>BOND
1     1     2     2
2     2     3     am
3     2     16    1
4     3     4     1
5     3     31    1
6     4     15    1
7     4     5     2
8     5     6     1
9     6     7     1
10    6     14    1
11    7     12    ar
12    7     8     ar
13    8     9     ar
14    8     32    1
15    9     10    ar
16    9     33    1
17    10    11    ar
18    10    34    1
19    11    12    ar
20    11    35    1
21    12    13    1
22    14    15    2
23    14    36    1
24    15    37    1
25    16    21    1
26    16    17    1
27    16    38    1
28    17    18    1
29    17    39    1
30    17    40    1
31    18    19    1
32    18    41    1
33    18    42    1
34    19    30    1
35    19    20    1
36    19    22    1
37    20    21    1
38    20    43    1
39    20    44    1
40    21    45    1
41    21    46    1
42    22    23    1
43    23    24    2
44    23    25    1
45    25    30    ar
46    25    26    ar
47    26    27    ar
48    26    47    1
49    27    28    ar
50    27    48    1
51    28    29    ar
52    29    30    ar
53    29    49    1
@<TRIPOS>SUBSTRUCTURE
1   ZINC000045348138 1     RESIDUE    1   A     ZIN   1
