@<TRIPOS>MOLECULE
ZINC000013475083
47    48    1     0     0
SMALL
USER_CHARGES
@<TRIPOS>ATOM
1      C1     -0.0184    1.5028    0.0103 C.3      1 ZINC000013475083   -0.1200
2      C2      0.0021   -0.0041    0.0020 C.ar     1 ZINC000013475083   -0.0400
3      C3      0.0058   -0.6876   -1.1984 C.ar     1 ZINC000013475083   -0.1600
4      C4      0.0251   -2.0748   -1.2054 C.ar     1 ZINC000013475083    0.1500
5      O5      0.0292   -2.7495   -2.3851 O.3      1 ZINC000013475083   -0.2800
6      C6      0.0494   -4.1767   -2.3160 C.3      1 ZINC000013475083   -0.0100
7      C7      0.0511   -4.7471   -3.7109 C.2      1 ZINC000013475083    0.5000
8      O8      0.0364   -4.0007   -4.6748 O.co2    1 ZINC000013475083   -0.6700
9      O9      0.0672   -5.9551   -3.8756 O.co2    1 ZINC000013475083   -0.6900
10     C10     0.0406   -2.7720   -0.0061 C.ar     1 ZINC000013475083   -0.2200
11     C11     0.0368   -2.0838    1.1917 C.ar     1 ZINC000013475083   -0.0400
12     C12     0.0541   -2.8405    2.4948 C.3      1 ZINC000013475083   -0.1200
13     C13     0.0229   -0.7012    1.1959 C.ar     1 ZINC000013475083   -0.1400
14     C14     0.0192    0.0471    2.5040 C.3      1 ZINC000013475083   -0.0400
15     C15     1.4388    0.3108    2.9358 C.ar     1 ZINC000013475083   -0.0700
16     C16     2.1029   -0.6109    3.7236 C.ar     1 ZINC000013475083   -0.1100
17     C17     3.4045   -0.3716    4.1204 C.ar     1 ZINC000013475083   -0.1400
18     C18     4.0449    0.7945    3.7278 C.ar     1 ZINC000013475083    0.0900
19     O19     5.3253    1.0319    4.1164 O.3      1 ZINC000013475083   -0.5000
20     C20     3.3761    1.7180    2.9371 C.ar     1 ZINC000013475083   -0.1000
21     C21     4.0690    2.9857    2.5082 C.3      1 ZINC000013475083   -0.0600
22     C22     4.1286    3.0425    0.9804 C.3      1 ZINC000013475083   -0.1500
23     C23     3.2918    4.1944    3.0336 C.3      1 ZINC000013475083   -0.1400
24     C24     2.0767    1.4717    2.5386 C.ar     1 ZINC000013475083   -0.1000
25     H25     1.0042    1.8801    0.0026 H        1 ZINC000013475083    0.0700
26     H26    -0.5455    1.8639   -0.8728 H        1 ZINC000013475083    0.0700
27     H27    -0.5286    1.8543    0.9071 H        1 ZINC000013475083    0.0700
28     H28    -0.0067   -0.1426   -2.1308 H        1 ZINC000013475083    0.1300
29     H29     0.9463   -4.5024   -1.7892 H        1 ZINC000013475083    0.0600
30     H30    -0.8335   -4.5271   -1.7813 H        1 ZINC000013475083    0.0600
31     H31     0.0552   -3.8519   -0.0089 H        1 ZINC000013475083    0.1300
32     H32     1.0859   -3.0083    2.8038 H        1 ZINC000013475083    0.0700
33     H33    -0.4642   -2.2607    3.2586 H        1 ZINC000013475083    0.0700
34     H34    -0.4467   -3.7998    2.3646 H        1 ZINC000013475083    0.0700
35     H35    -0.5045    0.9948    2.3790 H        1 ZINC000013475083    0.0800
36     H36    -0.4864   -0.5502    3.2628 H        1 ZINC000013475083    0.0800
37     H37     1.6038   -1.5185    4.0294 H        1 ZINC000013475083    0.1300
38     H38     3.9229   -1.0918    4.7362 H        1 ZINC000013475083    0.1300
39     H39     5.9917    0.6936    3.5028 H        1 ZINC000013475083    0.3900
40     H40     5.0812    3.0010    2.9122 H        1 ZINC000013475083    0.0800
41     H41     4.6297    3.9594    0.6703 H        1 ZINC000013475083    0.0600
42     H42     4.6822    2.1814    0.6062 H        1 ZINC000013475083    0.0600
43     H43     3.1163    3.0272    0.5765 H        1 ZINC000013475083    0.0600
44     H44     3.2493    4.1539    4.1220 H        1 ZINC000013475083    0.0500
45     H45     3.7930    5.1113    2.7234 H        1 ZINC000013475083    0.0600
46     H46     2.2796    4.1791    2.6296 H        1 ZINC000013475083    0.0600
47     H47     1.5558    2.1900    1.9229 H        1 ZINC000013475083    0.1300
@<TRIPOS>BOND
1     1     2     1
2     1     25    1
3     1     26    1
4     1     27    1
5     2     13    ar
6     2     3     ar
7     3     4     ar
8     3     28    1
9     4     5     1
10    4     10    ar
11    5     6     1
12    6     7     1
13    6     29    1
14    6     30    1
15    7     8     ar
16    7     9     ar
17    10    11    ar
18    10    31    1
19    11    12    1
20    11    13    ar
21    12    32    1
22    12    33    1
23    12    34    1
24    13    14    1
25    14    15    1
26    14    35    1
27    14    36    1
28    15    24    ar
29    15    16    ar
30    16    17    ar
31    16    37    1
32    17    18    ar
33    17    38    1
34    18    19    1
35    18    20    ar
36    19    39    1
37    20    21    1
38    20    24    ar
39    21    22    1
40    21    23    1
41    21    40    1
42    22    41    1
43    22    42    1
44    22    43    1
45    23    44    1
46    23    45    1
47    23    46    1
48    24    47    1
@<TRIPOS>SUBSTRUCTURE
1   ZINC000013475083 1     RESIDUE    1   A     ZIN   1
