@<TRIPOS>MOLECULE
ZINC000001817748
37    38    1     0     0
SMALL
USER_CHARGES
@<TRIPOS>ATOM
1      C1     -0.0187    1.5258    0.0104 C.3      1 ZINC000001817748   -0.1600
2      C2      0.0021   -0.0041    0.0020 C.3      1 ZINC000001817748    0.1300
3      H3      0.5293   -0.3651    0.8851 H        1 ZINC000001817748    0.1000
4      C4      0.7182   -0.4975   -1.2568 C.3      1 ZINC000001817748    0.1100
5      N5      0.6341   -1.9585   -1.3255 N.am     1 ZINC000001817748   -0.7300
6      C6      1.1985   -2.6182   -2.3564 C.2      1 ZINC000001817748    0.5700
7      O7      1.7774   -2.0010   -3.2290 O.2      1 ZINC000001817748   -0.5300
8      C8      1.1136   -4.0925   -2.4257 C.ar     1 ZINC000001817748   -0.1900
9      C9      1.7006   -4.7900   -3.4880 C.ar     1 ZINC000001817748   -0.0100
10     C10     1.5930   -6.1697   -3.5058 C.ar     1 ZINC000001817748   -0.1800
11     C11     0.9156   -6.8092   -2.4836 C.ar     1 ZINC000001817748    0.1200
12     N12     0.3716   -6.1254   -1.4947 N.ar     1 ZINC000001817748   -0.4900
13     C13     0.4518   -4.8128   -1.4303 C.ar     1 ZINC000001817748    0.1400
14     N14    -1.3723   -0.5112    0.0124 N.am     1 ZINC000001817748   -0.7300
15     C15    -2.0286   -0.6552    1.1807 C.2      1 ZINC000001817748    0.5700
16     O16    -1.4802   -0.3644    2.2258 O.2      1 ZINC000001817748   -0.5300
17     C17    -3.4156   -1.1669    1.1912 C.ar     1 ZINC000001817748   -0.1900
18     C18    -4.1103   -1.3157    2.3974 C.ar     1 ZINC000001817748   -0.0100
19     C19    -5.4066   -1.7983    2.3525 C.ar     1 ZINC000001817748   -0.1800
20     C20    -5.9690   -2.1152    1.1294 C.ar     1 ZINC000001817748    0.1300
21     N21    -5.2899   -1.9651    0.0080 N.ar     1 ZINC000001817748   -0.4900
22     C22    -4.0565   -1.5044   -0.0017 C.ar     1 ZINC000001817748    0.1400
23     H23     1.0039    1.9031    0.0027 H        1 ZINC000001817748    0.0700
24     H24    -0.5459    1.8868   -0.8726 H        1 ZINC000001817748    0.0600
25     H25    -0.5289    1.8773    0.9072 H        1 ZINC000001817748    0.0700
26     H26     0.2444   -0.0644   -2.1377 H        1 ZINC000001817748    0.0800
27     H27     1.7648   -0.1951   -1.2215 H        1 ZINC000001817748    0.0900
28     H28     0.1721   -2.4510   -0.6292 H        1 ZINC000001817748    0.4000
29     H29     2.2237   -4.2651   -4.2736 H        1 ZINC000001817748    0.1500
30     H30     2.0332   -6.7410   -4.3098 H        1 ZINC000001817748    0.1500
31     H31     0.8301   -7.8857   -2.4950 H        1 ZINC000001817748    0.1600
32     H32    -0.0062   -4.2883   -0.6047 H        1 ZINC000001817748    0.1500
33     H33    -1.8100   -0.7432   -0.8215 H        1 ZINC000001817748    0.4000
34     H34    -3.6464   -1.0607    3.3388 H        1 ZINC000001817748    0.1500
35     H35    -5.9729   -1.9265    3.2632 H        1 ZINC000001817748    0.1500
36     H36    -6.9804   -2.4921    1.0914 H        1 ZINC000001817748    0.1600
37     H37    -3.5331   -1.3952   -0.9401 H        1 ZINC000001817748    0.1600
@<TRIPOS>BOND
1     1     2     1
2     1     23    1
3     1     24    1
4     1     25    1
5     2     3     1
6     2     4     1
7     2     14    1
8     4     5     1
9     4     26    1
10    4     27    1
11    5     6     am
12    5     28    1
13    6     7     2
14    6     8     1
15    8     13    ar
16    8     9     ar
17    9     10    ar
18    9     29    1
19    10    11    ar
20    10    30    1
21    11    12    ar
22    11    31    1
23    12    13    ar
24    13    32    1
25    14    15    am
26    14    33    1
27    15    16    2
28    15    17    1
29    17    22    ar
30    17    18    ar
31    18    19    ar
32    18    34    1
33    19    20    ar
34    19    35    1
35    20    21    ar
36    20    36    1
37    21    22    ar
38    22    37    1
@<TRIPOS>SUBSTRUCTURE
1   ZINC000001817748 1     RESIDUE    1   A     ZIN   1
