@<TRIPOS>MOLECULE
ZINC000003965107
70    74    1     0     0
SMALL
USER_CHARGES
@<TRIPOS>ATOM
1      C1    -10.7200   -2.4539    1.2456 C.3      1 ZINC000003965107   -0.1500
2      C2     -9.2582   -2.9052    1.2596 C.3      1 ZINC000003965107    0.0600
3      O3     -8.4128   -1.7911    0.9663 O.3      1 ZINC000003965107   -0.1700
4      N4     -7.0317   -2.1034    0.9545 N.2      1 ZINC000003965107   -0.2100
5      C5     -6.1565   -1.1742    0.7000 C.2      1 ZINC000003965107    0.1500
6      C6     -6.6080    0.1894    0.3383 C.2      1 ZINC000003965107    0.5500
7      O7     -7.7902    0.4127    0.1673 O.2      1 ZINC000003965107   -0.4900
8      N8     -5.7076    1.1826    0.1988 N.am     1 ZINC000003965107   -0.6900
9      C9     -6.1378    2.4998   -0.2765 C.3      1 ZINC000003965107    0.1300
10     H10    -7.1887    2.7025   -0.0702 H        1 ZINC000003965107    0.1500
11     C11    -5.7303    2.7935   -1.7104 C.2      1 ZINC000003965107    0.5400
12     O12    -6.1272    2.4267   -2.7963 O.2      1 ZINC000003965107   -0.4100
13     N13    -4.7554    3.6217   -1.2974 N.am     1 ZINC000003965107   -0.5700
14     C14    -3.5799    4.1983   -1.8086 C.2      1 ZINC000003965107    0.1600
15     C15    -3.4678    4.4906   -3.2469 C.2      1 ZINC000003965107    0.5100
16     O16    -2.5877    5.2374   -3.6526 O.co2    1 ZINC000003965107   -0.6600
17     O17    -4.2548    3.9867   -4.0366 O.co2    1 ZINC000003965107   -0.5900
18     C18    -2.5719    4.4793   -0.9937 C.2      1 ZINC000003965107   -0.2500
19     C19    -1.3359    5.0415   -1.6475 C.3      1 ZINC000003965107    0.0600
20     N20    -1.3201    6.4980   -1.4908 N.ar     1 ZINC000003965107   -0.2800
21     C21    -0.3457    7.0651   -0.7836 C.ar     1 ZINC000003965107    0.2500
22     N22     0.7282    6.5727   -0.1164 N.2      1 ZINC000003965107   -0.4800
23     C23     1.3949    7.5504    0.4266 C.2      1 ZINC000003965107    0.3300
24     N24     0.7957    8.7374    0.1460 N.pl3    1 ZINC000003965107   -0.4800
25     C25     1.2466   10.0623    0.5789 C.3      1 ZINC000003965107    0.1100
26     C26     0.5114   10.4573    1.8613 C.3      1 ZINC000003965107   -0.1800
27     C27     0.9823   11.8410    2.3135 C.3      1 ZINC000003965107   -0.0100
28     N28     0.2765   12.2202    3.5448 N.4      1 ZINC000003965107   -0.5100
29     H29    -0.7169   12.2437    3.3694 H        1 ZINC000003965107    0.4300
30     H30     0.4745   11.5447    4.2676 H        1 ZINC000003965107    0.4300
31     C31     0.7285   13.5488    3.9789 C.3      1 ZINC000003965107   -0.0500
32     C32    -0.3160    8.4620   -0.6236 C.ar     1 ZINC000003965107    0.0200
33     C33    -1.3085    9.2373   -1.2085 C.ar     1 ZINC000003965107    0.0000
34     C34    -2.2979    8.5953   -1.9337 C.ar     1 ZINC000003965107   -0.1400
35     C35    -2.2664    7.2154   -2.0567 C.ar     1 ZINC000003965107    0.2000
36     C36    -2.5041    4.3097    0.4884 C.3      1 ZINC000003965107   -0.0200
37     S37    -3.7437    3.1298    1.1039 S.3      1 ZINC000003965107   -0.2000
38     C38    -5.2038    3.6336    0.1339 C.3      1 ZINC000003965107    0.1300
39     H39    -5.6832    4.5492    0.4804 H        1 ZINC000003965107    0.1500
40     C40    -4.7091   -1.4803    0.7721 C.2      1 ZINC000003965107    0.3700
41     N41    -3.8079   -0.5873    0.4454 N.2      1 ZINC000003965107   -0.4900
42     S42    -2.3039   -1.3451    0.6710 S.3      1 ZINC000003965107    0.2500
43     C43    -2.9760   -2.8405    1.1990 C.2      1 ZINC000003965107    0.3400
44     N44    -2.2921   -3.9820    1.5748 N.pl3    1 ZINC000003965107   -0.7800
45     N45    -4.2773   -2.6627    1.1735 N.2      1 ZINC000003965107   -0.5500
46     H46   -11.3649   -3.3037    1.4693 H        1 ZINC000003965107    0.0800
47     H47   -10.8679   -1.6779    1.9967 H        1 ZINC000003965107    0.0700
48     H48   -10.9688   -2.0584    0.2608 H        1 ZINC000003965107    0.0700
49     H49    -9.0095   -3.3007    2.2444 H        1 ZINC000003965107    0.0600
50     H50    -9.1103   -3.6812    0.5085 H        1 ZINC000003965107    0.0600
51     H51    -4.7748    1.0251    0.4132 H        1 ZINC000003965107    0.4300
52     H52    -0.4500    4.6157   -1.1764 H        1 ZINC000003965107    0.1100
53     H53    -1.3397    4.7902   -2.7081 H        1 ZINC000003965107    0.2000
54     H54     2.2932    7.4348    1.0149 H        1 ZINC000003965107    0.2400
55     H55     2.3197   10.0370    0.7684 H        1 ZINC000003965107    0.1200
56     H56     1.0326   10.7920   -0.2020 H        1 ZINC000003965107    0.1100
57     H57    -0.5617   10.4826    1.6719 H        1 ZINC000003965107    0.1000
58     H58     0.7254    9.7275    2.6422 H        1 ZINC000003965107    0.1000
59     H59     2.0554   11.8157    2.5030 H        1 ZINC000003965107    0.1400
60     H60     0.7683   12.5708    1.5326 H        1 ZINC000003965107    0.1400
61     H61     0.2048   13.8302    4.8925 H        1 ZINC000003965107    0.1300
62     H62     1.8016   13.5235    4.1684 H        1 ZINC000003965107    0.1300
63     H63     0.5146   14.2785    3.1980 H        1 ZINC000003965107    0.1300
64     H64    -1.3088   10.3118   -1.1004 H        1 ZINC000003965107    0.1600
65     H65    -3.0860    9.1658   -2.4027 H        1 ZINC000003965107    0.1900
66     H66    -3.0396    6.7176   -2.6230 H        1 ZINC000003965107    0.2300
67     H67    -1.5106    3.9515    0.7582 H        1 ZINC000003965107    0.1200
68     H68    -2.6703    5.2768    0.9629 H        1 ZINC000003965107    0.0800
69     H69    -1.3223   -3.9944    1.5566 H        1 ZINC000003965107    0.4300
70     H70    -2.7820   -4.7703    1.8566 H        1 ZINC000003965107    0.4200
@<TRIPOS>BOND
1     1     2     1
2     1     46    1
3     1     47    1
4     1     48    1
5     2     3     1
6     2     49    1
7     2     50    1
8     3     4     1
9     4     5     2
10    5     6     1
11    5     40    1
12    6     7     2
13    6     8     am
14    8     9     1
15    8     51    1
16    9     10    1
17    9     38    1
18    9     11    1
19    11    12    2
20    11    13    am
21    13    38    1
22    13    14    1
23    14    15    1
24    14    18    2
25    15    16    ar
26    15    17    ar
27    18    19    1
28    18    36    1
29    19    20    1
30    19    52    1
31    19    53    1
32    20    35    ar
33    20    21    ar
34    21    32    ar
35    21    22    1
36    22    23    2
37    23    24    1
38    23    54    1
39    24    25    1
40    24    32    1
41    25    26    1
42    25    55    1
43    25    56    1
44    26    27    1
45    26    57    1
46    26    58    1
47    27    28    1
48    27    59    1
49    27    60    1
50    28    29    1
51    28    30    1
52    28    31    1
53    31    61    1
54    31    62    1
55    31    63    1
56    32    33    ar
57    33    34    ar
58    33    64    1
59    34    35    ar
60    34    65    1
61    35    66    1
62    36    37    1
63    36    67    1
64    36    68    1
65    37    38    1
66    38    39    1
67    40    45    1
68    40    41    2
69    41    42    1
70    42    43    1
71    43    44    1
72    43    45    2
73    44    69    1
74    44    70    1
@<TRIPOS>SUBSTRUCTURE
1   ZINC000003965107 1     RESIDUE    1   A     ZIN   1
