@<TRIPOS>MOLECULE
ZINC000004392964
74    77    1     0     0
SMALL
USER_CHARGES
@<TRIPOS>ATOM
1      C1     -2.4605   -2.1154    0.4741 C.3      1 ZINC000004392964   -0.1500
2      C2     -0.9452   -1.9038    0.4650 C.3      1 ZINC000004392964    0.0700
3      O3     -0.4001   -2.4151   -0.7530 O.3      1 ZINC000004392964   -0.3800
4      C4      0.9344   -2.3058   -0.9204 C.2      1 ZINC000004392964    0.6200
5      O5      1.6162   -1.7898   -0.0542 O.2      1 ZINC000004392964   -0.5300
6      N6      1.5091   -2.7654   -2.0403 N.2      1 ZINC000004392964   -0.5900
7      C7      1.6982   -4.0651   -2.2016 C.2      1 ZINC000004392964    0.5400
8      N8      1.2178   -4.9458   -1.2737 N.pl3    1 ZINC000004392964   -0.8500
9      C9      2.4268   -4.5629   -3.3820 C.ar     1 ZINC000004392964   -0.1300
10     C10     2.9244   -3.6631   -4.3299 C.ar     1 ZINC000004392964   -0.0100
11     C11     3.6048   -4.1325   -5.4308 C.ar     1 ZINC000004392964   -0.1600
12     C12     3.7973   -5.4988   -5.6011 C.ar     1 ZINC000004392964    0.1700
13     O13     4.4683   -5.9571   -6.6879 O.3      1 ZINC000004392964   -0.3000
14     C14     4.6304   -7.3724   -6.8011 C.3      1 ZINC000004392964    0.1000
15     C15     5.3937   -7.6915   -8.0607 C.ar     1 ZINC000004392964   -0.1000
16     C16     4.7144   -7.9017   -9.2458 C.ar     1 ZINC000004392964   -0.0800
17     C17     5.4146   -8.1945  -10.4014 C.ar     1 ZINC000004392964   -0.1200
18     C18     6.7940   -8.2765  -10.3716 C.ar     1 ZINC000004392964   -0.0800
19     C19     7.4736   -8.0653   -9.1862 C.ar     1 ZINC000004392964   -0.1000
20     C20     8.9775   -8.1551   -9.1536 C.3      1 ZINC000004392964    0.1000
21     O21     9.5376   -6.8690   -9.4260 O.3      1 ZINC000004392964   -0.3100
22     C22    10.8934   -6.7756   -9.4342 C.ar     1 ZINC000004392964    0.1300
23     C23    11.6688   -7.8999   -9.1908 C.ar     1 ZINC000004392964   -0.2100
24     C24    13.0467   -7.8025   -9.2002 C.ar     1 ZINC000004392964   -0.0800
25     C25    13.6532   -6.5856   -9.4514 C.ar     1 ZINC000004392964   -0.1100
26     C26    15.1566   -6.4820   -9.4605 C.3      1 ZINC000004392964    0.0200
27     C27    15.7627   -7.8230   -9.0418 C.3      1 ZINC000004392964   -0.1400
28     C28    15.6346   -6.1239  -10.8691 C.3      1 ZINC000004392964   -0.1400
29     C29    15.5922   -5.4104   -8.4946 C.ar     1 ZINC000004392964   -0.0800
30     C30    15.3296   -5.5501   -7.1444 C.ar     1 ZINC000004392964   -0.0900
31     C31    15.7279   -4.5692   -6.2569 C.ar     1 ZINC000004392964   -0.1400
32     C32    16.3922   -3.4433   -6.7215 C.ar     1 ZINC000004392964    0.1000
33     O33    16.7853   -2.4772   -5.8504 O.3      1 ZINC000004392964   -0.5000
34     C34    16.6548   -3.3057   -8.0768 C.ar     1 ZINC000004392964   -0.1400
35     C35    16.2587   -4.2917   -8.9595 C.ar     1 ZINC000004392964   -0.1000
36     C36    12.8826   -5.4636   -9.6947 C.ar     1 ZINC000004392964   -0.0700
37     C37    11.5043   -5.5569   -9.6917 C.ar     1 ZINC000004392964   -0.1500
38     C38     6.7738   -7.7684   -8.0319 C.ar     1 ZINC000004392964   -0.0700
39     C39     3.3048   -6.3969   -4.6610 C.ar     1 ZINC000004392964   -0.2200
40     C40     2.6278   -5.9361   -3.5545 C.ar     1 ZINC000004392964   -0.0400
41     H41    -2.9056   -1.5911   -0.3715 H        1 ZINC000004392964    0.0700
42     H42    -2.6791   -3.1805    0.3970 H        1 ZINC000004392964    0.0600
43     H43    -2.8762   -1.7255    1.4031 H        1 ZINC000004392964    0.0800
44     H44    -0.7266   -0.8388    0.5420 H        1 ZINC000004392964    0.0700
45     H45    -0.5000   -2.4282    1.3106 H        1 ZINC000004392964    0.0700
46     H46     0.6563   -4.6286   -0.5491 H        1 ZINC000004392964    0.4100
47     H47     1.4383   -5.8881   -1.3396 H        1 ZINC000004392964    0.4100
48     H48     2.7747   -2.6016   -4.1988 H        1 ZINC000004392964    0.1500
49     H49     3.9894   -3.4383   -6.1633 H        1 ZINC000004392964    0.1400
50     H50     5.1817   -7.7451   -5.9378 H        1 ZINC000004392964    0.0800
51     H51     3.6505   -7.8484   -6.8395 H        1 ZINC000004392964    0.0800
52     H52     3.6365   -7.8376   -9.2691 H        1 ZINC000004392964    0.1300
53     H53     4.8838   -8.3594  -11.3274 H        1 ZINC000004392964    0.1300
54     H54     7.3410   -8.5058  -11.2741 H        1 ZINC000004392964    0.1300
55     H55     9.3002   -8.4905   -8.1679 H        1 ZINC000004392964    0.0700
56     H56     9.3155   -8.8657   -9.9078 H        1 ZINC000004392964    0.0700
57     H57    11.1955   -8.8505   -8.9939 H        1 ZINC000004392964    0.1300
58     H58    13.6508   -8.6774   -9.0108 H        1 ZINC000004392964    0.1300
59     H59    15.4477   -8.5981   -9.7404 H        1 ZINC000004392964    0.0600
60     H60    16.8501   -7.7480   -9.0484 H        1 ZINC000004392964    0.0600
61     H61    15.4222   -8.0781   -8.0383 H        1 ZINC000004392964    0.0600
62     H62    15.2028   -5.1686  -11.1674 H        1 ZINC000004392964    0.0600
63     H63    16.7220   -6.0490  -10.8757 H        1 ZINC000004392964    0.0600
64     H64    15.3196   -6.8990  -11.5677 H        1 ZINC000004392964    0.0600
65     H65    14.8124   -6.4268   -6.7832 H        1 ZINC000004392964    0.1200
66     H66    15.5219   -4.6785   -5.2024 H        1 ZINC000004392964    0.1300
67     H67    17.6730   -2.6097   -5.4905 H        1 ZINC000004392964    0.3900
68     H68    17.1715   -2.4300   -8.4409 H        1 ZINC000004392964    0.1300
69     H69    16.4633   -4.1852  -10.0146 H        1 ZINC000004392964    0.1300
70     H70    13.3587   -4.5143   -9.8910 H        1 ZINC000004392964    0.1300
71     H71    10.9029   -4.6803   -9.8818 H        1 ZINC000004392964    0.1300
72     H72     7.3046   -7.6034   -7.1060 H        1 ZINC000004392964    0.1300
73     H73     3.4570   -7.4574   -4.7971 H        1 ZINC000004392964    0.1400
74     H74     2.2459   -6.6345   -2.8245 H        1 ZINC000004392964    0.1300
@<TRIPOS>BOND
1     1     2     1
2     1     41    1
3     1     42    1
4     1     43    1
5     2     3     1
6     2     44    1
7     2     45    1
8     3     4     1
9     4     5     2
10    4     6     1
11    6     7     2
12    7     8     1
13    7     9     1
14    8     46    1
15    8     47    1
16    9     40    ar
17    9     10    ar
18    10    11    ar
19    10    48    1
20    11    12    ar
21    11    49    1
22    12    13    1
23    12    39    ar
24    13    14    1
25    14    15    1
26    14    50    1
27    14    51    1
28    15    38    ar
29    15    16    ar
30    16    17    ar
31    16    52    1
32    17    18    ar
33    17    53    1
34    18    19    ar
35    18    54    1
36    19    20    1
37    19    38    ar
38    20    21    1
39    20    55    1
40    20    56    1
41    21    22    1
42    22    37    ar
43    22    23    ar
44    23    24    ar
45    23    57    1
46    24    25    ar
47    24    58    1
48    25    26    1
49    25    36    ar
50    26    27    1
51    26    28    1
52    26    29    1
53    27    59    1
54    27    60    1
55    27    61    1
56    28    62    1
57    28    63    1
58    28    64    1
59    29    35    ar
60    29    30    ar
61    30    31    ar
62    30    65    1
63    31    32    ar
64    31    66    1
65    32    33    1
66    32    34    ar
67    33    67    1
68    34    35    ar
69    34    68    1
70    35    69    1
71    36    37    ar
72    36    70    1
73    37    71    1
74    38    72    1
75    39    40    ar
76    39    73    1
77    40    74    1
@<TRIPOS>SUBSTRUCTURE
1   ZINC000004392964 1     RESIDUE    1   A     ZIN   1
