@<TRIPOS>MOLECULE
ZINC000005138988
  34   34    0    0    0
SMALL
USER_CHARGES
NO_NAME
@<TRIPOS>ATOM
    1 O1        0.0021    -0.0041     0.0020 O.co2  1 <0>      -0.6900
    2 C2       -0.0145     1.2150     0.0087 C.2    1 <0>       0.5000
    3 O3        1.0330     1.8389     0.0021 O.co2  1 <0>      -0.7000
    4 C4       -1.3296     1.9507     0.0190 C.3    1 <0>      -0.1900
    5 C5       -2.4790     0.9408     0.0189 C.3    1 <0>       0.1400
    6 N6       -3.7575     1.6559     0.0289 N.am   1 <0>      -0.7100
    7 C7       -4.9154     0.9663     0.0306 C.2    1 <0>       0.5100
    8 O8       -4.8990    -0.2464     0.0239 O.2    1 <0>      -0.5400
    9 C9       -6.2306     1.7020     0.0408 C.3    1 <0>      -0.0900
   10 H10      -6.3011     2.3326    -0.8454 H      1 <0>       0.1100
   11 C11      -6.3177     2.5736     1.2953 C.3    1 <0>      -0.0700
   12 S12      -5.0459     3.8651     1.2236 S.3    1 <0>      -0.2400
   13 C13      -7.3799     0.6920     0.0408 C.3    1 <0>      -0.0600
   14 C14      -8.6921     1.4243    -0.0728 C.ar   1 <0>      -0.0800
   15 C15      -9.3544     1.8370     1.0682 C.ar   1 <0>      -0.1200
   16 C16     -10.5581     2.5088     0.9640 C.ar   1 <0>      -0.1200
   17 C17     -11.0992     2.7681    -0.2813 C.ar   1 <0>      -0.1300
   18 C18     -10.4365     2.3562    -1.4224 C.ar   1 <0>      -0.1200
   19 C19      -9.2308     1.6883    -1.3183 C.ar   1 <0>      -0.1100
   20 H20      -1.3917     2.5717     0.9126 H      1 <0>       0.0600
   21 H21      -1.4001     2.5813    -0.8673 H      1 <0>       0.0600
   22 H22      -2.4169     0.3198    -0.8748 H      1 <0>       0.0700
   23 H23      -2.4085     0.3101     0.9052 H      1 <0>       0.0700
   24 H24      -3.7707     2.6258     0.0342 H      1 <0>       0.4000
   25 H25      -7.3030     3.0365     1.3484 H      1 <0>       0.1000
   26 H26      -6.1585     1.9556     2.1789 H      1 <0>       0.0900
   27 H27      -5.2377     4.5425     2.3696 H      1 <0>       0.0900
   28 H28      -7.2678     0.0140    -0.8052 H      1 <0>       0.0900
   29 H29      -7.3618     0.1209     0.9690 H      1 <0>       0.0800
   30 H30      -8.9316     1.6344     2.0411 H      1 <0>       0.1200
   31 H31     -11.0758     2.8306     1.8555 H      1 <0>       0.1200
   32 H32     -12.0400     3.2923    -0.3627 H      1 <0>       0.1200
   33 H33     -10.8595     2.5586    -2.3953 H      1 <0>       0.1200
   34 H34      -8.7130     1.3665    -2.2097 H      1 <0>       0.1200
@<TRIPOS>BOND
   1    1    2 ar
   2    2    3 ar
   3    2    4 1
   4    4    5 1
   5    4   20 1
   6    4   21 1
   7    5    6 1
   8    5   22 1
   9    5   23 1
  10    6    7 am
  11    6   24 1
  12    7    8 2
  13    7    9 1
  14    9   10 1
  15    9   11 1
  16    9   13 1
  17   11   12 1
  18   11   25 1
  19   11   26 1
  20   12   27 1
  21   13   14 1
  22   13   28 1
  23   13   29 1
  24   14   19 ar
  25   14   15 ar
  26   15   16 ar
  27   15   30 1
  28   16   17 ar
  29   16   31 1
  30   17   18 ar
  31   17   32 1
  32   18   19 ar
  33   18   33 1
  34   19   34 1
