@<TRIPOS>MOLECULE
ZINC000101147375
44    47    1     0     0
SMALL
USER_CHARGES
@<TRIPOS>ATOM
1      C1     -0.0178    1.4648    0.0101 C.3      1 ZINC000101147375   -0.0600
2      N2      0.0021   -0.0041    0.0020 N.4      1 ZINC000101147375   -0.4000
3      H3      0.3857   -0.3491   -0.8651 H        1 ZINC000101147375    0.4400
4      C4     -1.3645   -0.5475    0.2230 C.3      1 ZINC000101147375    0.0600
5      H5     -1.9764   -0.5039   -0.6780 H        1 ZINC000101147375    0.1700
6      C6     -1.9871    0.2437    1.3845 C.3      1 ZINC000101147375   -0.1400
7      C7     -1.1771   -0.0233    2.6564 C.3      1 ZINC000101147375    0.0700
8      H8     -1.2867   -1.0692    2.9432 H        1 ZINC000101147375    0.1100
9      O9     -1.6671    0.8252    3.7280 O.3      1 ZINC000101147375   -0.3200
10     C10    -1.5579    0.3511    4.9790 C.2      1 ZINC000101147375    0.4700
11     O11    -1.0691   -0.7369    5.1723 O.2      1 ZINC000101147375   -0.4900
12     C12    -2.0450    1.1757    6.1426 C.3      1 ZINC000101147375   -0.0300
13     H13    -3.1110    1.3723    6.0276 H        1 ZINC000101147375    0.1300
14     C14    -1.2832    2.5019    6.1821 C.3      1 ZINC000101147375    0.0900
15     O15    -1.5990    3.2676    5.0176 O.3      1 ZINC000101147375   -0.5700
16     C16    -1.8088    0.4222    7.4261 C.ar     1 ZINC000101147375   -0.0900
17     C17    -0.5244    0.0642    7.7911 C.ar     1 ZINC000101147375   -0.0900
18     C18    -0.3077   -0.6269    8.9684 C.ar     1 ZINC000101147375   -0.1200
19     C19    -1.3753   -0.9597    9.7811 C.ar     1 ZINC000101147375   -0.1000
20     C20    -2.6596   -0.6008    9.4166 C.ar     1 ZINC000101147375   -0.1200
21     C21    -2.8758    0.0941    8.2414 C.ar     1 ZINC000101147375   -0.1000
22     C22     0.3015    0.2828    2.4015 C.3      1 ZINC000101147375   -0.1600
23     C23     0.7762   -0.5236    1.1607 C.3      1 ZINC000101147375    0.0400
24     H24     1.8534   -0.4506    1.0111 H        1 ZINC000101147375    0.1700
25     C25     0.3087   -1.9864    1.3403 C.3      1 ZINC000101147375   -0.0200
26     H26     0.5573   -2.4916    2.2736 H        1 ZINC000101147375    0.1900
27     O27     0.0366   -2.7515    0.1645 O.3      1 ZINC000101147375   -0.3000
28     C28    -1.1239   -1.9995    0.6966 C.3      1 ZINC000101147375   -0.0400
29     H29    -1.9674   -2.5356    1.1316 H        1 ZINC000101147375    0.1900
30     H30     1.0002    1.8425   -0.0845 H        1 ZINC000101147375    0.1300
31     H31    -0.6180    1.8246   -0.8256 H        1 ZINC000101147375    0.1300
32     H32    -0.4505    1.8171    0.9464 H        1 ZINC000101147375    0.1400
33     H33    -1.9645    1.3088    1.1542 H        1 ZINC000101147375    0.1200
34     H34    -3.0179   -0.0776    1.5339 H        1 ZINC000101147375    0.1300
35     H35    -1.5712    3.0600    7.0730 H        1 ZINC000101147375    0.0700
36     H36    -0.2115    2.3047    6.2076 H        1 ZINC000101147375    0.0500
37     H37    -1.1503    4.1232    4.9758 H        1 ZINC000101147375    0.3900
38     H38     0.3096    0.3242    7.1561 H        1 ZINC000101147375    0.1200
39     H39     0.6956   -0.9073    9.2532 H        1 ZINC000101147375    0.1300
40     H40    -1.2061   -1.5003   10.7006 H        1 ZINC000101147375    0.1300
41     H41    -3.4937   -0.8611   10.0514 H        1 ZINC000101147375    0.1300
42     H42    -3.8792    0.3744    7.9566 H        1 ZINC000101147375    0.1300
43     H43     0.4269    1.3497    2.2169 H        1 ZINC000101147375    0.1200
44     H44     0.8902   -0.0108    3.2705 H        1 ZINC000101147375    0.1200
@<TRIPOS>BOND
1     1     2     1
2     1     30    1
3     1     31    1
4     1     32    1
5     2     3     1
6     2     23    1
7     2     4     1
8     4     5     1
9     4     28    1
10    4     6     1
11    6     7     1
12    6     33    1
13    6     34    1
14    7     8     1
15    7     9     1
16    7     22    1
17    9     10    1
18    10    11    2
19    10    12    1
20    12    13    1
21    12    14    1
22    12    16    1
23    14    15    1
24    14    35    1
25    14    36    1
26    15    37    1
27    16    21    ar
28    16    17    ar
29    17    18    ar
30    17    38    1
31    18    19    ar
32    18    39    1
33    19    20    ar
34    19    40    1
35    20    21    ar
36    20    41    1
37    21    42    1
38    22    23    1
39    22    43    1
40    22    44    1
41    23    24    1
42    23    25    1
43    25    26    1
44    25    28    1
45    25    27    1
46    27    28    1
47    28    29    1
@<TRIPOS>SUBSTRUCTURE
1   ZINC000101147375 1     RESIDUE    1   A     ZIN   1
