@<TRIPOS>MOLECULE
ZINC000028701758
61    63    1     0     0
SMALL
USER_CHARGES
@<TRIPOS>ATOM
1      C1     -0.1831    1.5849    0.2812 C.3      1 ZINC000028701758   -0.1700
2      C2     -0.0317    0.0776    0.0668 C.3      1 ZINC000028701758    0.1500
3      H3      0.4322   -0.1067   -0.9022 H        1 ZINC000028701758    0.1000
4      N4     -1.3520   -0.5561    0.1046 N.am     1 ZINC000028701758   -0.7200
5      C5     -2.1086   -0.6042   -1.0097 C.2      1 ZINC000028701758    0.5300
6      O6     -1.6964   -0.1229   -2.0438 O.2      1 ZINC000028701758   -0.5100
7      C7     -3.4667   -1.2561   -0.9708 C.3      1 ZINC000028701758    0.1100
8      C8     -3.3168   -2.7229   -0.5622 C.3      1 ZINC000028701758   -0.1800
9      C9     -4.3514   -0.5314    0.0456 C.3      1 ZINC000028701758   -0.1800
10     O10    -4.0683   -1.1812   -2.2648 O.3      1 ZINC000028701758   -0.2700
11     C11    -5.3032   -1.7260   -2.4025 C.ar     1 ZINC000028701758    0.3600
12     C12    -5.9374   -1.6894   -3.6375 C.ar     1 ZINC000028701758   -0.1900
13     C13    -7.1971   -2.2487   -3.7646 C.ar     1 ZINC000028701758    0.0100
14     C14    -7.7803   -2.8275   -2.6461 C.ar     1 ZINC000028701758   -0.2800
15     C15    -9.1501   -3.4492   -2.7369 C.3      1 ZINC000028701758    0.5200
16     F16    -9.0274   -4.8000   -3.0796 F        1 ZINC000028701758   -0.1700
17     F17    -9.7954   -3.3384   -1.5006 F        1 ZINC000028701758   -0.1700
18     F18    -9.8991   -2.7862   -3.7150 F        1 ZINC000028701758   -0.1800
19     C19    -7.0916   -2.8281   -1.4491 C.ar     1 ZINC000028701758    0.1900
20     N20    -5.8895   -2.2917   -1.3604 N.ar     1 ZINC000028701758   -0.5300
21     C21     0.8475   -0.5091    1.1729 C.3      1 ZINC000028701758   -0.0500
22     H22     0.3999   -0.2969    2.1438 H        1 ZINC000028701758    0.0900
23     C23     0.9622   -2.0231    0.9841 C.3      1 ZINC000028701758   -0.0800
24     C24     1.7249   -2.6171    2.1402 C.ar     1 ZINC000028701758   -0.0800
25     C25     3.1010   -2.7319    2.0741 C.ar     1 ZINC000028701758   -0.1000
26     C26     3.8010   -3.2766    3.1340 C.ar     1 ZINC000028701758   -0.1100
27     C27     3.1243   -3.7071    4.2614 C.ar     1 ZINC000028701758   -0.0400
28     Cl28    4.0030   -4.3908    5.5934 Cl       1 ZINC000028701758   -0.0700
29     C29     1.7472   -3.5919    4.3270 C.ar     1 ZINC000028701758   -0.1100
30     C30     1.0488   -3.0418    3.2687 C.ar     1 ZINC000028701758   -0.1000
31     C31     2.2195    0.1108    1.1061 C.ar     1 ZINC000028701758   -0.0700
32     C32     2.9764   -0.0109   -0.0455 C.ar     1 ZINC000028701758   -0.0900
33     C33     4.2372    0.5552   -0.1155 C.ar     1 ZINC000028701758   -0.1100
34     C34     4.7475    1.2458    0.9639 C.ar     1 ZINC000028701758   -0.0700
35     C35     3.9886    1.3730    2.1294 C.ar     1 ZINC000028701758   -0.0200
36     C36     4.5120    2.0886    3.2539 C.1      1 ZINC000028701758    0.2500
37     N37     4.9271    2.6563    4.1460 N.1      1 ZINC000028701758   -0.4100
38     C38     2.7155    0.8034    2.1914 C.ar     1 ZINC000028701758   -0.0600
39     H39     0.7860    2.0685    0.1589 H        1 ZINC000028701758    0.0700
40     H40    -0.8847    1.9872   -0.4496 H        1 ZINC000028701758    0.0600
41     H41    -0.5586    1.7729    1.2871 H        1 ZINC000028701758    0.0600
42     H42    -1.6816   -0.9411    0.9317 H        1 ZINC000028701758    0.4000
43     H43    -2.8580   -2.7800    0.4249 H        1 ZINC000028701758    0.0800
44     H44    -4.2992   -3.1944   -0.5340 H        1 ZINC000028701758    0.1000
45     H45    -2.6866   -3.2392   -1.2862 H        1 ZINC000028701758    0.0700
46     H46    -4.4581    0.5136   -0.2455 H        1 ZINC000028701758    0.0700
47     H47    -5.3337   -1.0029    0.0737 H        1 ZINC000028701758    0.1000
48     H48    -3.8925   -0.5885    1.0326 H        1 ZINC000028701758    0.0800
49     H49    -5.4542   -1.2303   -4.4873 H        1 ZINC000028701758    0.1600
50     H50    -7.7146   -2.2347   -4.7124 H        1 ZINC000028701758    0.1600
51     H51    -7.5409   -3.2772   -0.5757 H        1 ZINC000028701758    0.1700
52     H52    -0.0352   -2.4608    0.9436 H        1 ZINC000028701758    0.0800
53     H53     1.4898   -2.2343    0.0540 H        1 ZINC000028701758    0.0800
54     H54     3.6291   -2.3962    1.1938 H        1 ZINC000028701758    0.1300
55     H55     4.8760   -3.3666    3.0821 H        1 ZINC000028701758    0.1300
56     H56     1.2184   -3.9280    5.2067 H        1 ZINC000028701758    0.1300
57     H57    -0.0262   -2.9515    3.3199 H        1 ZINC000028701758    0.1300
58     H58     2.5817   -0.5506   -0.8936 H        1 ZINC000028701758    0.1300
59     H59     4.8232    0.4558   -1.0172 H        1 ZINC000028701758    0.1400
60     H60     5.7317    1.6868    0.9081 H        1 ZINC000028701758    0.1300
61     H61     2.1233    0.8980    3.0896 H        1 ZINC000028701758    0.1300
@<TRIPOS>BOND
1     1     2     1
2     1     39    1
3     1     40    1
4     1     41    1
5     2     3     1
6     2     4     1
7     2     21    1
8     4     5     am
9     4     42    1
10    5     6     2
11    5     7     1
12    7     8     1
13    7     9     1
14    7     10    1
15    8     43    1
16    8     44    1
17    8     45    1
18    9     46    1
19    9     47    1
20    9     48    1
21    10    11    1
22    11    20    ar
23    11    12    ar
24    12    13    ar
25    12    49    1
26    13    14    ar
27    13    50    1
28    14    15    1
29    14    19    ar
30    15    16    1
31    15    17    1
32    15    18    1
33    19    20    ar
34    19    51    1
35    21    22    1
36    21    23    1
37    21    31    1
38    23    24    1
39    23    52    1
40    23    53    1
41    24    30    ar
42    24    25    ar
43    25    26    ar
44    25    54    1
45    26    27    ar
46    26    55    1
47    27    28    1
48    27    29    ar
49    29    30    ar
50    29    56    1
51    30    57    1
52    31    38    ar
53    31    32    ar
54    32    33    ar
55    32    58    1
56    33    34    ar
57    33    59    1
58    34    35    ar
59    34    60    1
60    35    36    1
61    35    38    ar
62    36    37    3
63    38    61    1
@<TRIPOS>SUBSTRUCTURE
1   ZINC000028701758 1     RESIDUE    1   A     ZIN   1
