@<TRIPOS>MOLECULE
ZINC000013671721
43    44    1     0     0
SMALL
USER_CHARGES
@<TRIPOS>ATOM
1      C1     -1.1708    1.6038   -0.8690 C.3      1 ZINC000013671721   -0.1500
2      C2     -1.2148    0.0821   -0.7157 C.3      1 ZINC000013671721   -0.0800
3      C3      0.1850   -0.4936   -0.9393 C.3      1 ZINC000013671721   -0.1600
4      C4     -1.6942   -0.2749    0.6927 C.3      1 ZINC000013671721   -0.0600
5      H5     -0.9776    0.0964    1.4254 H        1 ZINC000013671721    0.1000
6      C6     -1.8116   -1.7720    0.8190 C.2      1 ZINC000013671721    0.5200
7      O7     -2.8160   -2.3356    0.4392 O.2      1 ZINC000013671721   -0.5000
8      N8     -0.8003   -2.4845    1.3539 N.am     1 ZINC000013671721   -0.6700
9      C9     -0.9469   -3.8556    1.5614 C.ar     1 ZINC000013671721    0.1800
10     C10    -1.6638   -4.6230    0.6487 C.ar     1 ZINC000013671721   -0.1300
11     C11    -1.8104   -5.9769    0.8506 C.ar     1 ZINC000013671721   -0.0300
12     C12    -1.2379   -6.5803    1.9736 C.ar     1 ZINC000013671721   -0.1400
13     C13    -1.3927   -8.0317    2.1930 C.2      1 ZINC000013671721    0.5700
14     O14    -2.0189   -8.7036    1.3962 O.2      1 ZINC000013671721   -0.5200
15     N15    -0.8400   -8.6121    3.2765 N.am     1 ZINC000013671721   -0.5900
16     O16    -0.9885  -10.0045    3.4870 O.3      1 ZINC000013671721   -0.3100
17     C17    -0.5182   -5.8067    2.8881 C.ar     1 ZINC000013671721   -0.0700
18     C18    -0.3712   -4.4541    2.6777 C.ar     1 ZINC000013671721   -0.1500
19     C19    -3.0395    0.3572    0.9408 C.ar     1 ZINC000013671721   -0.0800
20     C20    -4.1148    0.0327    0.1349 C.ar     1 ZINC000013671721   -0.0800
21     C21    -5.3488    0.6125    0.3624 C.ar     1 ZINC000013671721   -0.1200
22     C22    -5.5078    1.5164    1.3961 C.ar     1 ZINC000013671721   -0.1200
23     C23    -4.4328    1.8402    2.2026 C.ar     1 ZINC000013671721   -0.1200
24     C24    -3.1997    1.2572    1.9777 C.ar     1 ZINC000013671721   -0.1100
25     H25    -0.8294    1.8581   -1.8724 H        1 ZINC000013671721    0.0600
26     H26    -2.1681    2.0140   -0.7098 H        1 ZINC000013671721    0.0600
27     H27    -0.4838    2.0233   -0.1342 H        1 ZINC000013671721    0.0600
28     H28    -1.9019   -0.3374   -1.4506 H        1 ZINC000013671721    0.0800
29     H29     0.8511   -0.1463   -0.1496 H        1 ZINC000013671721    0.0600
30     H30     0.1371   -1.5825   -0.9215 H        1 ZINC000013671721    0.0600
31     H31     0.5639   -0.1624   -1.9061 H        1 ZINC000013671721    0.0700
32     H32     0.0295   -2.0436    1.5945 H        1 ZINC000013671721    0.4100
33     H33    -2.1059   -4.1560   -0.2189 H        1 ZINC000013671721    0.1500
34     H34    -2.3676   -6.5719    0.1421 H        1 ZINC000013671721    0.1400
35     H35    -0.3405   -8.0761    3.9121 H        1 ZINC000013671721    0.4100
36     H36    -0.5579  -10.3291    4.2897 H        1 ZINC000013671721    0.3900
37     H37    -0.0748   -6.2699    3.7572 H        1 ZINC000013671721    0.1300
38     H38     0.1849   -3.8556    3.3841 H        1 ZINC000013671721    0.1400
39     H39    -3.9906   -0.6735   -0.6727 H        1 ZINC000013671721    0.1300
40     H40    -6.1887    0.3595   -0.2677 H        1 ZINC000013671721    0.1200
41     H41    -6.4718    1.9700    1.5734 H        1 ZINC000013671721    0.1200
42     H42    -4.5569    2.5467    3.0100 H        1 ZINC000013671721    0.1200
43     H43    -2.3598    1.5101    2.6078 H        1 ZINC000013671721    0.1200
@<TRIPOS>BOND
1     1     2     1
2     1     25    1
3     1     26    1
4     1     27    1
5     2     3     1
6     2     4     1
7     2     28    1
8     3     29    1
9     3     30    1
10    3     31    1
11    4     5     1
12    4     6     1
13    4     19    1
14    6     7     2
15    6     8     am
16    8     9     1
17    8     32    1
18    9     18    ar
19    9     10    ar
20    10    11    ar
21    10    33    1
22    11    12    ar
23    11    34    1
24    12    13    1
25    12    17    ar
26    13    14    2
27    13    15    am
28    15    16    1
29    15    35    1
30    16    36    1
31    17    18    ar
32    17    37    1
33    18    38    1
34    19    24    ar
35    19    20    ar
36    20    21    ar
37    20    39    1
38    21    22    ar
39    21    40    1
40    22    23    ar
41    22    41    1
42    23    24    ar
43    23    42    1
44    24    43    1
@<TRIPOS>SUBSTRUCTURE
1   ZINC000013671721 1     RESIDUE    1   A     ZIN   1
