@<TRIPOS>MOLECULE
ZINC000004394349
63    66    1     0     0
SMALL
USER_CHARGES
@<TRIPOS>ATOM
1      C1     -0.0178    1.4608    0.0101 C.3      1 ZINC000004394349    0.0800
2      N2      0.0021   -0.0041    0.0020 N.am     1 ZINC000004394349   -1.0100
3      C3      0.0241   -0.7433    1.2666 C.3      1 ZINC000004394349    0.0900
4      S4     -0.0004   -0.8243   -1.4366 S.o2     1 ZINC000004394349    2.6900
5      O5     -0.5247   -2.1160   -1.1611 O.2      1 ZINC000004394349   -0.9600
6      O6     -0.5660    0.0551   -2.3989 O.2      1 ZINC000004394349   -0.9600
7      C7      1.6816   -1.0597   -1.9056 C.ar     1 ZINC000004394349   -0.6800
8      C8      2.3213   -0.1070   -2.6783 C.ar     1 ZINC000004394349   -0.0200
9      C9      3.6385   -0.2861   -3.0487 C.ar     1 ZINC000004394349   -0.1300
10     C10     4.3248   -1.4294   -2.6423 C.ar     1 ZINC000004394349    0.0400
11     C11     5.7405   -1.6273   -3.0366 C.2      1 ZINC000004394349   -0.1800
12     C12     6.7111   -0.7559   -2.5541 C.2      1 ZINC000004394349    0.0700
13     C13     8.0427   -0.9440   -2.9267 C.2      1 ZINC000004394349   -0.3100
14     C14     9.2557   -0.2742   -2.6358 C.2      1 ZINC000004394349    0.2900
15     N15     9.4239    0.7988   -1.8597 N.pl3    1 ZINC000004394349   -0.4000
16     O16     8.3085    1.3917   -1.2198 O.3      1 ZINC000004394349   -0.1200
17     C17     8.6343    2.5311   -0.4214 C.3      1 ZINC000004394349   -0.0200
18     H18     9.4469    3.0844   -0.8922 H        1 ZINC000004394349    0.0900
19     C19     7.4062    3.4353   -0.2978 C.3      1 ZINC000004394349   -0.0900
20     C20     7.0450    3.9958   -1.6748 C.3      1 ZINC000004394349    0.0700
21     O21     5.8979    4.8403   -1.5594 O.3      1 ZINC000004394349   -0.5700
22     C22     9.0640    2.0773    0.9499 C.2      1 ZINC000004394349    0.4800
23     O23     9.4734    2.8907    1.7607 O.co2    1 ZINC000004394349   -0.6700
24     O24     9.0023    0.8969    1.2486 O.co2    1 ZINC000004394349   -0.6600
25     C25    10.3139   -1.0322   -3.3890 C.2      1 ZINC000004394349    0.5300
26     O26    11.5033   -0.7711   -3.4011 O.2      1 ZINC000004394349   -0.4800
27     N27     9.7363   -2.0283   -4.0349 N.2      1 ZINC000004394349   -0.6300
28     C28     8.3926   -2.0510   -3.8169 C.2      1 ZINC000004394349    0.3000
29     C29     7.3821   -2.8985   -4.2776 C.2      1 ZINC000004394349   -0.1500
30     C30     6.0754   -2.6917   -3.8833 C.2      1 ZINC000004394349    0.0700
31     C31     4.9614   -3.5960   -4.3522 C.3      1 ZINC000004394349   -0.0900
32     C32     5.4157   -4.3973   -5.5717 C.3      1 ZINC000004394349    0.0500
33     N33     6.7061   -5.0319   -5.2589 N.3      1 ZINC000004394349   -0.5400
34     C34     7.0273   -6.0811   -6.2355 C.3      1 ZINC000004394349    0.0300
35     C35     7.7677   -4.0250   -5.2007 C.3      1 ZINC000004394349    0.1200
36     C36     3.6752   -2.3858   -1.8634 C.ar     1 ZINC000004394349   -0.1300
37     C37     2.3592   -2.1937   -1.4950 C.ar     1 ZINC000004394349   -0.0200
38     H38     1.0048    1.8381    0.0023 H        1 ZINC000004394349    0.0600
39     H39    -0.5450    1.8219   -0.8730 H        1 ZINC000004394349    0.0800
40     H40    -0.5280    1.8123    0.9069 H        1 ZINC000004394349    0.0800
41     H41    -0.9979   -0.9406    1.5900 H        1 ZINC000004394349    0.0600
42     H42     0.5496   -1.6879    1.1262 H        1 ZINC000004394349    0.0700
43     H43     0.5371   -0.1514    2.0246 H        1 ZINC000004394349    0.0800
44     H44     1.7886    0.7783   -2.9926 H        1 ZINC000004394349    0.1400
45     H45     4.1367    0.4580   -3.6525 H        1 ZINC000004394349    0.1300
46     H46     6.4373    0.0576   -1.8987 H        1 ZINC000004394349    0.1300
47     H47    10.3102    1.1724   -1.7341 H        1 ZINC000004394349    0.4400
48     H48     6.5674    2.8577    0.0908 H        1 ZINC000004394349    0.0800
49     H49     7.6274    4.2576    0.3826 H        1 ZINC000004394349    0.1100
50     H50     7.8837    4.5734   -2.0635 H        1 ZINC000004394349    0.0400
51     H51     6.8238    3.1735   -2.3553 H        1 ZINC000004394349    0.0500
52     H52     5.6117    5.2314   -2.3962 H        1 ZINC000004394349    0.3800
53     H53     4.6902   -4.2817   -3.5495 H        1 ZINC000004394349    0.1000
54     H54     4.0937   -2.9926   -4.6188 H        1 ZINC000004394349    0.0900
55     H55     4.6765   -5.1646   -5.8018 H        1 ZINC000004394349    0.0800
56     H56     5.5332   -3.7299   -6.4254 H        1 ZINC000004394349    0.0400
57     H57     7.1545   -5.6334   -7.2212 H        1 ZINC000004394349    0.0300
58     H58     7.9503   -6.5808   -5.9416 H        1 ZINC000004394349    0.0700
59     H59     6.2154   -6.8076   -6.2685 H        1 ZINC000004394349    0.0700
60     H60     7.9353   -3.6212   -6.1992 H        1 ZINC000004394349    0.0400
61     H61     8.6860   -4.4909   -4.8432 H        1 ZINC000004394349    0.0900
62     H62     4.2018   -3.2736   -1.5460 H        1 ZINC000004394349    0.1400
63     H63     1.8550   -2.9338   -0.8913 H        1 ZINC000004394349    0.1400
@<TRIPOS>BOND
1     1     2     1
2     1     38    1
3     1     39    1
4     1     40    1
5     2     3     1
6     2     4     am
7     3     41    1
8     3     42    1
9     3     43    1
10    4     5     2
11    4     6     2
12    4     7     1
13    7     37    ar
14    7     8     ar
15    8     9     ar
16    8     44    1
17    9     10    ar
18    9     45    1
19    10    11    1
20    10    36    ar
21    11    30    1
22    11    12    2
23    12    13    1
24    12    46    1
25    13    28    1
26    13    14    2
27    14    15    1
28    14    25    1
29    15    16    1
30    15    47    1
31    16    17    1
32    17    18    1
33    17    19    1
34    17    22    1
35    19    20    1
36    19    48    1
37    19    49    1
38    20    21    1
39    20    50    1
40    20    51    1
41    21    52    1
42    22    23    ar
43    22    24    ar
44    25    26    2
45    25    27    1
46    27    28    2
47    28    29    1
48    29    35    1
49    29    30    2
50    30    31    1
51    31    32    1
52    31    53    1
53    31    54    1
54    32    33    1
55    32    55    1
56    32    56    1
57    33    34    1
58    33    35    1
59    34    57    1
60    34    58    1
61    34    59    1
62    35    60    1
63    35    61    1
64    36    37    ar
65    36    62    1
66    37    63    1
@<TRIPOS>SUBSTRUCTURE
1   ZINC000004394349 1     RESIDUE    1   A     ZIN   1
