@<TRIPOS>MOLECULE
ZINC000261506650
  54   58    0    0    0
SMALL
USER_CHARGES
NO_NAME
@<TRIPOS>ATOM
    1 C1       -0.2021     1.5542    -0.2511 C.3    1 <0>      -0.0500
    2 N2       -0.0513     0.1030    -0.0804 N.4    1 <0>      -0.2700
    3 C3       -1.3644    -0.5398     0.0624 C.3    1 <0>       0.0200
    4 C4       -2.0857     0.0388     1.2813 C.3    1 <0>      -0.2100
    5 C5       -3.3744     0.8251     1.0322 C.3    1 <0>      -0.1600
    6 C6       -3.4381    -0.5702     1.6568 C.3    1 <0>      -0.1500
    7 C7        0.7010    -0.4831    -1.2215 C.3    1 <0>       0.0500
    8 H8        0.3568    -0.1005    -2.1824 H      1 <0>       0.1600
    9 C9        0.5611    -2.0107    -1.1229 C.3    1 <0>      -0.1400
   10 C10       1.2380    -2.4882     0.1651 C.3    1 <0>       0.0700
   11 H11       1.0541    -3.5544     0.2975 H      1 <0>       0.1200
   12 O12       2.6679    -2.2522     0.0753 O.3    1 <0>      -0.3300
   13 C13       3.4682    -3.0975     0.7437 C.2    1 <0>       0.4600
   14 O14       2.9898    -4.0046     1.3825 O.2    1 <0>      -0.4800
   15 C15       4.9634    -2.9151     0.6972 C.3    1 <0>      -0.0300
   16 H16       5.2225    -1.9350     1.0978 H      1 <0>       0.1200
   17 C17       5.4449    -3.0176    -0.7514 C.3    1 <0>       0.0900
   18 O18       4.9079    -1.9320    -1.5098 O.3    1 <0>      -0.5700
   19 C19       5.6261    -3.9868     1.5239 C.ar   1 <0>      -0.1000
   20 C20       5.4466    -5.3188     1.2009 C.ar   1 <0>      -0.0900
   21 C21       6.0545    -6.3019     1.9592 C.ar   1 <0>      -0.1200
   22 C22       6.8422    -5.9528     3.0402 C.ar   1 <0>      -0.1000
   23 C23       7.0224    -4.6207     3.3627 C.ar   1 <0>      -0.1200
   24 C24       6.4180    -3.6376     2.6018 C.ar   1 <0>      -0.1000
   25 C25       0.6703    -1.7209     1.3626 C.3    1 <0>      -0.1600
   26 C26       0.8102    -0.1995     1.0935 C.3    1 <0>       0.0400
   27 H27       0.5470     0.3978     1.9665 H      1 <0>       0.1600
   28 C28       2.2574     0.0656     0.6186 C.3    1 <0>       0.0000
   29 H29       3.0745    -0.3163     1.2307 H      1 <0>       0.1800
   30 O30       2.4812     1.1661    -0.2650 O.3    1 <0>      -0.3100
   31 C31       2.1741    -0.1097    -0.9374 C.3    1 <0>      -0.0100
   32 H32       2.9426    -0.6168    -1.5208 H      1 <0>       0.2000
   33 H33       0.7565     1.9881    -0.5357 H      1 <0>       0.1400
   34 H34      -0.9371     1.7539    -1.0307 H      1 <0>       0.1200
   35 H35      -0.5374     1.9975     0.6866 H      1 <0>       0.1200
   36 H36      -1.9584    -0.3554    -0.8328 H      1 <0>       0.1300
   37 H37      -1.2309    -1.6135     0.1950 H      1 <0>       0.1400
   38 H38      -1.4411     0.3729     2.0943 H      1 <0>       0.1200
   39 H39      -3.5777     1.6768     1.6813 H      1 <0>       0.1100
   40 H40      -3.7083     0.9301    -0.0000 H      1 <0>       0.1100
   41 H41      -3.8140    -1.3830     1.0354 H      1 <0>       0.1100
   42 H42      -3.6834    -0.6364     2.7168 H      1 <0>       0.1100
   43 H43      -0.4949    -2.2800    -1.1018 H      1 <0>       0.1200
   44 H44       1.0416    -2.4776    -1.9826 H      1 <0>       0.1300
   45 H45       6.5338    -2.9746    -0.7762 H      1 <0>       0.0700
   46 H46       5.1087    -3.9617    -1.1801 H      1 <0>       0.0600
   47 H47       5.1724    -1.9333    -2.4399 H      1 <0>       0.3900
   48 H48       4.8312    -5.5915     0.3563 H      1 <0>       0.1200
   49 H49       5.9137    -7.3426     1.7073 H      1 <0>       0.1300
   50 H50       7.3165    -6.7209     3.6331 H      1 <0>       0.1300
   51 H51       7.6375    -4.3481     4.2075 H      1 <0>       0.1300
   52 H52       6.5587    -2.5968     2.8537 H      1 <0>       0.1200
   53 H53      -0.3808    -1.9772     1.4954 H      1 <0>       0.1200
   54 H54       1.2281    -1.9827     2.2617 H      1 <0>       0.1200
@<TRIPOS>BOND
   1    1    2 1
   2    1   33 1
   3    1   34 1
   4    1   35 1
   5    2   26 1
   6    2    3 1
   7    2    7 1
   8    3    4 1
   9    3   36 1
  10    3   37 1
  11    4    6 1
  12    4    5 1
  13    4   38 1
  14    5    6 1
  15    5   39 1
  16    5   40 1
  17    6   41 1
  18    6   42 1
  19    7    8 1
  20    7   31 1
  21    7    9 1
  22    9   10 1
  23    9   43 1
  24    9   44 1
  25   10   11 1
  26   10   12 1
  27   10   25 1
  28   12   13 1
  29   13   14 2
  30   13   15 1
  31   15   16 1
  32   15   17 1
  33   15   19 1
  34   17   18 1
  35   17   45 1
  36   17   46 1
  37   18   47 1
  38   19   24 ar
  39   19   20 ar
  40   20   21 ar
  41   20   48 1
  42   21   22 ar
  43   21   49 1
  44   22   23 ar
  45   22   50 1
  46   23   24 ar
  47   23   51 1
  48   24   52 1
  49   25   26 1
  50   25   53 1
  51   25   54 1
  52   26   27 1
  53   26   28 1
  54   28   29 1
  55   28   31 1
  56   28   30 1
  57   30   31 1
  58   31   32 1
