@<TRIPOS>MOLECULE
ZINC000043199890
53    56    1     0     0
SMALL
USER_CHARGES
@<TRIPOS>ATOM
1      N1      0.1453   -0.9515    2.0263 N.1      1 ZINC000043199890   -0.4000
2      C2      0.1151    0.1623    1.8049 C.1      1 ZINC000043199890    0.1900
3      C3      0.0760    1.6056    1.5180 C.3      1 ZINC000043199890    0.2200
4      N4      1.4360    2.0916    1.2722 N.am     1 ZINC000043199890   -0.7300
5      C5      1.6456    3.3921    0.9871 C.2      1 ZINC000043199890    0.5700
6      O6      0.7062    4.1617    0.9338 O.2      1 ZINC000043199890   -0.5200
7      C7      3.0179    3.8826    0.7390 C.ar     1 ZINC000043199890   -0.1200
8      C8      4.0968    2.9977    0.7944 C.ar     1 ZINC000043199890   -0.0900
9      C9      5.3750    3.4555    0.5627 C.ar     1 ZINC000043199890   -0.0800
10     C10     5.5921    4.8025    0.2733 C.ar     1 ZINC000043199890   -0.0300
11     C11     6.9688    5.2945    0.0240 C.ar     1 ZINC000043199890    0.2500
12     C12     7.1995    6.6425   -0.2612 C.ar     1 ZINC000043199890   -0.2700
13     C13     8.5016    7.0553   -0.4870 C.ar     1 ZINC000043199890    0.1900
14     N14     9.4813    6.1683   -0.4265 N.ar     1 ZINC000043199890   -0.5500
15     C15     9.2330    4.8950   -0.1538 C.ar     1 ZINC000043199890    0.5700
16     N16    10.2875    3.9987   -0.0995 N.pl3    1 ZINC000043199890   -0.6400
17     C17    11.6053    4.4596   -0.2157 C.ar     1 ZINC000043199890    0.1400
18     C18    11.9808    5.6497    0.3934 C.ar     1 ZINC000043199890   -0.0800
19     C19    13.2797    6.1040    0.2789 C.ar     1 ZINC000043199890   -0.1200
20     C20    14.2105    5.3707   -0.4453 C.ar     1 ZINC000043199890    0.1000
21     N21    15.5271    5.8309   -0.5610 N.3      1 ZINC000043199890   -0.4900
22     C22    15.5635    7.1862   -1.1293 C.3      1 ZINC000043199890    0.0200
23     C23    17.0141    7.6727   -1.1825 C.3      1 ZINC000043199890    0.0600
24     O24    17.7949    6.7460   -1.9421 O.3      1 ZINC000043199890   -0.3800
25     C25    17.7824    5.4160   -1.4164 C.3      1 ZINC000043199890    0.0600
26     C26    16.3395    4.9067   -1.3655 C.3      1 ZINC000043199890    0.0100
27     C27    13.8349    4.1805   -1.0544 C.ar     1 ZINC000043199890   -0.1500
28     C28    12.5374    3.7234   -0.9351 C.ar     1 ZINC000043199890   -0.1200
29     N29     8.0042    4.4594    0.0738 N.ar     1 ZINC000043199890   -0.5600
30     C30     4.5151    5.6871    0.2178 C.ar     1 ZINC000043199890   -0.1000
31     C31     3.2356    5.2300    0.4435 C.ar     1 ZINC000043199890   -0.0600
32     H32    -0.5387    1.7841    0.6357 H        1 ZINC000043199890    0.1200
33     H33    -0.3502    2.1341    2.3707 H        1 ZINC000043199890    0.1200
34     H34     2.1856    1.4775    1.3147 H        1 ZINC000043199890    0.4100
35     H35     3.9290    1.9548    1.0191 H        1 ZINC000043199890    0.1300
36     H36     6.2095    2.7712    0.6055 H        1 ZINC000043199890    0.1400
37     H37     6.3812    7.3460   -0.3048 H        1 ZINC000043199890    0.1500
38     H38     8.7152    8.0902   -0.7103 H        1 ZINC000043199890    0.1700
39     H39    10.1135    3.0518    0.0190 H        1 ZINC000043199890    0.4200
40     H40    11.2569    6.2201    0.9563 H        1 ZINC000043199890    0.1300
41     H41    13.5717    7.0297    0.7523 H        1 ZINC000043199890    0.1300
42     H42    15.1479    7.1697   -2.1368 H        1 ZINC000043199890    0.0500
43     H43    14.9767    7.8590   -0.5039 H        1 ZINC000043199890    0.0900
44     H44    17.0518    8.6539   -1.6556 H        1 ZINC000043199890    0.1000
45     H45    17.4127    7.7404   -0.1703 H        1 ZINC000043199890    0.0600
46     H46    18.3757    4.7652   -2.0586 H        1 ZINC000043199890    0.1000
47     H47    18.2032    5.4181   -0.4109 H        1 ZINC000043199890    0.0600
48     H48    16.3191    3.9155   -0.9125 H        1 ZINC000043199890    0.0900
49     H49    15.9363    4.8537   -2.3768 H        1 ZINC000043199890    0.0600
50     H50    14.5586    3.6104   -1.6179 H        1 ZINC000043199890    0.1300
51     H51    12.2453    2.7978   -1.4087 H        1 ZINC000043199890    0.1300
52     H52     4.6841    6.7300   -0.0063 H        1 ZINC000043199890    0.1400
53     H53     2.4018    5.9150    0.4002 H        1 ZINC000043199890    0.1500
@<TRIPOS>BOND
1     1     2     3
2     2     3     1
3     3     4     1
4     3     32    1
5     3     33    1
6     4     5     am
7     4     34    1
8     5     6     2
9     5     7     1
10    7     31    ar
11    7     8     ar
12    8     9     ar
13    8     35    1
14    9     10    ar
15    9     36    1
16    10    11    1
17    10    30    ar
18    11    29    ar
19    11    12    ar
20    12    13    ar
21    12    37    1
22    13    14    ar
23    13    38    1
24    14    15    ar
25    15    16    1
26    15    29    ar
27    16    17    1
28    16    39    1
29    17    28    ar
30    17    18    ar
31    18    19    ar
32    18    40    1
33    19    20    ar
34    19    41    1
35    20    21    1
36    20    27    ar
37    21    26    1
38    21    22    1
39    22    23    1
40    22    42    1
41    22    43    1
42    23    24    1
43    23    44    1
44    23    45    1
45    24    25    1
46    25    26    1
47    25    46    1
48    25    47    1
49    26    48    1
50    26    49    1
51    27    28    ar
52    27    50    1
53    28    51    1
54    30    31    ar
55    30    52    1
56    31    53    1
@<TRIPOS>SUBSTRUCTURE
1   ZINC000043199890 1     RESIDUE    1   A     ZIN   1
