@<TRIPOS>MOLECULE
ZINC000004654846
59    59    1     0     0
SMALL
USER_CHARGES
@<TRIPOS>ATOM
1      C1     -0.0187    1.5258    0.0104 C.3      1 ZINC000004654846   -0.1400
2      C2      0.0021   -0.0041    0.0020 C.3      1 ZINC000004654846   -0.0700
3      H3     -1.0205   -0.3814    0.0098 H        1 ZINC000004654846    0.0700
4      C4      0.7182   -0.4975   -1.2568 C.3      1 ZINC000004654846   -0.1200
5      C5     -0.0892   -0.0968   -2.4931 C.3      1 ZINC000004654846   -0.1200
6      C6      0.6269   -0.5903   -3.7519 C.3      1 ZINC000004654846   -0.1200
7      C7     -0.1806   -0.1896   -4.9882 C.3      1 ZINC000004654846   -0.1200
8      C8      0.5356   -0.6830   -6.2470 C.3      1 ZINC000004654846   -0.1200
9      C9     -0.2719   -0.2824   -7.4832 C.3      1 ZINC000004654846   -0.1200
10     C10     0.4443   -0.7758   -8.7420 C.3      1 ZINC000004654846   -0.1200
11     C11    -0.3632   -0.3751   -9.9783 C.3      1 ZINC000004654846   -0.1200
12     C12     0.3530   -0.8686  -11.2371 C.3      1 ZINC000004654846   -0.1200
13     C13    -0.4545   -0.4679  -12.4734 C.3      1 ZINC000004654846   -0.1200
14     C14     0.2616   -0.9613  -13.7322 C.3      1 ZINC000004654846   -0.1100
15     C15    -0.5458   -0.5607  -14.9685 C.3      1 ZINC000004654846   -0.0900
16     C16     0.1596   -1.0467  -16.2084 C.ar     1 ZINC000004654846   -0.0600
17     C17     1.0917   -0.2401  -16.8342 C.ar     1 ZINC000004654846   -0.1100
18     C18     1.7388   -0.6856  -17.9714 C.ar     1 ZINC000004654846   -0.0800
19     C19     1.4537   -1.9383  -18.4832 C.ar     1 ZINC000004654846   -0.1100
20     I20     2.4348   -2.6142  -20.2065 I        1 ZINC000004654846   -0.0500
21     C21     0.5212   -2.7450  -17.8569 C.ar     1 ZINC000004654846   -0.0800
22     C22    -0.1215   -2.3012  -16.7165 C.ar     1 ZINC000004654846   -0.1100
23     C23     0.7421   -0.5109    1.2415 C.3      1 ZINC000004654846   -0.1800
24     C24    -0.0298   -0.1295    2.4784 C.2      1 ZINC000004654846    0.4900
25     O25    -1.0749    0.4903    2.3778 O.co2    1 ZINC000004654846   -0.6900
26     O26     0.3908   -0.4406    3.5796 O.co2    1 ZINC000004654846   -0.7100
27     H27     1.0039    1.9031    0.0027 H        1 ZINC000004654846    0.0300
28     H28    -0.5459    1.8868   -0.8726 H        1 ZINC000004654846    0.0400
29     H29    -0.5289    1.8773    0.9072 H        1 ZINC000004654846    0.0800
30     H30     1.7103   -0.0491   -1.3098 H        1 ZINC000004654846    0.0500
31     H31     0.8116   -1.5829   -1.2198 H        1 ZINC000004654846    0.0500
32     H32    -1.0813   -0.5452   -2.4401 H        1 ZINC000004654846    0.0600
33     H33    -0.1826    0.9885   -2.5300 H        1 ZINC000004654846    0.0600
34     H34     1.6190   -0.1418   -3.8049 H        1 ZINC000004654846    0.0600
35     H35     0.7203   -1.6756   -3.7149 H        1 ZINC000004654846    0.0600
36     H36    -1.1726   -0.6380   -4.9352 H        1 ZINC000004654846    0.0600
37     H37    -0.2739    0.8958   -5.0251 H        1 ZINC000004654846    0.0600
38     H38     1.5277   -0.2346   -6.2999 H        1 ZINC000004654846    0.0600
39     H39     0.6289   -1.7684   -6.2100 H        1 ZINC000004654846    0.0600
40     H40    -1.2639   -0.7308   -7.4303 H        1 ZINC000004654846    0.0600
41     H41    -0.3652    0.8030   -7.5202 H        1 ZINC000004654846    0.0600
42     H42     1.4364   -0.3274   -8.7950 H        1 ZINC000004654846    0.0600
43     H43     0.5376   -1.8612   -8.7051 H        1 ZINC000004654846    0.0600
44     H44    -1.3553   -0.8235   -9.9253 H        1 ZINC000004654846    0.0600
45     H45    -0.4565    0.7102  -10.0153 H        1 ZINC000004654846    0.0600
46     H46     1.3450   -0.4201  -11.2901 H        1 ZINC000004654846    0.0600
47     H47     0.4463   -1.9539  -11.2002 H        1 ZINC000004654846    0.0600
48     H48    -1.4466   -0.9163  -12.4204 H        1 ZINC000004654846    0.0600
49     H49    -0.5478    0.6175  -12.5104 H        1 ZINC000004654846    0.0600
50     H50     1.2537   -0.5129  -13.7852 H        1 ZINC000004654846    0.0600
51     H51     0.3550   -2.0467  -13.6953 H        1 ZINC000004654846    0.0600
52     H52    -1.5379   -1.0091  -14.9155 H        1 ZINC000004654846    0.0800
53     H53    -0.6392    0.5247  -15.0054 H        1 ZINC000004654846    0.0800
54     H54     1.3140    0.7384  -16.4347 H        1 ZINC000004654846    0.1300
55     H55     2.4667   -0.0553  -18.4605 H        1 ZINC000004654846    0.1300
56     H56     0.2981   -3.7232  -18.2566 H        1 ZINC000004654846    0.1300
57     H57    -0.8497   -2.9311  -16.2273 H        1 ZINC000004654846    0.1300
58     H58     0.8346   -1.5958    1.1912 H        1 ZINC000004654846    0.0500
59     H59     1.7350   -0.0630    1.2804 H        1 ZINC000004654846    0.0500
@<TRIPOS>BOND
1     1     2     1
2     1     27    1
3     1     28    1
4     1     29    1
5     2     3     1
6     2     4     1
7     2     23    1
8     4     5     1
9     4     30    1
10    4     31    1
11    5     6     1
12    5     32    1
13    5     33    1
14    6     7     1
15    6     34    1
16    6     35    1
17    7     8     1
18    7     36    1
19    7     37    1
20    8     9     1
21    8     38    1
22    8     39    1
23    9     10    1
24    9     40    1
25    9     41    1
26    10    11    1
27    10    42    1
28    10    43    1
29    11    12    1
30    11    44    1
31    11    45    1
32    12    13    1
33    12    46    1
34    12    47    1
35    13    14    1
36    13    48    1
37    13    49    1
38    14    15    1
39    14    50    1
40    14    51    1
41    15    16    1
42    15    52    1
43    15    53    1
44    16    22    ar
45    16    17    ar
46    17    18    ar
47    17    54    1
48    18    19    ar
49    18    55    1
50    19    20    1
51    19    21    ar
52    21    22    ar
53    21    56    1
54    22    57    1
55    23    24    1
56    23    58    1
57    23    59    1
58    24    25    ar
59    24    26    ar
@<TRIPOS>SUBSTRUCTURE
1   ZINC000004654846 1     RESIDUE    1   A     ZIN   1
