@<TRIPOS>MOLECULE
ZINC000014951647
65    69    1     0     0
SMALL
USER_CHARGES
@<TRIPOS>ATOM
1      C1     -0.0173    1.4248    0.0099 C.3      1 ZINC000014951647    0.0300
2      O2      0.0021   -0.0041    0.0020 O.3      1 ZINC000014951647   -0.3500
3      C3      0.6734   -0.5824    1.1231 C.3      1 ZINC000014951647    0.1200
4      H4      0.5745    0.0768    1.9855 H        1 ZINC000014951647    0.1000
5      C5      2.1329   -0.7652    0.7952 C.2      1 ZINC000014951647    0.5200
6      O6      2.5393   -0.5181   -0.3205 O.2      1 ZINC000014951647   -0.5100
7      N7      2.9865   -1.2032    1.7417 N.am     1 ZINC000014951647   -0.6100
8      C8      2.6589   -1.5511    3.1292 C.3      1 ZINC000014951647    0.1700
9      C9      3.9364   -1.9879    3.8005 C.2      1 ZINC000014951647    0.0700
10     C10     4.9531   -1.9172    2.9164 C.2      1 ZINC000014951647   -0.2800
11     C11     4.4277   -1.4332    1.5885 C.3      1 ZINC000014951647    0.1900
12     C12     6.1263   -2.3303    3.5737 C.2      1 ZINC000014951647    0.3400
13     N13     7.4055   -2.4019    3.0071 N.am     1 ZINC000014951647   -0.6400
14     C14     8.4499   -2.8166    3.7512 C.2      1 ZINC000014951647    0.5600
15     O15     8.2818   -3.1287    4.9145 O.2      1 ZINC000014951647   -0.4900
16     C16     9.7967   -2.8919    3.1546 C.ar     1 ZINC000014951647   -0.1700
17     C17     9.9926   -2.5280    1.8190 C.ar     1 ZINC000014951647   -0.0600
18     C18    11.2503   -2.5994    1.2653 C.ar     1 ZINC000014951647   -0.1500
19     C19    12.3270   -3.0339    2.0335 C.ar     1 ZINC000014951647    0.1500
20     N20    13.5967   -3.1054    1.4709 N.3      1 ZINC000014951647   -0.4900
21     C21    13.5942   -3.9546    0.2716 C.3      1 ZINC000014951647    0.0600
22     C22    14.9878   -3.9433   -0.3611 C.3      1 ZINC000014951647    0.0500
23     N23    15.9718   -4.4238    0.6189 N.3      1 ZINC000014951647   -0.5500
24     C24    17.3130   -4.4993    0.0245 C.3      1 ZINC000014951647    0.0200
25     C25    15.9742   -3.5746    1.8182 C.3      1 ZINC000014951647    0.0500
26     C26    14.5807   -3.5859    2.4509 C.3      1 ZINC000014951647    0.0500
27     C27    12.1354   -3.3966    3.3639 C.ar     1 ZINC000014951647   -0.1800
28     C28    10.8811   -3.3219    3.9251 C.ar     1 ZINC000014951647   -0.0200
29     N29     5.8130   -2.6364    4.8100 N.2      1 ZINC000014951647   -0.2500
30     N30     4.4384   -2.4285    4.9763 N.pl3    1 ZINC000014951647   -0.4400
31     C31     0.0585   -1.9210    1.4410 C.ar     1 ZINC000014951647   -0.1000
32     C32    -0.3084   -2.7738    0.4168 C.ar     1 ZINC000014951647   -0.0800
33     C33    -0.8724   -4.0017    0.7084 C.ar     1 ZINC000014951647   -0.1200
34     C34    -1.0691   -4.3770    2.0242 C.ar     1 ZINC000014951647   -0.1100
35     C35    -0.7013   -3.5246    3.0485 C.ar     1 ZINC000014951647   -0.1200
36     C36    -0.1333   -2.2985    2.7569 C.ar     1 ZINC000014951647   -0.1100
37     H37     1.0053    1.8021    0.0021 H        1 ZINC000014951647    0.0500
38     H38    -0.5445    1.7859   -0.8732 H        1 ZINC000014951647    0.1000
39     H39    -0.5275    1.7763    0.9067 H        1 ZINC000014951647    0.0500
40     H40     2.2500   -0.6807    3.6423 H        1 ZINC000014951647    0.0900
41     H41     1.9350   -2.3659    3.1453 H        1 ZINC000014951647    0.1000
42     H42     4.6082   -2.1870    0.8221 H        1 ZINC000014951647    0.0800
43     H43     4.9188   -0.4996    1.3143 H        1 ZINC000014951647    0.0800
44     H44     7.5395   -2.1529    2.0792 H        1 ZINC000014951647    0.4200
45     H45     9.1576   -2.1915    1.2224 H        1 ZINC000014951647    0.1300
46     H46    11.4023   -2.3184    0.2337 H        1 ZINC000014951647    0.1300
47     H47    13.3290   -4.9748    0.5489 H        1 ZINC000014951647    0.0600
48     H48    12.8668   -3.5712   -0.4440 H        1 ZINC000014951647    0.0900
49     H49    14.9960   -4.5954   -1.2345 H        1 ZINC000014951647    0.0900
50     H50    15.2417   -2.9272   -0.6632 H        1 ZINC000014951647    0.0500
51     H51    17.6151   -3.5094   -0.3175 H        1 ZINC000014951647    0.0300
52     H52    18.0217   -4.8577    0.7712 H        1 ZINC000014951647    0.0700
53     H53    17.2975   -5.1869   -0.8211 H        1 ZINC000014951647    0.0700
54     H54    16.7016   -3.9580    2.5338 H        1 ZINC000014951647    0.0900
55     H55    16.2394   -2.5544    1.5409 H        1 ZINC000014951647    0.0500
56     H56    14.5725   -2.9338    3.3243 H        1 ZINC000014951647    0.0900
57     H57    14.3267   -4.6020    2.7530 H        1 ZINC000014951647    0.0600
58     H58    12.9726   -3.7332    3.9572 H        1 ZINC000014951647    0.1400
59     H59    10.7331   -3.6034    4.9572 H        1 ZINC000014951647    0.1400
60     H60     3.9344   -2.5749    5.7921 H        1 ZINC000014951647    0.4500
61     H61    -0.1548   -2.4806   -0.6112 H        1 ZINC000014951647    0.1300
62     H62    -1.1598   -4.6677   -0.0918 H        1 ZINC000014951647    0.1300
63     H63    -1.5104   -5.3361    2.2521 H        1 ZINC000014951647    0.1300
64     H64    -0.8552   -3.8177    4.0765 H        1 ZINC000014951647    0.1300
65     H65     0.1540   -1.6325    3.5571 H        1 ZINC000014951647    0.1300
@<TRIPOS>BOND
1     1     2     1
2     1     37    1
3     1     38    1
4     1     39    1
5     2     3     1
6     3     4     1
7     3     5     1
8     3     31    1
9     5     6     2
10    5     7     am
11    7     11    1
12    7     8     1
13    8     9     1
14    8     40    1
15    8     41    1
16    9     30    1
17    9     10    2
18    10    11    1
19    10    12    1
20    11    42    1
21    11    43    1
22    12    13    1
23    12    29    2
24    13    14    am
25    13    44    1
26    14    15    2
27    14    16    1
28    16    28    ar
29    16    17    ar
30    17    18    ar
31    17    45    1
32    18    19    ar
33    18    46    1
34    19    20    1
35    19    27    ar
36    20    26    1
37    20    21    1
38    21    22    1
39    21    47    1
40    21    48    1
41    22    23    1
42    22    49    1
43    22    50    1
44    23    24    1
45    23    25    1
46    24    51    1
47    24    52    1
48    24    53    1
49    25    26    1
50    25    54    1
51    25    55    1
52    26    56    1
53    26    57    1
54    27    28    ar
55    27    58    1
56    28    59    1
57    29    30    1
58    30    60    1
59    31    36    ar
60    31    32    ar
61    32    33    ar
62    32    61    1
63    33    34    ar
64    33    62    1
65    34    35    ar
66    34    63    1
67    35    36    ar
68    35    64    1
69    36    65    1
@<TRIPOS>SUBSTRUCTURE
1   ZINC000014951647 1     RESIDUE    1   A     ZIN   1
