@<TRIPOS>MOLECULE
ZINC000014286580
80    83    1     0     0
SMALL
USER_CHARGES
@<TRIPOS>ATOM
1      C1      0.4870   -0.0785    1.1716 C.3      1 ZINC000014286580    0.0200
2      O2     -0.4023   -0.3689    0.0914 O.3      1 ZINC000014286580   -0.3000
3      C3      0.1357   -0.9584   -1.0097 C.ar     1 ZINC000014286580    0.1100
4      C4      1.4881   -1.2559   -1.0470 C.ar     1 ZINC000014286580   -0.1700
5      C5      2.0334   -1.8558   -2.1673 C.ar     1 ZINC000014286580   -0.0900
6      C6      1.2320   -2.1594   -3.2516 C.ar     1 ZINC000014286580   -0.0900
7      C7      1.8316   -2.8127   -4.4701 C.3      1 ZINC000014286580    0.1000
8      C8      0.8152   -3.6496   -5.1284 C.1      1 ZINC000014286580    0.2000
9      N9      0.0308   -4.2955   -5.6364 N.1      1 ZINC000014286580   -0.3900
10     C10     2.3119   -1.7338   -5.4429 C.3      1 ZINC000014286580   -0.0900
11     C11     3.2848   -0.7963   -4.7250 C.3      1 ZINC000014286580   -0.1200
12     C12     3.8492    0.2155   -5.7242 C.3      1 ZINC000014286580   -0.1100
13     C13     4.8221    1.1530   -5.0062 C.3      1 ZINC000014286580   -0.1600
14     C14     5.3865    2.1649   -6.0055 C.3      1 ZINC000014286580    0.0500
15     N15     6.3206    3.0650   -5.3162 N.3      1 ZINC000014286580   -0.5300
16     C16     7.3991    2.3062   -4.6629 C.3      1 ZINC000014286580    0.0500
17     C17     8.5178    3.2783   -4.2876 C.3      1 ZINC000014286580   -0.0700
18     C18     7.9472    4.4551   -3.5381 C.ar     1 ZINC000014286580   -0.0600
19     C19     8.8137    5.2549   -2.8081 C.ar     1 ZINC000014286580   -0.1700
20     C20     8.3349    6.3482   -2.1080 C.ar     1 ZINC000014286580    0.1000
21     O21     9.1885    7.1294   -1.3936 O.3      1 ZINC000014286580   -0.3100
22     C22    10.5698    6.7636   -1.4091 C.3      1 ZINC000014286580    0.0300
23     C23     6.9755    6.6446   -2.1390 C.ar     1 ZINC000014286580    0.1000
24     O24     6.4949    7.7178   -1.4559 O.3      1 ZINC000014286580   -0.3100
25     C25     5.0887    7.9599   -1.5342 C.3      1 ZINC000014286580    0.0300
26     C26     6.1152    5.8425   -2.8674 C.ar     1 ZINC000014286580   -0.1700
27     C27     6.5995    4.7459   -3.5659 C.ar     1 ZINC000014286580   -0.0800
28     C28     5.6195    3.8982   -4.3344 C.3      1 ZINC000014286580    0.0900
29     S29     3.2364   -3.8468   -3.9723 S.3      1 ZINC000014286580   -0.0400
30     C30     2.5037   -5.0036   -2.8635 C.ar     1 ZINC000014286580   -0.1100
31     C31     1.1360   -4.9648   -2.6199 C.ar     1 ZINC000014286580   -0.1200
32     C32     0.5653   -5.8730   -1.7503 C.ar     1 ZINC000014286580   -0.1000
33     C33     1.3530   -6.8203   -1.1220 C.ar     1 ZINC000014286580   -0.0800
34     C34     0.7263   -7.8097   -0.1736 C.3      1 ZINC000014286580   -0.1200
35     C35     2.7143   -6.8622   -1.3623 C.ar     1 ZINC000014286580   -0.1000
36     C36     3.2912   -5.9607   -2.2347 C.ar     1 ZINC000014286580   -0.0900
37     C37    -0.1189   -1.8655   -3.2207 C.ar     1 ZINC000014286580   -0.1600
38     C38    -0.6725   -1.2694   -2.0995 C.ar     1 ZINC000014286580    0.1100
39     O39    -2.0009   -0.9797   -2.0674 O.3      1 ZINC000014286580   -0.3000
40     C40    -2.7871   -1.4165   -3.1779 C.3      1 ZINC000014286580    0.0200
41     H41     0.9412   -1.0034    1.5270 H        1 ZINC000014286580    0.0600
42     H42     1.2672    0.6005    0.8275 H        1 ZINC000014286580    0.0600
43     H43    -0.0689    0.3889    1.9844 H        1 ZINC000014286580    0.1000
44     H44     2.1167   -1.0190   -0.2013 H        1 ZINC000014286580    0.1400
45     H45     3.0880   -2.0872   -2.1951 H        1 ZINC000014286580    0.1500
46     H46     2.8166   -2.2042   -6.2868 H        1 ZINC000014286580    0.0900
47     H47     1.4564   -1.1628   -5.8035 H        1 ZINC000014286580    0.0900
48     H48     2.7596   -0.2674   -3.9297 H        1 ZINC000014286580    0.0800
49     H49     4.1010   -1.3783   -4.2969 H        1 ZINC000014286580    0.0800
50     H50     4.3744   -0.3134   -6.5195 H        1 ZINC000014286580    0.0700
51     H51     3.0330    0.7974   -6.1523 H        1 ZINC000014286580    0.0600
52     H52     4.2969    1.6820   -4.2110 H        1 ZINC000014286580    0.0600
53     H53     5.6383    0.5711   -4.5782 H        1 ZINC000014286580    0.0700
54     H54     5.9117    1.6359   -6.8008 H        1 ZINC000014286580    0.0800
55     H55     4.5703    2.7468   -6.4336 H        1 ZINC000014286580    0.0800
56     H56     7.0153    1.8247   -3.7635 H        1 ZINC000014286580    0.0400
57     H57     7.7841    1.5522   -5.3495 H        1 ZINC000014286580    0.0800
58     H58     9.2457    2.7666   -3.6579 H        1 ZINC000014286580    0.0800
59     H59     9.0102    3.6307   -5.1940 H        1 ZINC000014286580    0.0800
60     H60     9.8682    5.0229   -2.7856 H        1 ZINC000014286580    0.1300
61     H61    10.6840    5.7583   -1.0037 H        1 ZINC000014286580    0.0500
62     H62    10.9402    6.7864   -2.4340 H        1 ZINC000014286580    0.0600
63     H63    11.1388    7.4672   -0.8015 H        1 ZINC000014286580    0.1000
64     H64     4.8056    8.1238   -2.5740 H        1 ZINC000014286580    0.0600
65     H65     4.5492    7.0977   -1.1423 H        1 ZINC000014286580    0.0500
66     H66     4.8387    8.8429   -0.9461 H        1 ZINC000014286580    0.1000
67     H67     5.0600    6.0712   -2.8922 H        1 ZINC000014286580    0.1300
68     H68     4.9122    4.5460   -4.8521 H        1 ZINC000014286580    0.0900
69     H69     5.0771    3.2565   -3.6400 H        1 ZINC000014286580    0.0500
70     H70     0.5203   -4.2251   -3.1099 H        1 ZINC000014286580    0.1300
71     H71    -0.4974   -5.8432   -1.5602 H        1 ZINC000014286580    0.1200
72     H72     0.4177   -8.6972   -0.7260 H        1 ZINC000014286580    0.0700
73     H73     1.4518   -8.0909    0.5898 H        1 ZINC000014286580    0.0700
74     H74    -0.1438   -7.3566    0.3015 H        1 ZINC000014286580    0.0700
75     H75     3.3263   -7.6037   -0.8702 H        1 ZINC000014286580    0.1300
76     H76     4.3542   -5.9942   -2.4222 H        1 ZINC000014286580    0.1300
77     H77    -0.7430   -2.1038   -4.0693 H        1 ZINC000014286580    0.1300
78     H78    -2.7814   -2.5057   -3.2211 H        1 ZINC000014286580    0.0500
79     H79    -3.8113   -1.0630   -3.0593 H        1 ZINC000014286580    0.1000
80     H80    -2.3683   -1.0141   -4.1003 H        1 ZINC000014286580    0.0500
@<TRIPOS>BOND
1     1     2     1
2     1     41    1
3     1     42    1
4     1     43    1
5     2     3     1
6     3     38    ar
7     3     4     ar
8     4     5     ar
9     4     44    1
10    5     6     ar
11    5     45    1
12    6     7     1
13    6     37    ar
14    7     8     1
15    7     10    1
16    7     29    1
17    8     9     3
18    10    11    1
19    10    46    1
20    10    47    1
21    11    12    1
22    11    48    1
23    11    49    1
24    12    13    1
25    12    50    1
26    12    51    1
27    13    14    1
28    13    52    1
29    13    53    1
30    14    15    1
31    14    54    1
32    14    55    1
33    15    28    1
34    15    16    1
35    16    17    1
36    16    56    1
37    16    57    1
38    17    18    1
39    17    58    1
40    17    59    1
41    18    27    ar
42    18    19    ar
43    19    20    ar
44    19    60    1
45    20    21    1
46    20    23    ar
47    21    22    1
48    22    61    1
49    22    62    1
50    22    63    1
51    23    24    1
52    23    26    ar
53    24    25    1
54    25    64    1
55    25    65    1
56    25    66    1
57    26    27    ar
58    26    67    1
59    27    28    1
60    28    68    1
61    28    69    1
62    29    30    1
63    30    36    ar
64    30    31    ar
65    31    32    ar
66    31    70    1
67    32    33    ar
68    32    71    1
69    33    34    1
70    33    35    ar
71    34    72    1
72    34    73    1
73    34    74    1
74    35    36    ar
75    35    75    1
76    36    76    1
77    37    38    ar
78    37    77    1
79    38    39    1
80    39    40    1
81    40    78    1
82    40    79    1
83    40    80    1
@<TRIPOS>SUBSTRUCTURE
1   ZINC000014286580 1     RESIDUE    1   A     ZIN   1
