@<TRIPOS>MOLECULE
ZINC000003870333
  38   40    0    0    0
SMALL
USER_CHARGES
NO_NAME
@<TRIPOS>ATOM
    1 C1       -0.0178     1.4648     0.0101 C.3    1 <0>      -0.0500
    2 N2        0.0021    -0.0041     0.0020 N.4    1 <0>      -0.3800
    3 H3       -0.9454    -0.3509     0.0092 H      1 <0>       0.4200
    4 C4        0.6801    -0.4725    -1.2070 C.3    1 <0>      -0.0100
    5 C5        2.1823    -0.5369    -0.9148 C.3    1 <0>      -0.0700
    6 C6        2.5756    -1.9200    -0.4650 C.ar   1 <0>      -0.2600
    7 C7        3.6594    -2.5245    -1.0875 C.ar   1 <0>      -0.0200
    8 C8        4.0790    -3.7802    -0.6984 C.ar   1 <0>      -0.2200
    9 Br9       5.5539    -4.5966    -1.5553 Br     1 <0>      -0.0800
   10 C10       3.4140    -4.4411     0.3250 C.ar   1 <0>       0.2900
   11 O11       3.8274    -5.6728     0.7240 O.3    1 <0>      -0.6700
   12 C12       2.3278    -3.8398     0.9381 C.ar   1 <0>      -0.2300
   13 C13       1.9000    -2.5826     0.5342 C.ar   1 <0>      -0.0300
   14 C14       0.6701    -2.0147     1.1997 C.3    1 <0>      -0.0100
   15 H15      -0.2161    -2.3552     0.6642 H      1 <0>       0.0900
   16 C16       0.6067    -2.5055     2.6232 C.ar   1 <0>      -0.0800
   17 C17       1.6302    -2.2075     3.5033 C.ar   1 <0>      -0.1000
   18 C18       1.5720    -2.6577     4.8089 C.ar   1 <0>      -0.1100
   19 C19       0.4901    -3.4054     5.2347 C.ar   1 <0>      -0.1100
   20 C20      -0.5338    -3.7026     4.3549 C.ar   1 <0>      -0.1200
   21 C21      -0.4777    -3.2488     3.0503 C.ar   1 <0>      -0.1100
   22 C22       0.7048    -0.4867     1.1959 C.3    1 <0>      -0.0100
   23 H23       1.0047     1.8421     0.0024 H      1 <0>       0.1200
   24 H24      -0.5450     1.8259    -0.8730 H      1 <0>       0.1200
   25 H25      -0.5280     1.8163     0.9069 H      1 <0>       0.1200
   26 H26       0.3141    -1.4640    -1.4737 H      1 <0>       0.1300
   27 H27       0.4938     0.2220    -2.0262 H      1 <0>       0.1300
   28 H28       2.7356    -0.2819    -1.8186 H      1 <0>       0.1000
   29 H29       2.4268     0.1793    -0.1303 H      1 <0>       0.0700
   30 H30       4.1775    -2.0084    -1.8822 H      1 <0>       0.1100
   31 H31       1.8100    -4.3523     1.7353 H      1 <0>       0.1100
   32 H32       2.4755    -1.6233     3.1706 H      1 <0>       0.1200
   33 H33       2.3720    -2.4255     5.4963 H      1 <0>       0.1200
   34 H34       0.4450    -3.7577     6.2546 H      1 <0>       0.1200
   35 H35      -1.3789    -4.2871     4.6874 H      1 <0>       0.1200
   36 H36      -1.2777    -3.4810     2.3629 H      1 <0>       0.1200
   37 H37       1.7395    -0.1444     1.1786 H      1 <0>       0.1500
   38 H38       0.2065    -0.1073     2.0880 H      1 <0>       0.1300
@<TRIPOS>BOND
   1    1    2 1
   2    1   23 1
   3    1   24 1
   4    1   25 1
   5    2    3 1
   6    2   22 1
   7    2    4 1
   8    4    5 1
   9    4   26 1
  10    4   27 1
  11    5    6 1
  12    5   28 1
  13    5   29 1
  14    6   13 ar
  15    6    7 ar
  16    7    8 ar
  17    7   30 1
  18    8    9 1
  19    8   10 ar
  20   10   11 1
  21   10   12 ar
  22   12   13 ar
  23   12   31 1
  24   13   14 1
  25   14   15 1
  26   14   16 1
  27   14   22 1
  28   16   21 ar
  29   16   17 ar
  30   17   18 ar
  31   17   32 1
  32   18   19 ar
  33   18   33 1
  34   19   20 ar
  35   19   34 1
  36   20   21 ar
  37   20   35 1
  38   21   36 1
  39   22   37 1
  40   22   38 1
