@<TRIPOS>MOLECULE
ZINC000100009616
23    25    1     0     0
SMALL
USER_CHARGES
@<TRIPOS>ATOM
1      C1     -0.0167    1.3800    0.0096 C.ar     1 ZINC000100009616   -0.0800
2      C2      1.1654    2.0951    0.0022 C.ar     1 ZINC000100009616   -0.1300
3      C3      2.3800    1.4290   -0.0117 C.ar     1 ZINC000100009616   -0.0600
4      C4      2.4045    0.0468   -0.0183 C.ar     1 ZINC000100009616   -0.1500
5      S5      3.9391   -0.8249   -0.0319 S.3      1 ZINC000100009616    0.0100
6      C6      3.4981   -2.3145   -0.8695 C.ar     1 ZINC000100009616   -0.1500
7      C7      4.4343   -3.0069   -1.6146 C.ar     1 ZINC000100009616   -0.0600
8      C8      4.0693   -4.1751   -2.2636 C.ar     1 ZINC000100009616   -0.1300
9      C9      2.7742   -4.6460   -2.1659 C.ar     1 ZINC000100009616   -0.0800
10     C10     1.8325   -3.9563   -1.4218 C.ar     1 ZINC000100009616   -0.1500
11     C11     2.1869   -2.7859   -0.7699 C.ar     1 ZINC000100009616    0.1900
12     N12     1.2374   -2.0795   -0.0230 N.pl3    1 ZINC000100009616   -0.7000
13     C13     1.2117   -0.6801   -0.0125 C.ar     1 ZINC000100009616    0.1900
14     C14     0.0021   -0.0041    0.0020 C.ar     1 ZINC000100009616   -0.1500
15     H15    -0.9609    1.9040    0.0260 H        1 ZINC000100009616    0.1300
16     H16     1.1426    3.1748    0.0068 H        1 ZINC000100009616    0.1300
17     H17     3.3043    1.9875   -0.0176 H        1 ZINC000100009616    0.1300
18     H18     5.4466   -2.6383   -1.6908 H        1 ZINC000100009616    0.1300
19     H19     4.7980   -4.7182   -2.8470 H        1 ZINC000100009616    0.1300
20     H20     2.4947   -5.5575   -2.6734 H        1 ZINC000100009616    0.1300
21     H21     0.8218   -4.3300   -1.3496 H        1 ZINC000100009616    0.1300
22     H22     0.5827   -2.5702    0.4980 H        1 ZINC000100009616    0.4100
23     H23    -0.9257   -0.5569    0.0077 H        1 ZINC000100009616    0.1300
@<TRIPOS>BOND
1     1     14    ar
2     1     2     ar
3     1     15    1
4     2     3     ar
5     2     16    1
6     3     4     ar
7     3     17    1
8     4     13    ar
9     4     5     1
10    5     6     1
11    6     11    ar
12    6     7     ar
13    7     8     ar
14    7     18    1
15    8     9     ar
16    8     19    1
17    9     10    ar
18    9     20    1
19    10    11    ar
20    10    21    1
21    11    12    1
22    12    13    1
23    12    22    1
24    13    14    ar
25    14    23    1
@<TRIPOS>SUBSTRUCTURE
1   ZINC000100009616 1     RESIDUE    1   A     ZIN   1
