@<TRIPOS>MOLECULE
ZINC000001542905
  45   46    0    0    0
SMALL
USER_CHARGES
NO_NAME
@<TRIPOS>ATOM
    1 C1       -0.0187     1.5258     0.0104 C.3    1 <0>      -0.1800
    2 C2        0.0021    -0.0041     0.0020 C.3    1 <0>       0.0600
    3 C3        0.7421    -0.5109     1.2415 C.3    1 <0>      -0.1800
    4 C4       -1.4333    -0.5336     0.0129 C.3    1 <0>      -0.1800
    5 N5        0.6897    -0.4778    -1.2066 N.4    1 <0>      -0.5000
    6 H6        0.7033    -1.4867    -1.2121 H      1 <0>       0.4300
    7 H7        0.2017    -0.1436    -2.0240 H      1 <0>       0.4300
    8 C8        2.0678     0.0307    -1.2170 C.3    1 <0>      -0.0500
    9 C9        2.7840    -0.4628    -2.4758 C.3    1 <0>       0.1100
   10 H10       2.2568    -0.1017    -3.3589 H      1 <0>       0.1400
   11 O11       2.8033    -1.8916    -2.4837 O.3    1 <0>      -0.5400
   12 C12       4.2193     0.0668    -2.4867 C.3    1 <0>      -0.1900
   13 S13       5.0202    -0.3926    -4.0435 S.3    1 <0>       0.0800
   14 C14       6.6108     0.3225    -3.7921 C.2    1 <0>       0.0400
   15 N15       7.5919     0.2817    -4.6393 N.2    1 <0>      -0.4200
   16 C16       8.7269     0.8811    -4.2764 C.2    1 <0>       0.1500
   17 C17       9.9195     0.9096    -5.1453 C.2    1 <0>      -0.1200
   18 C18      10.0009     0.3481    -6.3881 C.2    1 <0>      -0.1000
   19 C19      11.2097     0.5021    -7.0081 C.2    1 <0>      -0.0500
   20 C20      12.1406     1.1931    -6.2831 C.2    1 <0>      -0.2500
   21 C21      13.5030     1.4887    -6.7253 C.2    1 <0>       0.5900
   22 N22      14.3367     2.1802    -5.9233 N.am   1 <0>      -0.8500
   23 O23      13.8840     1.1101    -7.8180 O.2    1 <0>      -0.5200
   24 S24      11.4486     1.6779    -4.7410 S.3    1 <0>       0.1900
   25 C25       8.7059     1.4594    -3.0588 C.2    1 <0>      -0.2300
   26 S26       7.1103     1.2089    -2.3551 S.3    1 <0>       0.1000
   27 H27       1.0039     1.9031     0.0027 H      1 <0>       0.0800
   28 H28      -0.5459     1.8868    -0.8726 H      1 <0>       0.0800
   29 H29      -0.5289     1.8773     0.9072 H      1 <0>       0.1100
   30 H30       0.2319    -0.1594     2.1383 H      1 <0>       0.1100
   31 H31       0.7568    -1.6008     1.2356 H      1 <0>       0.0800
   32 H32       1.7647    -0.1336     1.2338 H      1 <0>       0.0800
   33 H33      -1.9605    -0.1726    -0.8702 H      1 <0>       0.0800
   34 H34      -1.4185    -1.6235     0.0069 H      1 <0>       0.0800
   35 H35      -1.9435    -0.1821     0.9097 H      1 <0>       0.1100
   36 H36       2.0530     1.1205    -1.2110 H      1 <0>       0.1500
   37 H37       2.5950    -0.3304    -0.3340 H      1 <0>       0.1400
   38 H38       3.2576    -2.2830    -1.7250 H      1 <0>       0.3900
   39 H39       4.2068     1.1526    -2.3912 H      1 <0>       0.1200
   40 H40       4.7722    -0.3649    -1.6524 H      1 <0>       0.1100
   41 H41       9.1749    -0.1766    -6.8451 H      1 <0>       0.1600
   42 H42      11.4135     0.1085    -7.9930 H      1 <0>       0.1600
   43 H43      14.0331     2.4819    -5.0528 H      1 <0>       0.4000
   44 H44      15.2402     2.3763    -6.2166 H      1 <0>       0.4100
   45 H45       9.5254     1.9889    -2.5958 H      1 <0>       0.1900
@<TRIPOS>BOND
   1    1    2 1
   2    1   27 1
   3    1   28 1
   4    1   29 1
   5    2    3 1
   6    2    4 1
   7    2    5 1
   8    3   30 1
   9    3   31 1
  10    3   32 1
  11    4   33 1
  12    4   34 1
  13    4   35 1
  14    5    6 1
  15    5    7 1
  16    5    8 1
  17    8    9 1
  18    8   36 1
  19    8   37 1
  20    9   10 1
  21    9   11 1
  22    9   12 1
  23   11   38 1
  24   12   13 1
  25   12   39 1
  26   12   40 1
  27   13   14 1
  28   14   26 1
  29   14   15 2
  30   15   16 1
  31   16   17 1
  32   16   25 2
  33   17   24 1
  34   17   18 2
  35   18   19 1
  36   18   41 1
  37   19   20 2
  38   19   42 1
  39   20   21 1
  40   20   24 1
  41   21   22 am
  42   21   23 2
  43   22   43 1
  44   22   44 1
  45   25   26 1
  46   25   45 1
