@<TRIPOS>MOLECULE
ZINC000000000848
41    43    1     0     0
SMALL
USER_CHARGES
@<TRIPOS>ATOM
1      C1     -0.0173    1.4248    0.0099 C.3      1 ZINC000000000848    0.0200
2      O2      0.0021   -0.0041    0.0020 O.3      1 ZINC000000000848   -0.2700
3      C3      0.6048   -0.6061   -1.0540 C.ar     1 ZINC000000000848    0.2400
4      C4      1.1707    0.1585   -2.0582 C.ar     1 ZINC000000000848   -0.3000
5      C5      1.7878   -0.4595   -3.1385 C.ar     1 ZINC000000000848    0.3000
6      N6      2.3564    0.3124   -4.1467 N.pl3    1 ZINC000000000848   -0.8600
7      C7      1.8398   -1.8508   -3.2157 C.ar     1 ZINC000000000848   -0.1600
8      Cl8     2.6132   -2.6142   -4.5695 Cl       1 ZINC000000000848   -0.0700
9      C9      1.2805   -2.6204   -2.2219 C.ar     1 ZINC000000000848    0.0100
10     C10     0.6611   -2.0067   -1.1278 C.ar     1 ZINC000000000848   -0.2200
11     C11     0.0615   -2.8271   -0.0625 C.2      1 ZINC000000000848    0.5700
12     O12    -0.4764   -2.2915    0.8878 O.2      1 ZINC000000000848   -0.5200
13     N13     0.1087   -4.1718   -0.1404 N.am     1 ZINC000000000848   -0.7300
14     C14    -0.4880   -4.9883    0.9196 C.3      1 ZINC000000000848    0.1200
15     H15    -0.3556   -4.4921    1.8811 H        1 ZINC000000000848    0.0900
16     C16    -1.9819   -5.1783    0.6416 C.3      1 ZINC000000000848    0.0400
17     N17    -2.2723   -6.6112    0.4976 N.3      1 ZINC000000000848   -0.5300
18     C18    -1.5442   -7.1854   -0.6423 C.3      1 ZINC000000000848    0.0500
19     C19    -0.0378   -7.0518   -0.4015 C.3      1 ZINC000000000848   -0.1500
20     C20     0.1909   -6.3633    0.9531 C.3      1 ZINC000000000848   -0.1000
21     C21    -0.4699   -7.2085    2.0493 C.3      1 ZINC000000000848   -0.1500
22     C22    -1.9671   -7.3390    1.7371 C.3      1 ZINC000000000848    0.0500
23     H23     1.0053    1.8021    0.0021 H        1 ZINC000000000848    0.0600
24     H24    -0.5445    1.7859   -0.8732 H        1 ZINC000000000848    0.0600
25     H25    -0.5275    1.7763    0.9067 H        1 ZINC000000000848    0.1100
26     H26     1.1323    1.2364   -2.0026 H        1 ZINC000000000848    0.1400
27     H27     2.3215    1.2804   -4.0946 H        1 ZINC000000000848    0.4100
28     H28     2.7877   -0.1174   -4.9018 H        1 ZINC000000000848    0.4100
29     H29     1.3227   -3.6977   -2.2846 H        1 ZINC000000000848    0.1400
30     H30     0.5377   -4.5990   -0.8982 H        1 ZINC000000000848    0.3900
31     H31    -2.5607   -4.7715    1.4708 H        1 ZINC000000000848    0.0800
32     H32    -2.2495   -4.6588   -0.2785 H        1 ZINC000000000848    0.0800
33     H33    -1.8038   -8.2389   -0.7463 H        1 ZINC000000000848    0.0800
34     H34    -1.8156   -6.6519   -1.5533 H        1 ZINC000000000848    0.0800
35     H35     0.4192   -8.0413   -0.3894 H        1 ZINC000000000848    0.0700
36     H36     0.4071   -6.4517   -1.1953 H        1 ZINC000000000848    0.0600
37     H37     1.2588   -6.2524    1.1416 H        1 ZINC000000000848    0.0800
38     H38    -0.0153   -8.1989    2.0708 H        1 ZINC000000000848    0.0700
39     H39    -0.3364   -6.7223    3.0157 H        1 ZINC000000000848    0.0700
40     H40    -2.5478   -6.9168    2.5572 H        1 ZINC000000000848    0.0800
41     H41    -2.2225   -8.3915    1.6141 H        1 ZINC000000000848    0.0800
@<TRIPOS>BOND
1     1     2     1
2     1     23    1
3     1     24    1
4     1     25    1
5     2     3     1
6     3     10    ar
7     3     4     ar
8     4     5     ar
9     4     26    1
10    5     6     1
11    5     7     ar
12    6     27    1
13    6     28    1
14    7     8     1
15    7     9     ar
16    9     10    ar
17    9     29    1
18    10    11    1
19    11    12    2
20    11    13    am
21    13    14    1
22    13    30    1
23    14    15    1
24    14    20    1
25    14    16    1
26    16    17    1
27    16    31    1
28    16    32    1
29    17    22    1
30    17    18    1
31    18    19    1
32    18    33    1
33    18    34    1
34    19    20    1
35    19    35    1
36    19    36    1
37    20    21    1
38    20    37    1
39    21    22    1
40    21    38    1
41    21    39    1
42    22    40    1
43    22    41    1
@<TRIPOS>SUBSTRUCTURE
1   ZINC000000000848 1     RESIDUE    1   A     ZIN   1
