@<TRIPOS>MOLECULE
ZINC000100818517
  48   50    0    0    0
SMALL
USER_CHARGES
NO_NAME
@<TRIPOS>ATOM
    1 C1        0.9676    -1.0071    -0.5255 C.3    1 <0>      -0.1400
    2 C2        0.0044     0.0760    -0.0356 C.3    1 <0>      -0.1000
    3 C3       -1.3977    -0.4754    -0.0044 C.ar   1 <0>       0.0100
    4 C4       -1.9399    -0.9012     1.1746 C.ar   1 <0>      -0.1600
    5 C5       -3.2304    -1.4110     1.2130 C.ar   1 <0>      -0.0400
    6 C6       -3.9866    -1.4963     0.0644 C.ar   1 <0>      -0.1800
    7 C7       -3.4556    -1.0680    -1.1496 C.ar   1 <0>       0.2200
    8 C8       -2.1498    -0.5474    -1.1827 C.ar   1 <0>      -0.1400
    9 C9       -1.5843    -0.0946    -2.4578 C.2    1 <0>       0.2800
   10 O10      -0.3341     0.4091    -2.5206 O.3    1 <0>      -0.4300
   11 C11      -2.3735    -0.1987    -3.6058 C.2    1 <0>      -0.3600
   12 C12      -1.8557     0.2396    -4.9074 C.2    1 <0>       0.5900
   13 O13      -2.1303     1.3473    -5.3298 O.2    1 <0>      -0.4900
   14 N14      -1.0762    -0.5849    -5.6348 N.am   1 <0>      -0.5400
   15 C15      -0.6761    -1.8847    -5.0901 C.3    1 <0>       0.1000
   16 C16      -1.6462    -2.9625    -5.5780 C.3    1 <0>      -0.1700
   17 C17      -0.6491    -0.1995    -6.9096 C.ar   1 <0>       0.1500
   18 C18       0.0136    -1.1073    -7.7255 C.ar   1 <0>      -0.1600
   19 C19       0.4336    -0.7238    -8.9840 C.ar   1 <0>      -0.1000
   20 C20       0.1954     0.5627    -9.4319 C.ar   1 <0>      -0.1400
   21 C21      -0.4642     1.4690    -8.6220 C.ar   1 <0>      -0.1000
   22 C22      -0.8919     1.0900    -7.3646 C.ar   1 <0>      -0.1700
   23 C23      -3.7228    -0.7510    -3.4921 C.2    1 <0>       0.5700
   24 O24      -4.4190    -0.8460    -4.4872 O.2    1 <0>      -0.5200
   25 N25      -4.2068    -1.1508    -2.3039 N.am   1 <0>      -0.5300
   26 C26      -5.5637    -1.6984    -2.2341 C.3    1 <0>       0.0600
   27 H27       1.9818    -0.6082    -0.5481 H      1 <0>       0.0600
   28 H28       0.9281    -1.8612     0.1504 H      1 <0>       0.0500
   29 H29       0.6792    -1.3234    -1.5280 H      1 <0>       0.0600
   30 H30       0.2928     0.3923     0.9668 H      1 <0>       0.0800
   31 H31       0.0439     0.9302    -0.7116 H      1 <0>       0.1000
   32 H32      -1.3601    -0.8410     2.0838 H      1 <0>       0.1400
   33 H33      -3.6457    -1.7445     2.1526 H      1 <0>       0.1400
   34 H34      -4.9895    -1.8949     0.1055 H      1 <0>       0.1400
   35 H35      -0.0900     0.7481    -3.3927 H      1 <0>       0.4000
   36 H36       0.3326    -2.1246    -5.4263 H      1 <0>       0.0900
   37 H37      -0.6961    -1.8439    -4.0010 H      1 <0>       0.0800
   38 H38      -1.6263    -3.0033    -6.6670 H      1 <0>       0.0700
   39 H39      -1.3486    -3.9296    -5.1727 H      1 <0>       0.0700
   40 H40      -2.6550    -2.7226    -5.2418 H      1 <0>       0.0600
   41 H41       0.2006    -2.1120    -7.3760 H      1 <0>       0.1300
   42 H42       0.9490    -1.4292    -9.6190 H      1 <0>       0.1300
   43 H43       0.5254     0.8603   -10.4162 H      1 <0>       0.1200
   44 H44      -0.6484     2.4730    -8.9746 H      1 <0>       0.1300
   45 H45      -1.4073     1.7982    -6.7328 H      1 <0>       0.1800
   46 H46      -6.0072    -1.6984    -3.2299 H      1 <0>       0.1000
   47 H47      -5.5245    -2.7192    -1.8539 H      1 <0>       0.0800
   48 H48      -6.1692    -1.0852    -1.5667 H      1 <0>       0.0800
@<TRIPOS>BOND
   1    1    2 1
   2    1   27 1
   3    1   28 1
   4    1   29 1
   5    2    3 1
   6    2   30 1
   7    2   31 1
   8    3    8 ar
   9    3    4 ar
  10    4    5 ar
  11    4   32 1
  12    5    6 ar
  13    5   33 1
  14    6    7 ar
  15    6   34 1
  16    7   25 1
  17    7    8 ar
  18    8    9 1
  19    9   10 1
  20    9   11 2
  21   10   35 1
  22   11   12 1
  23   11   23 1
  24   12   13 2
  25   12   14 am
  26   14   15 1
  27   14   17 1
  28   15   16 1
  29   15   36 1
  30   15   37 1
  31   16   38 1
  32   16   39 1
  33   16   40 1
  34   17   22 ar
  35   17   18 ar
  36   18   19 ar
  37   18   41 1
  38   19   20 ar
  39   19   42 1
  40   20   21 ar
  41   20   43 1
  42   21   22 ar
  43   21   44 1
  44   22   45 1
  45   23   24 2
  46   23   25 am
  47   25   26 1
  48   26   46 1
  49   26   47 1
  50   26   48 1
