@<TRIPOS>MOLECULE
ZINC000009225331
  32   34    0    0    0
SMALL
USER_CHARGES
NO_NAME
@<TRIPOS>ATOM
    1 O1        0.0021    -0.0041     0.0020 O.2    1 <0>      -0.5400
    2 C2       -0.0144     1.2127     0.0087 C.2    1 <0>       0.6900
    3 N3       -1.1255     1.9727     0.0292 N.am   1 <0>      -0.6400
    4 C4       -0.7418     3.3118     0.0306 C.ar   1 <0>       0.0800
    5 C5       -1.4486     4.5040     0.0470 C.ar   1 <0>      -0.0600
    6 C6       -0.7687     5.7066     0.0429 C.ar   1 <0>      -0.2000
    7 C7       -1.5370     7.0029     0.0612 C.3    1 <0>       0.5200
    8 F8       -1.7547     7.3973     1.3857 F      1 <0>      -0.1800
    9 F9       -0.8023     7.9900    -0.6044 F      1 <0>      -0.1800
   10 F10      -2.7673     6.8250    -0.5806 F      1 <0>      -0.1800
   11 C11       0.6150     5.7260     0.0224 C.ar   1 <0>      -0.0600
   12 C12       1.3282     4.5430     0.0055 C.ar   1 <0>      -0.1000
   13 C13       0.6548     3.3314     0.0100 C.ar   1 <0>       0.1500
   14 N14       1.0757     2.0028     0.0025 N.am   1 <0>      -0.4400
   15 C15       2.4079     1.5637    -0.0126 C.ar   1 <0>      -0.0400
   16 C16       3.0790     1.3379     1.1797 C.ar   1 <0>       0.0100
   17 C17       4.3917     0.9048     1.1623 C.ar   1 <0>      -0.3200
   18 C18       5.1195     0.6594     2.4589 C.3    1 <0>       0.5200
   19 F19       4.9313    -0.6691     2.8552 F      1 <0>      -0.1900
   20 F20       6.4853     0.9038     2.2805 F      1 <0>      -0.1900
   21 F21       4.6174     1.5157     3.4448 F      1 <0>      -0.1900
   22 C22       5.0383     0.6957    -0.0415 C.ar   1 <0>      -0.0100
   23 C23       4.3756     0.9192    -1.2345 C.ar   1 <0>      -0.2500
   24 C24       3.0584     1.3477    -1.2256 C.ar   1 <0>       0.3100
   25 O25       2.4053     1.5675    -2.3977 O.3    1 <0>      -0.6800
   26 H26      -2.0380     1.6439     0.0408 H      1 <0>       0.4300
   27 H27      -2.5284     4.4928     0.0627 H      1 <0>       0.1400
   28 H28       1.1396     6.6701     0.0193 H      1 <0>       0.1400
   29 H29       2.4079     4.5620    -0.0104 H      1 <0>       0.1400
   30 H30       2.5764     1.5008     2.1216 H      1 <0>       0.1100
   31 H31       6.0638     0.3573    -0.0503 H      1 <0>       0.1100
   32 H32       4.8838     0.7556    -2.1733 H      1 <0>       0.1200
@<TRIPOS>BOND
   1    1    2 2
   2    2   14 am
   3    2    3 am
   4    3    4 1
   5    3   26 1
   6    4   13 ar
   7    4    5 ar
   8    5    6 ar
   9    5   27 1
  10    6    7 1
  11    6   11 ar
  12    7    8 1
  13    7    9 1
  14    7   10 1
  15   11   12 ar
  16   11   28 1
  17   12   13 ar
  18   12   29 1
  19   13   14 1
  20   14   15 1
  21   15   24 ar
  22   15   16 ar
  23   16   17 ar
  24   16   30 1
  25   17   18 1
  26   17   22 ar
  27   18   19 1
  28   18   20 1
  29   18   21 1
  30   22   23 ar
  31   22   31 1
  32   23   24 ar
  33   23   32 1
  34   24   25 1
