@<TRIPOS>MOLECULE
ZINC000000005921
  23   24    0    0    0
SMALL
USER_CHARGES
NO_NAME
@<TRIPOS>ATOM
    1 C1       -0.0187     1.5258     0.0104 C.3    1 <0>      -0.2000
    2 C2        0.0021    -0.0041     0.0020 C.3    1 <0>       0.3700
    3 H3        0.5119    -0.3579    -0.8941 H      1 <0>       0.1300
    4 N4       -1.3672    -0.5129     0.0200 N.pl3  1 <0>      -0.7500
    5 C5       -2.2086    -0.4071     1.1251 C.ar   1 <0>       0.3000
    6 C6       -3.5864    -0.4852     0.9303 C.ar   1 <0>      -0.1800
    7 C7       -4.4459    -0.4006     2.0059 C.ar   1 <0>      -0.0200
    8 C8       -3.9470    -0.2392     3.2863 C.ar   1 <0>      -0.1000
    9 Cl9      -5.0325    -0.1437     4.6377 Cl     1 <0>      -0.0600
   10 C10      -2.5797    -0.1546     3.4869 C.ar   1 <0>       0.0300
   11 C11      -1.7189    -0.2303     2.4124 C.ar   1 <0>      -0.7100
   12 S12       0.0237    -0.0816     2.6685 S.o2   1 <0>       2.6900
   13 O13       0.2925     1.2992     2.8692 O.2    1 <0>      -0.9400
   14 O14       0.3900    -1.0946     3.5953 O.2    1 <0>      -0.9500
   15 N15       0.7092    -0.4966     1.2015 N.am   1 <0>      -1.1200
   16 H16       1.0039     1.9031     0.0027 H      1 <0>       0.0900
   17 H17      -0.5459     1.8868    -0.8726 H      1 <0>       0.0800
   18 H18      -0.5289     1.8773     0.9072 H      1 <0>       0.0800
   19 H19      -1.7079    -0.9461    -0.7782 H      1 <0>       0.4100
   20 H20      -3.9825    -0.6119    -0.0664 H      1 <0>       0.1400
   21 H21      -5.5126    -0.4604     1.8479 H      1 <0>       0.1400
   22 H22      -2.1873    -0.0289     4.4852 H      1 <0>       0.1400
   23 H23       1.5181    -1.0287     1.1434 H      1 <0>       0.4300
@<TRIPOS>BOND
   1    1    2 1
   2    1   16 1
   3    1   17 1
   4    1   18 1
   5    2    3 1
   6    2   15 1
   7    2    4 1
   8    4    5 1
   9    4   19 1
  10    5   11 ar
  11    5    6 ar
  12    6    7 ar
  13    6   20 1
  14    7    8 ar
  15    7   21 1
  16    8    9 1
  17    8   10 ar
  18   10   11 ar
  19   10   22 1
  20   11   12 1
  21   12   13 2
  22   12   14 2
  23   12   15 am
  24   15   23 1
