@<TRIPOS>MOLECULE
ZINC000148036634
34    34    1     0     0
SMALL
USER_CHARGES
@<TRIPOS>ATOM
1      O1      0.0021   -0.0041    0.0020 O.2      1 ZINC000148036634   -0.5200
2      C2     -0.0144    1.2113    0.0087 C.2      1 ZINC000148036634    0.5600
3      N3      1.1435    1.9010    0.0013 N.am     1 ZINC000148036634   -0.7300
4      C4      2.4220    1.1859   -0.0147 C.3      1 ZINC000148036634    0.1300
5      C5      3.5713    2.1958   -0.0202 C.3      1 ZINC000148036634   -0.0900
6      S6      5.1543    1.3103   -0.0401 S.3      1 ZINC000148036634   -0.2200
7      C7     -1.3048    1.9331    0.0187 C.ar     1 ZINC000148036634   -0.1400
8      C8     -2.5026    1.2217    0.0264 C.ar     1 ZINC000148036634    0.0000
9      C9     -3.7141    1.9096    0.0363 C.ar     1 ZINC000148036634   -0.1400
10     C10    -4.9901    1.1627    0.0450 C.2      1 ZINC000148036634    0.5600
11     O11    -4.9829   -0.0528    0.0434 O.2      1 ZINC000148036634   -0.5200
12     N12    -6.1613    1.8296    0.0546 N.am     1 ZINC000148036634   -0.7300
13     C13    -7.4256    1.0896    0.0631 C.3      1 ZINC000148036634    0.1300
14     C14    -8.5944    2.0769    0.0731 C.3      1 ZINC000148036634   -0.0900
15     S15   -10.1599    1.1606    0.0837 S.3      1 ZINC000148036634   -0.2200
16     C16    -3.7206    3.3064    0.0385 C.ar     1 ZINC000148036634   -0.0600
17     C17    -2.5298    4.0054    0.0309 C.ar     1 ZINC000148036634   -0.1300
18     C18    -1.3255    3.3298    0.0264 C.ar     1 ZINC000148036634   -0.0600
19     H19     1.1303    2.8709    0.0067 H        1 ZINC000148036634    0.4000
20     H20     2.4967    0.5553    0.8712 H        1 ZINC000148036634    0.0900
21     H21     2.4797    0.5648   -0.9086 H        1 ZINC000148036634    0.0900
22     H22     3.4965    2.8264   -0.9062 H        1 ZINC000148036634    0.0900
23     H23     3.5135    2.8168    0.8737 H        1 ZINC000148036634    0.0900
24     H24     6.0581    2.3064   -0.0434 H        1 ZINC000148036634    0.0900
25     H25    -2.4921    0.1418    0.0243 H        1 ZINC000148036634    0.1500
26     H26    -6.1670    2.7996    0.0558 H        1 ZINC000148036634    0.4000
27     H27    -7.4863    0.4637   -0.8272 H        1 ZINC000148036634    0.0900
28     H28    -7.4729    0.4615    0.9527 H        1 ZINC000148036634    0.0900
29     H29    -8.5337    2.7028    0.9634 H        1 ZINC000148036634    0.0900
30     H30    -8.5470    2.7050   -0.8165 H        1 ZINC000148036634    0.0900
31     H31   -11.0830    2.1388    0.0918 H        1 ZINC000148036634    0.0900
32     H32    -4.6590    3.8409    0.0459 H        1 ZINC000148036634    0.1300
33     H33    -2.5403    5.0853    0.0327 H        1 ZINC000148036634    0.1400
34     H34    -0.3977    3.8825    0.0209 H        1 ZINC000148036634    0.1300
@<TRIPOS>BOND
1     1     2     2
2     2     3     am
3     2     7     1
4     3     4     1
5     3     19    1
6     4     5     1
7     4     20    1
8     4     21    1
9     5     6     1
10    5     22    1
11    5     23    1
12    6     24    1
13    7     18    ar
14    7     8     ar
15    8     9     ar
16    8     25    1
17    9     10    1
18    9     16    ar
19    10    11    2
20    10    12    am
21    12    13    1
22    12    26    1
23    13    14    1
24    13    27    1
25    13    28    1
26    14    15    1
27    14    29    1
28    14    30    1
29    15    31    1
30    16    17    ar
31    16    32    1
32    17    18    ar
33    17    33    1
34    18    34    1
@<TRIPOS>SUBSTRUCTURE
1   ZINC000148036634 1     RESIDUE    1   A     ZIN   1
