@<TRIPOS>MOLECULE
ZINC000253675861
92    93    1     0     0
SMALL
USER_CHARGES
@<TRIPOS>ATOM
1      C1     -0.4384    1.5707   -0.1591 C.3      1 ZINC000253675861    0.0300
2      O2     -0.2649    0.1701    0.0653 O.3      1 ZINC000253675861   -0.3600
3      C3      0.4523   -0.4955   -0.9645 C.3      1 ZINC000253675861    0.1000
4      H4      0.4464    0.2014   -1.9096 H        1 ZINC000253675861    0.0900
5      C5      1.9155   -0.6309   -0.5468 C.2      1 ZINC000253675861   -0.1200
6      C6      2.7615    0.4154   -0.5330 C.2      1 ZINC000253675861   -0.1300
7      C7      2.2478    1.6396   -0.9870 C.2      1 ZINC000253675861   -0.0300
8      C8      2.8485    2.8383   -0.6491 C.2      1 ZINC000253675861   -0.1700
9      C9      4.0242    2.9913    0.2984 C.3      1 ZINC000253675861   -0.1100
10     C10     2.2443    4.0397   -1.2569 C.2      1 ZINC000253675861    0.5500
11     O11     1.6981    3.8621   -2.3446 O.2      1 ZINC000253675861   -0.4900
12     N12     2.1679    5.2841   -0.7772 N.am     1 ZINC000253675861   -0.6900
13     C13     1.0172    6.0769   -0.9325 C.2      1 ZINC000253675861    0.1900
14     C14     1.0834    7.3659   -0.7220 C.2      1 ZINC000253675861   -0.2300
15     C15    -0.2008    8.1050   -0.9156 C.2      1 ZINC000253675861    0.3900
16     O16    -0.2654    9.3622   -0.7826 O.2      1 ZINC000253675861   -0.4400
17     C17    -1.4526    7.3911   -1.4316 C.2      1 ZINC000253675861    0.2200
18     N18    -2.6023    8.0839   -1.5617 N.pl3    1 ZINC000253675861   -0.6700
19     C19    -2.6446    9.5056   -1.2107 C.3      1 ZINC000253675861    0.1100
20     C20    -4.0553   10.0479   -1.4488 C.3      1 ZINC000253675861    0.0400
21     N21    -4.0977   11.4735   -1.0968 N.3      1 ZINC000253675861   -0.5400
22     C22    -5.3603   12.0857   -1.5315 C.3      1 ZINC000253675861    0.0200
23     C23    -3.8878   11.6664    0.3443 C.3      1 ZINC000253675861    0.0200
24     C24    -1.4072    6.0226   -1.5464 C.2      1 ZINC000253675861   -0.3000
25     C25    -2.6389    5.3049   -2.0031 C.3      1 ZINC000253675861   -0.0500
26     C26    -2.9158    4.1285   -1.0389 C.3      1 ZINC000253675861   -0.1000
27     H27    -2.0863    3.4836   -1.0551 H        1 ZINC000253675861    0.1000
28     C28    -3.0848    4.6364    0.4174 C.3      1 ZINC000253675861   -0.1400
29     C29    -4.2377    3.4214   -1.3989 C.3      1 ZINC000253675861   -0.1200
30     C30    -3.9168    2.2637   -2.3479 C.3      1 ZINC000253675861    0.0900
31     H31    -2.8248    2.2335   -2.6430 H        1 ZINC000253675861    0.0600
32     O32    -4.7085    2.4369   -3.5028 O.3      1 ZINC000253675861   -0.3800
33     C33    -4.0843    3.2184   -4.5235 C.3      1 ZINC000253675861    0.0300
34     C34    -4.1636    0.9374   -1.6010 C.3      1 ZINC000253675861    0.1300
35     H35    -5.3150    0.8229   -1.5657 H        1 ZINC000253675861    0.0300
36     O36    -3.7652    1.0481   -0.3101 O.3      1 ZINC000253675861   -0.5300
37     C37    -3.5928   -0.2763   -2.2714 C.3      1 ZINC000253675861   -0.1100
38     H38    -4.1881   -1.2123   -1.9458 H        1 ZINC000253675861    0.0800
39     C39    -3.7093   -0.2265   -3.8658 C.3      1 ZINC000253675861   -0.1300
40     C40    -2.1454   -0.5049   -1.8883 C.2      1 ZINC000253675861   -0.1100
41     C41    -1.6237   -1.5963   -1.6384 C.2      1 ZINC000253675861   -0.1300
42     C42    -2.4613   -2.9078   -1.5615 C.3      1 ZINC000253675861   -0.1400
43     C43    -0.2284   -1.7836   -1.2392 C.3      1 ZINC000253675861    0.1600
44     H44     0.2858   -2.2166   -2.1146 H        1 ZINC000253675861    0.0900
45     O45    -0.0580   -2.6222   -0.1520 O.3      1 ZINC000253675861   -0.3200
46     C46     0.1024   -3.9337   -0.4108 C.2      1 ZINC000253675861    0.6400
47     N47     0.2731   -4.8048    0.6033 N.am     1 ZINC000253675861   -0.8200
48     O48     0.0932   -4.3320   -1.5588 O.2      1 ZINC000253675861   -0.5700
49     C49    -0.2258    5.3597   -1.2920 C.2      1 ZINC000253675861    0.4200
50     O50    -0.2065    4.1272   -1.3286 O.2      1 ZINC000253675861   -0.4400
51     H51     0.5023    2.0881    0.0291 H        1 ZINC000253675861    0.0500
52     H52    -0.7449    1.7380   -1.1916 H        1 ZINC000253675861    0.0500
53     H53    -1.2051    1.9543    0.5142 H        1 ZINC000253675861    0.0900
54     H54     2.2232   -1.5780   -0.2327 H        1 ZINC000253675861    0.1100
55     H55     3.7460    0.2261   -0.1834 H        1 ZINC000253675861    0.1400
56     H56     1.4647    1.7090   -1.6406 H        1 ZINC000253675861    0.1300
57     H57     4.3209    2.0107    0.6706 H        1 ZINC000253675861    0.0700
58     H58     4.8607    3.4473   -0.2312 H        1 ZINC000253675861    0.0700
59     H59     3.7353    3.6258    1.1363 H        1 ZINC000253675861    0.0700
60     H60     3.0116    5.6475   -0.2868 H        1 ZINC000253675861    0.4200
61     H61     1.9896    7.8672   -0.4506 H        1 ZINC000253675861    0.1700
62     H62    -3.4013    7.6408   -1.8878 H        1 ZINC000253675861    0.4100
63     H63    -2.3806    9.6284   -0.1603 H        1 ZINC000253675861    0.0800
64     H64    -1.9351   10.0540   -1.8302 H        1 ZINC000253675861    0.1000
65     H65    -4.3193    9.9250   -2.4992 H        1 ZINC000253675861    0.0800
66     H66    -4.7648    9.4994   -0.8293 H        1 ZINC000253675861    0.0400
67     H67    -6.1952   11.5808   -1.0456 H        1 ZINC000253675861    0.0300
68     H68    -5.3653   13.1410   -1.2585 H        1 ZINC000253675861    0.0700
69     H69    -5.4573   11.9897   -2.6129 H        1 ZINC000253675861    0.0700
70     H70    -2.9143   11.2655    0.6265 H        1 ZINC000253675861    0.0700
71     H71    -3.9240   12.7305    0.5775 H        1 ZINC000253675861    0.0700
72     H72    -4.6693   11.1462    0.8981 H        1 ZINC000253675861    0.0300
73     H73    -3.5347    5.9110   -2.0044 H        1 ZINC000253675861    0.0600
74     H74    -2.4409    4.8711   -3.0315 H        1 ZINC000253675861    0.0700
75     H75    -3.9218    5.3331    0.4644 H        1 ZINC000253675861    0.0400
76     H76    -3.2787    3.7906    1.0770 H        1 ZINC000253675861    0.0600
77     H77    -2.1727    5.1424    0.7339 H        1 ZINC000253675861    0.0400
78     H78    -4.7227    3.1108   -0.5429 H        1 ZINC000253675861    0.0900
79     H79    -4.7937    4.1152   -1.9967 H        1 ZINC000253675861    0.0600
80     H80    -3.8607    4.2119   -4.1348 H        1 ZINC000253675861    0.0400
81     H81    -3.1594    2.7344   -4.8372 H        1 ZINC000253675861    0.0400
82     H82    -4.7567    3.3050   -5.3770 H        1 ZINC000253675861    0.0900
83     H83    -3.8953    0.2446    0.2120 H        1 ZINC000253675861    0.3900
84     H84    -3.1701    0.6427   -4.2425 H        1 ZINC000253675861    0.0500
85     H85    -3.2785   -1.1334   -4.2901 H        1 ZINC000253675861    0.0500
86     H86    -4.7588   -0.1548   -4.1513 H        1 ZINC000253675861    0.0600
87     H87    -1.5279    0.4278   -1.9568 H        1 ZINC000253675861    0.1100
88     H88    -3.3669   -2.7960   -2.1577 H        1 ZINC000253675861    0.0600
89     H89    -1.8716   -3.7388   -1.9487 H        1 ZINC000253675861    0.0800
90     H90    -2.7314   -3.1062   -0.5243 H        1 ZINC000253675861    0.0600
91     H91     0.2805   -4.4869    1.5197 H        1 ZINC000253675861    0.4100
92     H92     0.3887   -5.7497    0.4169 H        1 ZINC000253675861    0.4300
@<TRIPOS>BOND
1     1     2     1
2     1     51    1
3     1     52    1
4     1     53    1
5     2     3     1
6     3     4     1
7     3     43    1
8     3     5     1
9     5     6     2
10    5     54    1
11    6     7     1
12    6     55    1
13    7     8     2
14    7     56    1
15    8     9     1
16    8     10    1
17    9     57    1
18    9     58    1
19    9     59    1
20    10    11    2
21    10    12    am
22    12    13    1
23    12    60    1
24    13    49    1
25    13    14    2
26    14    15    1
27    14    61    1
28    15    16    2
29    15    17    1
30    17    18    1
31    17    24    2
32    18    19    1
33    18    62    1
34    19    20    1
35    19    63    1
36    19    64    1
37    20    21    1
38    20    65    1
39    20    66    1
40    21    22    1
41    21    23    1
42    22    67    1
43    22    68    1
44    22    69    1
45    23    70    1
46    23    71    1
47    23    72    1
48    24    25    1
49    24    49    1
50    25    26    1
51    25    73    1
52    25    74    1
53    26    27    1
54    26    28    1
55    26    29    1
56    28    75    1
57    28    76    1
58    28    77    1
59    29    30    1
60    29    78    1
61    29    79    1
62    30    31    1
63    30    32    1
64    30    34    1
65    32    33    1
66    33    80    1
67    33    81    1
68    33    82    1
69    34    35    1
70    34    36    1
71    34    37    1
72    36    83    1
73    37    38    1
74    37    39    1
75    37    40    1
76    39    84    1
77    39    85    1
78    39    86    1
79    40    41    2
80    40    87    1
81    41    42    1
82    41    43    1
83    42    88    1
84    42    89    1
85    42    90    1
86    43    44    1
87    43    45    1
88    45    46    1
89    46    47    am
90    46    48    2
91    47    91    1
92    47    92    1
93    49    50    2
@<TRIPOS>SUBSTRUCTURE
1   ZINC000253675861 1     RESIDUE    1   A     ZIN   1
