@<TRIPOS>MOLECULE
ZINC000026982268
29    28    1     0     0
SMALL
USER_CHARGES
@<TRIPOS>ATOM
1      C1     -0.0187    1.5258    0.0104 C.3      1 ZINC000026982268   -0.1500
2      C2      0.0021   -0.0041    0.0020 C.3      1 ZINC000026982268   -0.1200
3      C3     -1.4333   -0.5336    0.0129 C.3      1 ZINC000026982268   -0.1000
4      C4     -1.4126   -2.0635    0.0045 C.3      1 ZINC000026982268   -0.7400
5      P5     -3.1228   -2.6945    0.0174 P.3      1 ZINC000026982268    2.3200
6      O6     -3.9065   -2.0825   -1.1651 O.co2    1 ZINC000026982268   -1.0700
7      O7     -3.8064   -2.3023    1.3463 O.co2    1 ZINC000026982268   -1.0700
8      C8     -3.1018   -4.5103   -0.1424 C.3      1 ZINC000026982268   -0.7500
9      C9     -4.5367   -5.0289   -0.2568 C.3      1 ZINC000026982268   -0.1300
10     C10    -4.5190   -6.5529   -0.3909 C.3      1 ZINC000026982268   -0.0100
11     N11    -5.8967   -7.0508   -0.5009 N.4      1 ZINC000026982268   -0.6400
12     H12    -6.3365   -6.6467   -1.3141 H        1 ZINC000026982268    0.4400
13     H13    -5.8851   -8.0558   -0.5893 H        1 ZINC000026982268    0.4300
14     H14    -6.4149   -6.7918    0.3253 H        1 ZINC000026982268    0.4400
15     H15     1.0039    1.9031    0.0027 H        1 ZINC000026982268    0.0500
16     H16    -0.5459    1.8868   -0.8726 H        1 ZINC000026982268    0.0600
17     H17    -0.5289    1.8773    0.9072 H        1 ZINC000026982268    0.0600
18     H18     0.5123   -0.3556   -0.8948 H        1 ZINC000026982268    0.0500
19     H19     0.5293   -0.3651    0.8851 H        1 ZINC000026982268    0.0500
20     H20    -1.9435   -0.1821    0.9097 H        1 ZINC000026982268    0.0700
21     H21    -1.9605   -0.1726   -0.8702 H        1 ZINC000026982268    0.0700
22     H22    -0.9024   -2.4150   -0.8923 H        1 ZINC000026982268    0.0600
23     H23    -0.8854   -2.4246    0.8875 H        1 ZINC000026982268    0.0700
24     H24    -2.5421   -4.7901   -1.0348 H        1 ZINC000026982268    0.0800
25     H25    -2.6267   -4.9469    0.7362 H        1 ZINC000026982268    0.0800
26     H26    -5.0964   -4.7491    0.6356 H        1 ZINC000026982268    0.1000
27     H27    -5.0118   -4.5923   -1.1354 H        1 ZINC000026982268    0.1000
28     H28    -3.9593   -6.8327   -1.2834 H        1 ZINC000026982268    0.1300
29     H29    -4.0440   -6.9895    0.4876 H        1 ZINC000026982268    0.1300
@<TRIPOS>BOND
1     1     2     1
2     1     15    1
3     1     16    1
4     1     17    1
5     2     3     1
6     2     18    1
7     2     19    1
8     3     4     1
9     3     20    1
10    3     21    1
11    4     5     1
12    4     22    1
13    4     23    1
14    5     6     ar
15    5     7     ar
16    5     8     1
17    8     9     1
18    8     24    1
19    8     25    1
20    9     10    1
21    9     26    1
22    9     27    1
23    10    11    1
24    10    28    1
25    10    29    1
26    11    12    1
27    11    13    1
28    11    14    1
@<TRIPOS>SUBSTRUCTURE
1   ZINC000026982268 1     RESIDUE    1   A     ZIN   1
