@<TRIPOS>MOLECULE
ZINC000072266295
54    55    1     0     0
SMALL
USER_CHARGES
@<TRIPOS>ATOM
1      C1     -0.0184    1.5028    0.0103 C.3      1 ZINC000072266295   -0.1200
2      C2      0.0021   -0.0041    0.0020 C.ar     1 ZINC000072266295   -0.0400
3      C3      0.0058   -0.6875   -1.1983 C.ar     1 ZINC000072266295   -0.2100
4      C4      0.0251   -2.0749   -1.2052 C.ar     1 ZINC000072266295    0.1600
5      O5      0.0292   -2.7496   -2.3849 O.3      1 ZINC000072266295   -0.2700
6      C6      0.0130   -1.9667   -3.5802 C.3      1 ZINC000072266295   -0.0100
7      C7      0.0203   -2.8798   -4.7790 C.2      1 ZINC000072266295    0.5000
8      O8      0.0378   -4.0890   -4.6241 O.co2    1 ZINC000072266295   -0.6700
9      O9      0.0088   -2.4094   -5.9037 O.co2    1 ZINC000072266295   -0.6800
10     C10     0.0406   -2.7720   -0.0061 C.ar     1 ZINC000072266295   -0.1200
11     C11     0.0620   -4.2788   -0.0100 C.3      1 ZINC000072266295   -0.1100
12     C12     0.0368   -2.0837    1.1919 C.ar     1 ZINC000072266295   -0.0700
13     C13     0.0229   -0.7013    1.1961 C.ar     1 ZINC000072266295   -0.1700
14     C14     0.0193    0.0470    2.5042 C.3      1 ZINC000072266295   -0.0900
15     C15    -1.4201    0.3948    2.8889 C.3      1 ZINC000072266295   -0.0200
16     N16    -1.4235    1.1242    4.1640 N.4      1 ZINC000072266295   -0.5000
17     H17    -1.0135    0.5469    4.8828 H        1 ZINC000072266295    0.4300
18     H18    -0.8867    1.9731    4.0674 H        1 ZINC000072266295    0.4300
19     C19    -2.8056    1.4582    4.5333 C.3      1 ZINC000072266295   -0.0100
20     H20    -3.2772    2.0064    3.7178 H        1 ZINC000072266295    0.1500
21     C21    -3.5872    0.1706    4.8014 C.3      1 ZINC000072266295   -0.2000
22     C22    -2.8013    2.3243    5.7946 C.3      1 ZINC000072266295    0.1400
23     H23    -2.1712    3.1989    5.6327 H        1 ZINC000072266295    0.1300
24     O24    -2.2897    1.5652    6.8919 O.3      1 ZINC000072266295   -0.5500
25     C25    -4.2077    2.7687    6.1036 C.ar     1 ZINC000072266295   -0.1500
26     C26    -5.0456    1.9481    6.8360 C.ar     1 ZINC000072266295   -0.0900
27     C27    -6.3353    2.3532    7.1206 C.ar     1 ZINC000072266295   -0.1400
28     C28    -6.7894    3.5846    6.6712 C.ar     1 ZINC000072266295    0.1300
29     O29    -8.0576    3.9856    6.9502 O.3      1 ZINC000072266295   -0.5000
30     C30    -5.9467    4.4063    5.9368 C.ar     1 ZINC000072266295   -0.1400
31     C31    -4.6563    3.9987    5.6590 C.ar     1 ZINC000072266295   -0.0800
32     H32     1.0042    1.8801    0.0026 H        1 ZINC000072266295    0.0800
33     H33    -0.5455    1.8639   -0.8728 H        1 ZINC000072266295    0.0700
34     H34    -0.5286    1.8543    0.9071 H        1 ZINC000072266295    0.0500
35     H35    -0.0067   -0.1425   -2.1306 H        1 ZINC000072266295    0.1300
36     H36    -0.8858   -1.3502   -3.5985 H        1 ZINC000072266295    0.0600
37     H37     0.8940   -1.3254   -3.6065 H        1 ZINC000072266295    0.0600
38     H38     1.0947   -4.6275   -0.0157 H        1 ZINC000072266295    0.0700
39     H39    -0.4424   -4.6517    0.8814 H        1 ZINC000072266295    0.0600
40     H40    -0.4507   -4.6472   -0.8985 H        1 ZINC000072266295    0.0800
41     H41     0.0485   -2.6260    2.1258 H        1 ZINC000072266295    0.1200
42     H42     0.4623   -0.5767    3.2807 H        1 ZINC000072266295    0.0900
43     H43     0.5993    0.9640    2.3998 H        1 ZINC000072266295    0.0900
44     H44    -1.8631    1.0185    2.1124 H        1 ZINC000072266295    0.1300
45     H45    -2.0000   -0.5222    2.9933 H        1 ZINC000072266295    0.1400
46     H46    -4.6127    0.4184    5.0755 H        1 ZINC000072266295    0.1100
47     H47    -3.5902   -0.4464    3.9029 H        1 ZINC000072266295    0.0900
48     H48    -3.1156   -0.3776    5.6170 H        1 ZINC000072266295    0.0800
49     H49    -2.8023    0.7704    7.0933 H        1 ZINC000072266295    0.3900
50     H50    -4.6916    0.9896    7.1857 H        1 ZINC000072266295    0.1300
51     H51    -6.9896    1.7116    7.6921 H        1 ZINC000072266295    0.1400
52     H52    -8.1411    4.4787    7.7778 H        1 ZINC000072266295    0.4000
53     H53    -6.2980    5.3652    5.5856 H        1 ZINC000072266295    0.1400
54     H54    -3.9997    4.6381    5.0877 H        1 ZINC000072266295    0.1300
@<TRIPOS>BOND
1     1     2     1
2     1     32    1
3     1     33    1
4     1     34    1
5     2     13    ar
6     2     3     ar
7     3     4     ar
8     3     35    1
9     4     5     1
10    4     10    ar
11    5     6     1
12    6     7     1
13    6     36    1
14    6     37    1
15    7     8     ar
16    7     9     ar
17    10    11    1
18    10    12    ar
19    11    38    1
20    11    39    1
21    11    40    1
22    12    13    ar
23    12    41    1
24    13    14    1
25    14    15    1
26    14    42    1
27    14    43    1
28    15    16    1
29    15    44    1
30    15    45    1
31    16    17    1
32    16    18    1
33    16    19    1
34    19    20    1
35    19    21    1
36    19    22    1
37    21    46    1
38    21    47    1
39    21    48    1
40    22    23    1
41    22    24    1
42    22    25    1
43    24    49    1
44    25    31    ar
45    25    26    ar
46    26    27    ar
47    26    50    1
48    27    28    ar
49    27    51    1
50    28    29    1
51    28    30    ar
52    29    52    1
53    30    31    ar
54    30    53    1
55    31    54    1
@<TRIPOS>SUBSTRUCTURE
1   ZINC000072266295 1     RESIDUE    1   A     ZIN   1
