@<TRIPOS>MOLECULE
ZINC000100071817
56    61    1     0     0
SMALL
USER_CHARGES
@<TRIPOS>ATOM
1      C1     -0.2616    1.3352    1.3126 C.3      1 ZINC000100071817   -0.1700
2      C2     -0.1747   -0.1903    1.3894 C.3      1 ZINC000100071817    0.1100
3      O3     -1.4447   -0.8083    1.6068 O.3      1 ZINC000100071817   -0.5500
4      C4      0.6303   -0.8201    0.2404 C.3      1 ZINC000100071817   -0.1600
5      C5      1.8764   -0.6513    1.1256 C.3      1 ZINC000100071817   -0.0600
6      H6      2.3752    0.3095    0.9988 H        1 ZINC000100071817    0.1500
7      C7      2.8278   -1.8180    1.0576 C.cat    1 ZINC000100071817    0.2800
8      N8      2.4751   -3.0699    0.9166 N.pl3    1 ZINC000100071817   -0.4500
9      H9      1.5617   -3.3871    0.8399 H        1 ZINC000100071817    0.4700
10     C10     3.5682   -3.8494    0.8933 C.2      1 ZINC000100071817    0.1500
11     C11     3.5954   -5.3212    0.7489 C.ar     1 ZINC000100071817   -0.0600
12     C12     4.3371   -6.0968    1.6567 C.ar     1 ZINC000100071817   -0.1200
13     C13     4.3769   -7.4498    1.5433 C.ar     1 ZINC000100071817   -0.0600
14     C14     3.6716   -8.0893    0.5097 C.ar     1 ZINC000100071817   -0.0900
15     C15     3.6979   -9.4906    0.3723 C.ar     1 ZINC000100071817   -0.0500
16     C16     2.9934  -10.0546   -0.6503 C.ar     1 ZINC000100071817   -0.1500
17     C17     2.2672   -9.2393   -1.5319 C.ar     1 ZINC000100071817    0.2300
18     C18     1.5060   -9.8666   -2.6390 C.ar     1 ZINC000100071817   -0.0800
19     C19     1.5106  -11.2519   -2.7943 C.ar     1 ZINC000100071817   -0.0900
20     C20     0.8004  -11.8302   -3.8265 C.ar     1 ZINC000100071817   -0.1200
21     C21     0.0849  -11.0380   -4.7063 C.ar     1 ZINC000100071817   -0.0900
22     C22     0.0766   -9.6628   -4.5571 C.ar     1 ZINC000100071817   -0.1300
23     C23     0.7785   -9.0737   -3.5252 C.ar     1 ZINC000100071817   -0.0700
24     N24     2.2463   -7.9270   -1.3973 N.ar     1 ZINC000100071817   -0.4700
25     C25     2.9184   -7.3198   -0.4139 C.ar     1 ZINC000100071817    0.1400
26     C26     2.8853   -5.9236   -0.2764 C.ar     1 ZINC000100071817   -0.0400
27     C27     4.6692   -3.0125    1.0301 C.2      1 ZINC000100071817   -0.0200
28     C28     6.0650   -3.2114    1.0789 C.2      1 ZINC000100071817    0.5000
29     N29     6.5925   -4.4878    0.9783 N.pl3    1 ZINC000100071817   -0.8000
30     N30     6.8639   -2.1700    1.2210 N.2      1 ZINC000100071817   -0.5300
31     C31     6.3748   -0.9275    1.3197 C.2      1 ZINC000100071817    0.1700
32     C32     5.0517   -0.6848    1.2792 C.2      1 ZINC000100071817   -0.0900
33     N33     4.1687   -1.7290    1.1269 N.pl3    1 ZINC000100071817   -0.2800
34     C34     0.9271   -0.6977    2.3346 C.3      1 ZINC000100071817   -0.1200
35     H35     0.6859    1.7355    0.9520 H        1 ZINC000100071817    0.0700
36     H36    -1.0603    1.6196    0.6275 H        1 ZINC000100071817    0.0700
37     H37    -0.4725    1.7375    2.3034 H        1 ZINC000100071817    0.0800
38     H38    -2.1361   -0.5103    1.0000 H        1 ZINC000100071817    0.3900
39     H39     0.3713   -1.8607    0.0449 H        1 ZINC000100071817    0.0900
40     H40     0.6509   -0.2111   -0.6634 H        1 ZINC000100071817    0.1000
41     H41     4.8817   -5.6115    2.4532 H        1 ZINC000100071817    0.1400
42     H42     4.9508   -8.0340    2.2473 H        1 ZINC000100071817    0.1500
43     H43     4.2624  -10.1035    1.0594 H        1 ZINC000100071817    0.1500
44     H44     2.9947  -11.1266   -0.7816 H        1 ZINC000100071817    0.1500
45     H45     2.0692  -11.8714   -2.1082 H        1 ZINC000100071817    0.1300
46     H46     0.8036  -12.9034   -3.9480 H        1 ZINC000100071817    0.1300
47     H47    -0.4692  -11.4949   -5.5129 H        1 ZINC000100071817    0.1300
48     H48    -0.4835   -9.0491   -5.2472 H        1 ZINC000100071817    0.1300
49     H49     0.7711   -8.0000   -3.4095 H        1 ZINC000100071817    0.1300
50     H50     2.3134   -5.3226   -0.9680 H        1 ZINC000100071817    0.1400
51     H51     6.0364   -5.2193    0.6678 H        1 ZINC000100071817    0.4200
52     H52     7.5182   -4.6503    1.2183 H        1 ZINC000100071817    0.4300
53     H53     7.0589   -0.0997    1.4351 H        1 ZINC000100071817    0.2000
54     H54     4.6842    0.3273    1.3619 H        1 ZINC000100071817    0.2000
55     H55     1.1874    0.0101    3.1215 H        1 ZINC000100071817    0.1000
56     H56     0.7493   -1.7049    2.7117 H        1 ZINC000100071817    0.1000
@<TRIPOS>BOND
1     1     2     1
2     1     35    1
3     1     36    1
4     1     37    1
5     2     34    1
6     2     3     1
7     2     4     1
8     3     38    1
9     4     5     1
10    4     39    1
11    4     40    1
12    5     6     1
13    5     7     1
14    5     34    1
15    7     33    ar
16    7     8     ar
17    8     9     1
18    8     10    1
19    10    11    1
20    10    27    2
21    11    26    ar
22    11    12    ar
23    12    13    ar
24    12    41    1
25    13    14    ar
26    13    42    1
27    14    25    ar
28    14    15    ar
29    15    16    ar
30    15    43    1
31    16    17    ar
32    16    44    1
33    17    18    1
34    17    24    ar
35    18    23    ar
36    18    19    ar
37    19    20    ar
38    19    45    1
39    20    21    ar
40    20    46    1
41    21    22    ar
42    21    47    1
43    22    23    ar
44    22    48    1
45    23    49    1
46    24    25    ar
47    25    26    ar
48    26    50    1
49    27    33    1
50    27    28    1
51    28    29    1
52    28    30    2
53    29    51    1
54    29    52    1
55    30    31    1
56    31    32    2
57    31    53    1
58    32    33    1
59    32    54    1
60    34    55    1
61    34    56    1
@<TRIPOS>SUBSTRUCTURE
1   ZINC000100071817 1     RESIDUE    1   A     ZIN   1
