@<TRIPOS>MOLECULE
ZINC000001483505
20    21    1     0     0
SMALL
USER_CHARGES
@<TRIPOS>ATOM
1      O1      0.0021   -0.0041    0.0020 O.2      1 ZINC000001483505   -0.4400
2      C2     -0.0144    1.2105    0.0087 C.2      1 ZINC000001483505    0.5200
3      N3     -1.1873    1.8755    0.0291 N.am     1 ZINC000001483505   -0.6300
4      C4     -1.2004    3.2677    0.0362 C.ar     1 ZINC000001483505    0.1500
5      C5     -2.4146    3.9445    0.0568 C.ar     1 ZINC000001483505   -0.0600
6      C6     -2.4364    5.3252    0.0639 C.ar     1 ZINC000001483505   -0.0100
7      Cl7    -3.9547    6.1665    0.0902 Cl       1 ZINC000001483505    0.0000
8      C8     -1.2493    6.0418    0.0505 C.ar     1 ZINC000001483505    0.0100
9      Cl9    -1.2860    7.7774    0.0596 Cl       1 ZINC000001483505    0.0100
10     C10    -0.0379    5.3791    0.0305 C.ar     1 ZINC000001483505   -0.0200
11     N11     1.2262    6.1490    0.0173 N.pl3    1 ZINC000001483505    0.0100
12     O12     1.7608    6.4602    1.0665 O.2      1 ZINC000001483505   -0.1100
13     O13     1.7320    6.4713   -1.0429 O.2      1 ZINC000001483505   -0.1100
14     C14    -0.0050    3.9893    0.0232 C.ar     1 ZINC000001483505    0.1900
15     N15     1.2205    3.3289    0.0030 N.am     1 ZINC000001483505   -0.6400
16     C16     1.2624    1.9811    0.0006 C.2      1 ZINC000001483505    0.5200
17     O17     2.3292    1.4005   -0.0169 O.2      1 ZINC000001483505   -0.4300
18     H18    -2.0230    1.3832    0.0385 H        1 ZINC000001483505    0.4300
19     H19    -3.3414    3.3901    0.0669 H        1 ZINC000001483505    0.1800
20     H20     2.0455    3.8390   -0.0058 H        1 ZINC000001483505    0.4300
@<TRIPOS>BOND
1     1     2     2
2     2     16    1
3     2     3     am
4     3     4     1
5     3     18    1
6     4     14    ar
7     4     5     ar
8     5     6     ar
9     5     19    1
10    6     7     1
11    6     8     ar
12    8     9     1
13    8     10    ar
14    10    11    1
15    10    14    ar
16    11    12    2
17    11    13    2
18    14    15    1
19    15    16    am
20    15    20    1
21    16    17    2
@<TRIPOS>SUBSTRUCTURE
1   ZINC000001483505 1     RESIDUE    1   A     ZIN   1
