@<TRIPOS>MOLECULE
ZINC000005599165
  49   50    0    0    0
SMALL
USER_CHARGES
NO_NAME
@<TRIPOS>ATOM
    1 C1       -0.0187     1.5258     0.0104 C.3    1 <0>      -0.1600
    2 C2        0.0021    -0.0041     0.0020 C.3    1 <0>      -0.1400
    3 C3       -1.4333    -0.5336     0.0129 C.3    1 <0>       0.2200
    4 N4       -2.1419    -0.0483    -1.1740 N.am   1 <0>      -0.7000
    5 C5       -1.6887    -0.3611    -2.4042 C.2    1 <0>       0.5100
    6 O6       -0.6944    -1.0442    -2.5286 O.2    1 <0>      -0.5000
    7 C7       -2.4176     0.1382    -3.6251 C.3    1 <0>       0.0000
    8 H8       -2.4471     1.2277    -3.6194 H      1 <0>       0.1700
    9 C9       -3.8539    -0.4259    -3.6462 C.3    1 <0>      -0.1400
   10 C10      -4.0902    -0.7237    -5.1503 C.3    1 <0>      -0.1400
   11 C11      -2.6845    -1.1931    -5.6010 C.3    1 <0>      -0.0100
   12 N12      -1.7393    -0.3389    -4.8442 N.4    1 <0>      -0.5000
   13 H13      -1.4626     0.4475    -5.4126 H      1 <0>       0.4400
   14 H14      -0.9251    -0.8773    -4.5886 H      1 <0>       0.4400
   15 C15      -2.1387    -0.0476     1.2528 C.2    1 <0>       0.5200
   16 O16      -2.1799    -0.7491     2.2413 O.2    1 <0>      -0.4900
   17 N17      -2.7237     1.1665     1.2631 N.am   1 <0>      -0.7200
   18 C18      -3.4095     1.6389     2.4684 C.3    1 <0>       0.0900
   19 C19      -3.9728     3.0143     2.2193 C.2    1 <0>       0.5200
   20 N20      -4.6499     3.6519     3.1947 N.am   1 <0>      -0.8400
   21 O21      -3.8169     3.5474     1.1412 O.2    1 <0>      -0.5500
   22 C22      -1.4129    -2.0405     0.0046 C.ar   1 <0>      -0.0800
   23 C23      -0.3640    -2.7208     0.5945 C.ar   1 <0>      -0.0800
   24 C24      -0.3452    -4.1029     0.5869 C.ar   1 <0>      -0.1100
   25 C25      -1.3756    -4.8049    -0.0102 C.ar   1 <0>      -0.1100
   26 C26      -2.4249    -4.1246    -0.5993 C.ar   1 <0>      -0.1200
   27 C27      -2.4458    -2.7425    -0.5879 C.ar   1 <0>      -0.1100
   28 H28       1.0039     1.9031     0.0027 H      1 <0>       0.0700
   29 H29      -0.5459     1.8868    -0.8726 H      1 <0>       0.0500
   30 H30      -0.5289     1.8773     0.9072 H      1 <0>       0.0600
   31 H31       0.5123    -0.3556    -0.8948 H      1 <0>       0.1000
   32 H32       0.5293    -0.3651     0.8851 H      1 <0>       0.0900
   33 H33      -2.9371     0.4980    -1.0745 H      1 <0>       0.4100
   34 H34      -3.9173    -1.3410    -3.0575 H      1 <0>       0.1000
   35 H35      -4.5649     0.3167    -3.2840 H      1 <0>       0.1300
   36 H36      -4.8269    -1.5165    -5.2803 H      1 <0>       0.1200
   37 H37      -4.3907     0.1778    -5.6844 H      1 <0>       0.1100
   38 H38      -2.5356    -2.2428    -5.3477 H      1 <0>       0.1400
   39 H39      -2.5584    -1.0390    -6.6727 H      1 <0>       0.1400
   40 H40      -2.6908     1.7274     0.4724 H      1 <0>       0.4100
   41 H41      -4.2199     0.9539     2.7174 H      1 <0>       0.1100
   42 H42      -2.7017     1.6806     3.2963 H      1 <0>       0.1100
   43 H43      -4.7746     3.2256     4.0570 H      1 <0>       0.4100
   44 H44      -5.0125     4.5372     3.0344 H      1 <0>       0.4100
   45 H45       0.4410    -2.1723     1.0610 H      1 <0>       0.1300
   46 H46       0.4746    -4.6344     1.0471 H      1 <0>       0.1300
   47 H47      -1.3606    -5.8848    -0.0168 H      1 <0>       0.1300
   48 H48      -3.2298    -4.6731    -1.0661 H      1 <0>       0.1200
   49 H49      -3.2657    -2.2110    -1.0482 H      1 <0>       0.1100
@<TRIPOS>BOND
   1    1    2 1
   2    1   28 1
   3    1   29 1
   4    1   30 1
   5    2    3 1
   6    2   31 1
   7    2   32 1
   8    3    4 1
   9    3   15 1
  10    3   22 1
  11    4    5 am
  12    4   33 1
  13    5    6 2
  14    5    7 1
  15    7    8 1
  16    7   12 1
  17    7    9 1
  18    9   10 1
  19    9   34 1
  20    9   35 1
  21   10   11 1
  22   10   36 1
  23   10   37 1
  24   11   12 1
  25   11   38 1
  26   11   39 1
  27   12   13 1
  28   12   14 1
  29   15   16 2
  30   15   17 am
  31   17   18 1
  32   17   40 1
  33   18   19 1
  34   18   41 1
  35   18   42 1
  36   19   20 am
  37   19   21 2
  38   20   43 1
  39   20   44 1
  40   22   27 ar
  41   22   23 ar
  42   23   24 ar
  43   23   45 1
  44   24   25 ar
  45   24   46 1
  46   25   26 ar
  47   25   47 1
  48   26   27 ar
  49   26   48 1
  50   27   49 1
