@<TRIPOS>MOLECULE
ZINC000003812136
  51   53    0    0    0
SMALL
USER_CHARGES
NO_NAME
@<TRIPOS>ATOM
    1 C1       -0.0070     1.6706     0.0571 C.3    1 <0>      -0.1400
    2 C2        0.0155     0.1449    -0.0551 C.3    1 <0>      -0.0800
    3 C3        0.7285    -0.2552    -1.3210 C.ar   1 <0>      -0.1100
    4 C4        0.0063    -0.5055    -2.4715 C.ar   1 <0>      -0.0800
    5 C5        0.6599    -0.8732    -3.6334 C.ar   1 <0>      -0.1500
    6 C6        2.0373    -0.9908    -3.6468 C.ar   1 <0>      -0.0900
    7 C7        2.7643    -0.7411    -2.4987 C.ar   1 <0>      -0.2100
    8 C8        2.1114    -0.3670    -1.3334 C.ar   1 <0>       0.1300
    9 O9        2.8243    -0.1208    -0.2028 O.3    1 <0>      -0.3000
   10 C10       4.2434    -0.2666    -0.2860 C.3    1 <0>       0.0300
   11 C11       4.8692     0.0496     1.0739 C.3    1 <0>       0.1200
   12 H12       4.5523     1.0409     1.3979 H      1 <0>       0.1100
   13 O13       4.4447    -0.9228     2.0312 O.3    1 <0>      -0.5400
   14 C14       6.3941     0.0154     0.9539 C.3    1 <0>       0.0300
   15 N15       6.9949     0.3190     2.2596 N.3    1 <0>      -0.6700
   16 C16       8.4560     0.1746     2.2131 C.3    1 <0>       0.1300
   17 H17       8.7154    -0.6389     1.5356 H      1 <0>       0.0900
   18 C18       9.0744     1.4736     1.7002 C.3    1 <0>      -0.1500
   19 C19      10.5961     1.3828     1.8632 C.3    1 <0>      -0.1200
   20 C20      10.9253     1.4367     3.3536 C.3    1 <0>      -0.0800
   21 C21      10.1063     0.4263     4.1134 C.ar   1 <0>      -0.0700
   22 C22      10.5336     0.0735     5.3868 C.ar   1 <0>      -0.1300
   23 C23       9.8237    -0.8423     6.1359 C.ar   1 <0>      -0.1200
   24 C24       8.6773    -1.4131     5.6158 C.ar   1 <0>      -0.1300
   25 C25       8.2525    -1.0657     4.3499 C.ar   1 <0>      -0.0800
   26 C26       8.9676    -0.1461     3.5931 C.ar   1 <0>      -0.0800
   27 H27       1.0152     2.0483     0.0809 H      1 <0>       0.0600
   28 H28      -0.5296     2.0905    -0.8025 H      1 <0>       0.0500
   29 H29      -0.5227     1.9601     0.9727 H      1 <0>       0.0600
   30 H30       0.5380    -0.2749     0.8044 H      1 <0>       0.0800
   31 H31      -1.0067    -0.2328    -0.0789 H      1 <0>       0.0700
   32 H32      -1.0698    -0.4143    -2.4636 H      1 <0>       0.1300
   33 H33       0.0934    -1.0691    -4.5317 H      1 <0>       0.1200
   34 H34       2.5454    -1.2785    -4.5553 H      1 <0>       0.1200
   35 H35       3.8403    -0.8335    -2.5095 H      1 <0>       0.1200
   36 H36       4.4875    -1.2905    -0.5691 H      1 <0>       0.0700
   37 H37       4.6359     0.4209    -1.0353 H      1 <0>       0.0700
   38 H38       4.6930    -1.8300     1.8068 H      1 <0>       0.3700
   39 H39       6.7109    -0.9759     0.6298 H      1 <0>       0.0800
   40 H40       6.7178     0.7571     0.2237 H      1 <0>       0.0400
   41 H41       6.7325     1.2416     2.5727 H      1 <0>       0.3500
   42 H42       8.8253     1.6080     0.6476 H      1 <0>       0.0700
   43 H43       8.6928     2.3151     2.2785 H      1 <0>       0.0700
   44 H44      10.9551     0.4439     1.4417 H      1 <0>       0.0700
   45 H45      11.0707     2.2204     1.3520 H      1 <0>       0.0700
   46 H46      11.9842     1.2213     3.4959 H      1 <0>       0.0700
   47 H47      10.7078     2.4348     3.7339 H      1 <0>       0.0800
   48 H48      11.4290     0.5194     5.7939 H      1 <0>       0.1200
   49 H49      10.1628    -1.1124     7.1251 H      1 <0>       0.1200
   50 H50       8.1163    -2.1289     6.1982 H      1 <0>       0.1200
   51 H51       7.3567    -1.5123     3.9442 H      1 <0>       0.1300
@<TRIPOS>BOND
   1    1    2 1
   2    1   27 1
   3    1   28 1
   4    1   29 1
   5    2    3 1
   6    2   30 1
   7    2   31 1
   8    3    8 ar
   9    3    4 ar
  10    4    5 ar
  11    4   32 1
  12    5    6 ar
  13    5   33 1
  14    6    7 ar
  15    6   34 1
  16    7    8 ar
  17    7   35 1
  18    8    9 1
  19    9   10 1
  20   10   11 1
  21   10   36 1
  22   10   37 1
  23   11   12 1
  24   11   13 1
  25   11   14 1
  26   13   38 1
  27   14   15 1
  28   14   39 1
  29   14   40 1
  30   15   16 1
  31   15   41 1
  32   16   17 1
  33   16   26 1
  34   16   18 1
  35   18   19 1
  36   18   42 1
  37   18   43 1
  38   19   20 1
  39   19   44 1
  40   19   45 1
  41   20   21 1
  42   20   46 1
  43   20   47 1
  44   21   26 ar
  45   21   22 ar
  46   22   23 ar
  47   22   48 1
  48   23   24 ar
  49   23   49 1
  50   24   25 ar
  51   24   50 1
  52   25   26 ar
  53   25   51 1
