@<TRIPOS>MOLECULE
ZINC000027105552
66    68    1     0     0
SMALL
USER_CHARGES
@<TRIPOS>ATOM
1      C1     -0.7551    1.3223    0.0904 C.3      1 ZINC000027105552    0.0600
2      N2     -0.3448   -0.0834    0.0476 N.am     1 ZINC000027105552   -0.6000
3      C3      0.1240   -0.6827    1.1600 C.2      1 ZINC000027105552    0.5700
4      O4      0.5448   -1.8218    1.1054 O.2      1 ZINC000027105552   -0.5100
5      C5      0.1265    0.0453    2.4468 C.ar     1 ZINC000027105552   -0.1300
6      C6     -0.2609   -0.6038    3.6201 C.ar     1 ZINC000027105552    0.0100
7      C7     -0.2559    0.0812    4.8176 C.ar     1 ZINC000027105552   -0.1900
8      C8     -0.6738   -0.6180    6.0855 C.3      1 ZINC000027105552    0.5100
9      F9      0.4455   -1.2054    6.6848 F        1 ZINC000027105552   -0.1700
10     F10    -1.2403    0.3107    6.9652 F        1 ZINC000027105552   -0.1700
11     F11    -1.6147   -1.6083    5.7835 F        1 ZINC000027105552   -0.1700
12     C12     0.1325    1.4086    4.8572 C.ar     1 ZINC000027105552    0.0000
13     C13     0.5173    2.0580    3.6977 C.ar     1 ZINC000027105552   -0.1900
14     C14     0.9383    3.5040    3.7502 C.3      1 ZINC000027105552    0.5100
15     F15     0.8575    3.9657    5.0683 F        1 ZINC000027105552   -0.1700
16     F16     2.2556    3.6230    3.2943 F        1 ZINC000027105552   -0.1700
17     F17     0.0927    4.2658    2.9366 F        1 ZINC000027105552   -0.1700
18     C18     0.5218    1.3831    2.4945 C.ar     1 ZINC000027105552   -0.0100
19     C19    -0.4441   -0.8377   -1.2044 C.3      1 ZINC000027105552    0.1700
20     H20    -0.0962   -1.8579   -1.0425 H        1 ZINC000027105552    0.1200
21     C21    -1.8794   -0.8633   -1.6629 C.2      1 ZINC000027105552   -0.0800
22     C22    -2.5412   -2.0158   -1.7125 C.2      1 ZINC000027105552   -0.1800
23     C23    -3.9423   -2.0407   -2.1601 C.2      1 ZINC000027105552    0.5500
24     O24    -4.4953   -1.0075   -2.4849 O.2      1 ZINC000027105552   -0.5400
25     N25    -4.6130   -3.2087   -2.2103 N.am     1 ZINC000027105552   -0.7000
26     C26    -6.0083   -3.2335   -2.6561 C.3      1 ZINC000027105552    0.1300
27     H27    -6.1574   -2.4853   -3.4345 H        1 ZINC000027105552    0.1100
28     C28    -6.3482   -4.6214   -3.2048 C.3      1 ZINC000027105552   -0.1200
29     C29    -7.5010   -4.5428   -4.1891 C.3      1 ZINC000027105552   -0.1200
30     C30    -8.8217   -4.1451   -3.5556 C.3      1 ZINC000027105552   -0.1500
31     C31    -8.7717   -2.7018   -3.0508 C.3      1 ZINC000027105552    0.1000
32     N32    -8.2173   -2.6987   -1.6872 N.am     1 ZINC000027105552   -0.7200
33     C33    -6.9218   -2.9384   -1.4851 C.2      1 ZINC000027105552    0.5100
34     O34    -6.4740   -2.9286   -0.3580 O.2      1 ZINC000027105552   -0.5400
35     C35     0.4211   -0.1675   -2.2736 C.3      1 ZINC000027105552   -0.0900
36     C36     1.8711   -0.2512   -1.8716 C.ar     1 ZINC000027105552   -0.0600
37     C37     2.4351    0.7531   -1.1075 C.ar     1 ZINC000027105552   -0.1000
38     C38     3.7651    0.6775   -0.7381 C.ar     1 ZINC000027105552   -0.1000
39     C39     4.5322   -0.4034   -1.1331 C.ar     1 ZINC000027105552   -0.0300
40     Cl40    6.2023   -0.4991   -0.6690 Cl       1 ZINC000027105552   -0.0500
41     C41     3.9671   -1.4096   -1.8987 C.ar     1 ZINC000027105552   -0.0200
42     Cl42    4.9285   -2.7671   -2.3953 Cl       1 ZINC000027105552   -0.0400
43     C43     2.6349   -1.3352   -2.2626 C.ar     1 ZINC000027105552   -0.0900
44     H44     0.1176    1.9599   -0.0507 H        1 ZINC000027105552    0.0600
45     H45    -1.4774    1.5142   -0.7030 H        1 ZINC000027105552    0.0900
46     H46    -1.2107    1.5386    1.0567 H        1 ZINC000027105552    0.0800
47     H47    -0.5643   -1.6399    3.5906 H        1 ZINC000027105552    0.1600
48     H48     0.1350    1.9402    5.7973 H        1 ZINC000027105552    0.1600
49     H49     0.8227    1.8910    1.5901 H        1 ZINC000027105552    0.1500
50     H50    -2.3706    0.0543   -1.9514 H        1 ZINC000027105552    0.1400
51     H51    -2.0501   -2.9334   -1.4240 H        1 ZINC000027105552    0.1300
52     H52    -4.1718   -4.0328   -1.9512 H        1 ZINC000027105552    0.4100
53     H53    -5.4734   -5.0322   -3.7088 H        1 ZINC000027105552    0.0900
54     H54    -6.6258   -5.2759   -2.3785 H        1 ZINC000027105552    0.0700
55     H55    -7.2514   -3.8136   -4.9598 H        1 ZINC000027105552    0.0700
56     H56    -7.6216   -5.5172   -4.6623 H        1 ZINC000027105552    0.0800
57     H57    -9.6167   -4.2387   -4.2954 H        1 ZINC000027105552    0.0800
58     H58    -9.0323   -4.8106   -2.7183 H        1 ZINC000027105552    0.0700
59     H59    -8.1350   -2.1071   -3.7058 H        1 ZINC000027105552    0.0800
60     H60    -9.7783   -2.2840   -3.0373 H        1 ZINC000027105552    0.0900
61     H61    -8.7978   -2.5176   -0.9315 H        1 ZINC000027105552    0.4000
62     H62     0.2785   -0.6756   -3.2273 H        1 ZINC000027105552    0.1000
63     H63     0.1312    0.8786   -2.3723 H        1 ZINC000027105552    0.0900
64     H64     1.8365    1.5974   -0.7992 H        1 ZINC000027105552    0.1300
65     H65     4.2053    1.4627   -0.1413 H        1 ZINC000027105552    0.1400
66     H66     2.1934   -2.1197   -2.8594 H        1 ZINC000027105552    0.1400
@<TRIPOS>BOND
1     1     2     1
2     1     44    1
3     1     45    1
4     1     46    1
5     2     3     am
6     2     19    1
7     3     4     2
8     3     5     1
9     5     18    ar
10    5     6     ar
11    6     7     ar
12    6     47    1
13    7     8     1
14    7     12    ar
15    8     9     1
16    8     10    1
17    8     11    1
18    12    13    ar
19    12    48    1
20    13    14    1
21    13    18    ar
22    14    15    1
23    14    16    1
24    14    17    1
25    18    49    1
26    19    20    1
27    19    21    1
28    19    35    1
29    21    22    2
30    21    50    1
31    22    23    1
32    22    51    1
33    23    24    2
34    23    25    am
35    25    26    1
36    25    52    1
37    26    27    1
38    26    33    1
39    26    28    1
40    28    29    1
41    28    53    1
42    28    54    1
43    29    30    1
44    29    55    1
45    29    56    1
46    30    31    1
47    30    57    1
48    30    58    1
49    31    32    1
50    31    59    1
51    31    60    1
52    32    33    am
53    32    61    1
54    33    34    2
55    35    36    1
56    35    62    1
57    35    63    1
58    36    43    ar
59    36    37    ar
60    37    38    ar
61    37    64    1
62    38    39    ar
63    38    65    1
64    39    40    1
65    39    41    ar
66    41    42    1
67    41    43    ar
68    43    66    1
@<TRIPOS>SUBSTRUCTURE
1   ZINC000027105552 1     RESIDUE    1   A     ZIN   1
