@<TRIPOS>MOLECULE
ZINC000117704832
58    61    1     0     0
SMALL
USER_CHARGES
@<TRIPOS>ATOM
1      C1      0.3907    1.8276    0.1285 C.3      1 ZINC000117704832    0.0400
2      O2      0.2999    0.4025    0.0749 O.3      1 ZINC000117704832   -0.3100
3      C3      0.8624   -0.2894    1.0975 C.ar     1 ZINC000117704832    0.3200
4      C4      0.8099   -1.6782    1.0958 C.ar     1 ZINC000117704832   -0.1900
5      C5      1.3851   -2.3769    2.1400 C.ar     1 ZINC000117704832   -0.0200
6      C6      2.0024   -1.6514    3.1655 C.ar     1 ZINC000117704832   -0.1200
7      C7      2.6344   -2.3530    4.3075 C.2      1 ZINC000117704832   -0.1300
8      C8      3.7298   -3.1493    4.1081 C.2      1 ZINC000117704832   -0.0100
9      C9      4.3108   -3.8058    5.2173 C.ar     1 ZINC000117704832   -0.2800
10     C10     5.4343   -4.6321    5.0662 C.ar     1 ZINC000117704832    0.2800
11     C11     6.0566   -4.8442    3.7102 C.3      1 ZINC000117704832   -0.1100
12     N12     5.9351   -5.2196    6.1370 N.ar     1 ZINC000117704832   -0.5900
13     C13     5.3943   -5.0389    7.3368 C.ar     1 ZINC000117704832    0.6200
14     N14     5.9581   -5.6775    8.4234 N.pl3    1 ZINC000117704832   -0.8100
15     N15     4.3347   -4.2685    7.5290 N.ar     1 ZINC000117704832   -0.6100
16     C16     3.7645   -3.6383    6.5081 C.ar     1 ZINC000117704832    0.4800
17     N17     2.6666   -2.8377    6.6982 N.am     1 ZINC000117704832   -0.4900
18     C18     2.1132   -2.6737    8.0448 C.3      1 ZINC000117704832    0.1300
19     H19     2.6994   -3.2601    8.7524 H        1 ZINC000117704832    0.1200
20     C20     2.1644   -1.1968    8.4408 C.3      1 ZINC000117704832   -0.1200
21     C21     1.3416   -0.3736    7.4476 C.3      1 ZINC000117704832   -0.1600
22     C22    -0.1102   -0.8563    7.4647 C.3      1 ZINC000117704832    0.1300
23     H23    -0.5219   -0.7343    8.4666 H        1 ZINC000117704832    0.0400
24     O24    -0.8786   -0.0875    6.5371 O.3      1 ZINC000117704832   -0.3600
25     C25    -2.2517    0.0625    6.9035 C.3      1 ZINC000117704832    0.0600
26     C26    -2.9738    0.8981    5.8446 C.3      1 ZINC000117704832    0.0800
27     O27    -2.9887    0.1868    4.6053 O.3      1 ZINC000117704832   -0.5600
28     C28    -0.1613   -2.3332    7.0687 C.3      1 ZINC000117704832   -0.1800
29     C29     0.6615   -3.1563    8.0619 C.3      1 ZINC000117704832   -0.1200
30     C30     2.0962   -2.1959    5.6605 C.2      1 ZINC000117704832    0.4000
31     O31     1.1221   -1.4885    5.8468 O.2      1 ZINC000117704832   -0.3500
32     C32     2.0144   -0.2599    3.0965 C.ar     1 ZINC000117704832    0.1700
33     N33     1.4581    0.3672    2.0796 N.ar     1 ZINC000117704832   -0.5400
34     H34     1.4394    2.1246    0.1412 H        1 ZINC000117704832    0.0600
35     H35    -0.0976    2.2559   -0.7468 H        1 ZINC000117704832    0.1000
36     H36    -0.1003    2.1892    1.0319 H        1 ZINC000117704832    0.0600
37     H37     0.3246   -2.2054    0.2877 H        1 ZINC000117704832    0.1400
38     H38     1.3586   -3.4563    2.1644 H        1 ZINC000117704832    0.1400
39     H39     4.1437   -3.2744    3.1185 H        1 ZINC000117704832    0.1400
40     H40     6.8220   -4.0872    3.5393 H        1 ZINC000117704832    0.1000
41     H41     6.5097   -5.8348    3.6693 H        1 ZINC000117704832    0.0900
42     H42     5.2883   -4.7641    2.9413 H        1 ZINC000117704832    0.0900
43     H43     6.7349   -6.2457    8.3027 H        1 ZINC000117704832    0.4200
44     H44     5.5774   -5.5578    9.3075 H        1 ZINC000117704832    0.4200
45     H45     1.7527   -1.0748    9.4427 H        1 ZINC000117704832    0.0800
46     H46     3.1987   -0.8529    8.4286 H        1 ZINC000117704832    0.0700
47     H47     1.3780    0.6786    7.7298 H        1 ZINC000117704832    0.0500
48     H48     1.7533   -0.4956    6.4458 H        1 ZINC000117704832    0.1600
49     H49    -2.7189   -0.9199    6.9718 H        1 ZINC000117704832    0.0500
50     H50    -2.3174    0.5640    7.8690 H        1 ZINC000117704832    0.0600
51     H51    -3.9976    1.0875    6.1672 H        1 ZINC000117704832    0.0600
52     H52    -2.4530    1.8465    5.7129 H        1 ZINC000117704832    0.0500
53     H53    -3.4318    0.6582    3.8865 H        1 ZINC000117704832    0.3800
54     H54    -1.1956   -2.6771    7.0808 H        1 ZINC000117704832    0.0400
55     H55     0.2504   -2.4552    6.0668 H        1 ZINC000117704832    0.1600
56     H56     0.6250   -4.2086    7.7797 H        1 ZINC000117704832    0.0700
57     H57     0.2498   -3.0343    9.0637 H        1 ZINC000117704832    0.0800
58     H58     2.4878    0.3103    3.8821 H        1 ZINC000117704832    0.1600
@<TRIPOS>BOND
1     1     2     1
2     1     34    1
3     1     35    1
4     1     36    1
5     2     3     1
6     3     33    ar
7     3     4     ar
8     4     5     ar
9     4     37    1
10    5     6     ar
11    5     38    1
12    6     7     1
13    6     32    ar
14    7     30    1
15    7     8     2
16    8     9     1
17    8     39    1
18    9     16    ar
19    9     10    ar
20    10    11    1
21    10    12    ar
22    11    40    1
23    11    41    1
24    11    42    1
25    12    13    ar
26    13    14    1
27    13    15    ar
28    14    43    1
29    14    44    1
30    15    16    ar
31    16    17    1
32    17    18    1
33    17    30    am
34    18    19    1
35    18    29    1
36    18    20    1
37    20    21    1
38    20    45    1
39    20    46    1
40    21    22    1
41    21    47    1
42    21    48    1
43    22    23    1
44    22    24    1
45    22    28    1
46    24    25    1
47    25    26    1
48    25    49    1
49    25    50    1
50    26    27    1
51    26    51    1
52    26    52    1
53    27    53    1
54    28    29    1
55    28    54    1
56    28    55    1
57    29    56    1
58    29    57    1
59    30    31    2
60    32    33    ar
61    32    58    1
@<TRIPOS>SUBSTRUCTURE
1   ZINC000117704832 1     RESIDUE    1   A     ZIN   1
