@<TRIPOS>MOLECULE
ZINC000001081243
27    28    1     0     0
SMALL
USER_CHARGES
@<TRIPOS>ATOM
1      O1      0.0021   -0.0041    0.0020 O.2      1 ZINC000001081243   -0.5800
2      C2     -0.0144    1.2136    0.0087 C.2      1 ZINC000001081243    0.5200
3      N3     -1.1875    1.8781    0.0291 N.pl3    1 ZINC000001081243   -0.6800
4      C4     -1.2051    3.2239    0.0365 C.2      1 ZINC000001081243    0.6500
5      O5     -2.2707    3.8092    0.0553 O.2      1 ZINC000001081243   -0.5900
6      N6     -0.0604    3.9308    0.0237 N.am     1 ZINC000001081243   -0.5400
7      C7     -0.1116    5.3949    0.0322 C.3      1 ZINC000001081243    0.3000
8      H8      0.8930    5.8084    0.1214 H        1 ZINC000001081243    0.0900
9      C9     -0.7959    5.9165   -1.2509 C.3      1 ZINC000001081243   -0.1900
10     C10    -1.6142    7.1359   -0.7707 C.3      1 ZINC000001081243    0.0800
11     H11    -2.6774    6.9775   -0.9514 H        1 ZINC000001081243    0.0800
12     O12    -1.1686    8.3264   -1.4234 O.3      1 ZINC000001081243   -0.5600
13     C13    -1.3276    7.2068    0.7456 C.3      1 ZINC000001081243    0.0900
14     H14    -0.5103    7.8997    0.9453 H        1 ZINC000001081243    0.0800
15     C15    -2.5847    7.6342    1.5059 C.3      1 ZINC000001081243    0.0900
16     O16    -2.2694    7.8062    2.8890 O.3      1 ZINC000001081243   -0.5700
17     O17    -0.9458    5.8626    1.1144 O.3      1 ZINC000001081243   -0.3400
18     C18     1.1518    3.2947    0.0033 C.2      1 ZINC000001081243    0.1700
19     C19     1.1985    1.9449    0.0011 C.2      1 ZINC000001081243   -0.2700
20     Br20    2.8607    1.0437   -0.0263 Br       1 ZINC000001081243   -0.0600
21     H21    -0.0498    6.2221   -1.9844 H        1 ZINC000001081243    0.0900
22     H22    -1.4544    5.1552   -1.6690 H        1 ZINC000001081243    0.1000
23     H23    -1.2712    8.3098   -2.3848 H        1 ZINC000001081243    0.3800
24     H24    -2.9540    8.5749    1.0977 H        1 ZINC000001081243    0.0600
25     H25    -3.3514    6.8666    1.4008 H        1 ZINC000001081243    0.0600
26     H26    -3.0214    8.0777    3.4330 H        1 ZINC000001081243    0.3800
27     H27     2.0661    3.8694   -0.0068 H        1 ZINC000001081243    0.1500
@<TRIPOS>BOND
1     1     2     2
2     2     19    1
3     2     3     1
4     3     4     1
5     4     5     2
6     4     6     am
7     6     7     1
8     6     18    1
9     7     8     1
10    7     17    1
11    7     9     1
12    9     10    1
13    9     21    1
14    9     22    1
15    10    11    1
16    10    12    1
17    10    13    1
18    12    23    1
19    13    14    1
20    13    15    1
21    13    17    1
22    15    16    1
23    15    24    1
24    15    25    1
25    16    26    1
26    18    19    2
27    18    27    1
28    19    20    1
@<TRIPOS>SUBSTRUCTURE
1   ZINC000001081243 1     RESIDUE    1   A     ZIN   1
