@<TRIPOS>MOLECULE
ZINC000008214706
102   103   1     0     0
SMALL
USER_CHARGES
@<TRIPOS>ATOM
1      C1      3.3741    3.2872   -1.5165 C.3      1 ZINC000008214706   -0.1500
2      C2      3.3129    1.7674   -1.3513 C.3      1 ZINC000008214706   -0.1300
3      C3      3.7680    1.0947   -2.6479 C.3      1 ZINC000008214706   -0.1200
4      C4      3.7068   -0.4251   -2.4827 C.3      1 ZINC000008214706   -0.1200
5      C5      4.1620   -1.0978   -3.7794 C.3      1 ZINC000008214706   -0.1200
6      C6      4.1007   -2.6176   -3.6142 C.3      1 ZINC000008214706   -0.1200
7      C7      4.5559   -3.2903   -4.9108 C.3      1 ZINC000008214706   -0.1200
8      C8      4.4946   -4.8101   -4.7456 C.3      1 ZINC000008214706   -0.1200
9      C9      4.9498   -5.4828   -6.0422 C.3      1 ZINC000008214706   -0.1200
10     C10     4.8885   -7.0026   -5.8771 C.3      1 ZINC000008214706   -0.1200
11     C11     5.3437   -7.6753   -7.1737 C.3      1 ZINC000008214706   -0.1200
12     C12     5.2824   -9.1952   -7.0085 C.3      1 ZINC000008214706   -0.1200
13     C13     5.7376   -9.8678   -8.3051 C.3      1 ZINC000008214706   -0.1200
14     C14     5.6763  -11.3877   -8.1399 C.3      1 ZINC000008214706   -0.1200
15     C15     6.1315  -12.0603   -9.4366 C.3      1 ZINC000008214706   -0.1200
16     C16     6.0702  -13.5802   -9.2714 C.3      1 ZINC000008214706   -0.1100
17     C17     6.5254  -14.2528  -10.5680 C.3      1 ZINC000008214706   -0.1100
18     C18     6.4651  -15.7498  -10.4053 C.2      1 ZINC000008214706    0.4600
19     O19     6.0959  -16.2295   -9.3596 O.2      1 ZINC000008214706   -0.5000
20     O20     6.8215  -16.5503  -11.4221 O.3      1 ZINC000008214706   -0.3600
21     C21     6.7383  -17.9820  -11.1944 C.3      1 ZINC000008214706    0.0700
22     C22     7.1811  -18.7256  -12.4560 C.3      1 ZINC000008214706   -0.1000
23     H23     6.5882  -18.3855  -13.3051 H        1 ZINC000008214706    0.1000
24     C24     6.9758  -20.2291  -12.2603 C.3      1 ZINC000008214706   -0.1200
25     C25     5.4806  -20.5273  -12.1318 C.3      1 ZINC000008214706    0.0600
26     O26     5.2770  -21.9636  -12.0718 O.3      1 ZINC000008214706   -0.3500
27     C27     4.0111  -22.3954  -11.9575 C.2      1 ZINC000008214706    0.4300
28     O28     3.1034  -21.5994  -11.9093 O.2      1 ZINC000008214706   -0.5100
29     C29     3.7222  -23.8728  -11.8894 C.3      1 ZINC000008214706    0.1100
30     H30     4.4752  -24.3622  -11.2716 H        1 ZINC000008214706    0.1200
31     N31     2.3929  -24.0852  -11.3013 N.3      1 ZINC000008214706   -0.8100
32     C32     3.7564  -24.4648  -13.2998 C.3      1 ZINC000008214706   -0.0800
33     C33     5.1409  -24.2436  -13.9122 C.3      1 ZINC000008214706   -0.1500
34     C34     3.4631  -25.9648  -13.2306 C.3      1 ZINC000008214706   -0.1400
35     C35     8.6611  -18.4433  -12.7216 C.3      1 ZINC000008214706    0.1200
36     N36     9.0563  -19.0610  -13.9898 N.pl3    1 ZINC000008214706   -0.4500
37     C37     9.7413  -20.2321  -14.1384 C.2      1 ZINC000008214706    0.2000
38     N38     9.9214  -20.4803  -15.4027 N.2      1 ZINC000008214706   -0.4200
39     C39     9.3651  -19.4874  -16.1386 C.2      1 ZINC000008214706   -0.1500
40     C40     8.8008  -18.5724  -15.2424 C.2      1 ZINC000008214706    0.3100
41     N41     8.1795  -17.4834  -15.7101 N.2      1 ZINC000008214706   -0.5800
42     C42     8.0884  -17.2552  -17.0012 C.2      1 ZINC000008214706    0.6600
43     N43     7.4421  -16.1246  -17.4340 N.pl3    1 ZINC000008214706   -0.8200
44     N44     8.6176  -18.1087  -17.9228 N.am     1 ZINC000008214706   -0.6600
45     C45     9.2562  -19.2316  -17.5255 C.2      1 ZINC000008214706    0.5900
46     O46     9.7330  -20.0013  -18.3421 O.2      1 ZINC000008214706   -0.5100
47     H47     4.3976    3.5873   -1.7416 H        1 ZINC000008214706    0.0500
48     H48     2.7186    3.5907   -2.3328 H        1 ZINC000008214706    0.0500
49     H49     3.0499    3.7664   -0.5927 H        1 ZINC000008214706    0.0500
50     H50     3.9684    1.4639   -0.5350 H        1 ZINC000008214706    0.0600
51     H51     2.2895    1.4673   -1.1262 H        1 ZINC000008214706    0.0600
52     H52     3.1125    1.3982   -3.4642 H        1 ZINC000008214706    0.0600
53     H53     4.7915    1.3947   -2.8731 H        1 ZINC000008214706    0.0600
54     H54     4.3623   -0.7286   -1.6665 H        1 ZINC000008214706    0.0600
55     H55     2.6834   -0.7252   -2.2576 H        1 ZINC000008214706    0.0600
56     H56     3.5064   -0.7943   -4.5956 H        1 ZINC000008214706    0.0600
57     H57     5.1854   -0.7978   -4.0045 H        1 ZINC000008214706    0.0600
58     H58     4.7562   -2.9211   -2.7979 H        1 ZINC000008214706    0.0600
59     H59     3.0773   -2.9177   -3.3890 H        1 ZINC000008214706    0.0600
60     H60     3.9003   -2.9868   -5.7271 H        1 ZINC000008214706    0.0600
61     H61     5.5793   -2.9903   -5.1359 H        1 ZINC000008214706    0.0600
62     H62     5.1501   -5.1136   -3.9293 H        1 ZINC000008214706    0.0600
63     H63     3.4712   -5.1102   -4.5205 H        1 ZINC000008214706    0.0600
64     H64     4.2943   -5.1794   -6.8585 H        1 ZINC000008214706    0.0600
65     H65     5.9732   -5.1828   -6.2674 H        1 ZINC000008214706    0.0600
66     H66     5.5440   -7.3061   -5.0608 H        1 ZINC000008214706    0.0600
67     H67     3.8651   -7.3027   -5.6519 H        1 ZINC000008214706    0.0600
68     H68     4.6882   -7.3719   -7.9900 H        1 ZINC000008214706    0.0600
69     H69     6.3671   -7.3753   -7.3988 H        1 ZINC000008214706    0.0600
70     H70     5.9379   -9.4986   -6.1922 H        1 ZINC000008214706    0.0600
71     H71     4.2590   -9.4952   -6.7834 H        1 ZINC000008214706    0.0600
72     H72     5.0821   -9.5644   -9.1214 H        1 ZINC000008214706    0.0600
73     H73     6.7610   -9.5678   -8.5303 H        1 ZINC000008214706    0.0600
74     H74     6.3318  -11.6911   -7.3237 H        1 ZINC000008214706    0.0600
75     H75     4.6529  -11.6877   -7.9148 H        1 ZINC000008214706    0.0600
76     H76     5.4760  -11.7569  -10.2528 H        1 ZINC000008214706    0.0600
77     H77     7.1549  -11.7603   -9.6617 H        1 ZINC000008214706    0.0600
78     H78     6.7258  -13.8836   -8.4551 H        1 ZINC000008214706    0.0700
79     H79     5.0468  -13.8802   -9.0462 H        1 ZINC000008214706    0.0700
80     H80     5.8699  -13.9494  -11.3843 H        1 ZINC000008214706    0.1100
81     H81     7.5488  -13.9528  -10.7931 H        1 ZINC000008214706    0.1100
82     H82     7.3889  -18.2561  -10.3639 H        1 ZINC000008214706    0.0800
83     H83     5.7100  -18.2527  -10.9550 H        1 ZINC000008214706    0.0800
84     H84     7.3809  -20.7658  -13.1182 H        1 ZINC000008214706    0.0900
85     H85     7.4896  -20.5511  -11.3546 H        1 ZINC000008214706    0.0900
86     H86     5.0953  -20.0673  -11.2219 H        1 ZINC000008214706    0.0700
87     H87     4.9537  -20.1214  -12.9954 H        1 ZINC000008214706    0.0700
88     H88     2.3639  -23.7607  -10.3464 H        1 ZINC000008214706    0.3500
89     H89     1.6768  -23.6408  -11.8562 H        1 ZINC000008214706    0.3500
90     H90     3.0034  -23.9754  -13.9176 H        1 ZINC000008214706    0.0700
91     H91     5.1653  -24.6654  -14.9171 H        1 ZINC000008214706    0.0600
92     H92     5.3499  -23.1750  -13.9615 H        1 ZINC000008214706    0.0600
93     H93     5.8939  -24.7330  -13.2945 H        1 ZINC000008214706    0.0600
94     H94     2.4767  -26.1224  -12.7943 H        1 ZINC000008214706    0.0700
95     H95     3.4874  -26.3865  -14.2354 H        1 ZINC000008214706    0.0600
96     H96     4.2160  -26.4542  -12.6128 H        1 ZINC000008214706    0.0600
97     H97     8.8215  -17.3665  -12.7764 H        1 ZINC000008214706    0.1100
98     H98     9.2613  -18.8592  -11.9123 H        1 ZINC000008214706    0.1000
99     H99    10.0829  -20.8587  -13.3278 H        1 ZINC000008214706    0.2200
100    H100    7.0607  -15.5075  -16.7901 H        1 ZINC000008214706    0.4300
101    H101    7.3668  -15.9425  -18.3838 H        1 ZINC000008214706    0.4200
102    H102    8.5326  -17.9109  -18.8686 H        1 ZINC000008214706    0.4200
@<TRIPOS>BOND
1     1     2     1
2     1     47    1
3     1     48    1
4     1     49    1
5     2     3     1
6     2     50    1
7     2     51    1
8     3     4     1
9     3     52    1
10    3     53    1
11    4     5     1
12    4     54    1
13    4     55    1
14    5     6     1
15    5     56    1
16    5     57    1
17    6     7     1
18    6     58    1
19    6     59    1
20    7     8     1
21    7     60    1
22    7     61    1
23    8     9     1
24    8     62    1
25    8     63    1
26    9     10    1
27    9     64    1
28    9     65    1
29    10    11    1
30    10    66    1
31    10    67    1
32    11    12    1
33    11    68    1
34    11    69    1
35    12    13    1
36    12    70    1
37    12    71    1
38    13    14    1
39    13    72    1
40    13    73    1
41    14    15    1
42    14    74    1
43    14    75    1
44    15    16    1
45    15    76    1
46    15    77    1
47    16    17    1
48    16    78    1
49    16    79    1
50    17    18    1
51    17    80    1
52    17    81    1
53    18    19    2
54    18    20    1
55    20    21    1
56    21    22    1
57    21    82    1
58    21    83    1
59    22    23    1
60    22    24    1
61    22    35    1
62    24    25    1
63    24    84    1
64    24    85    1
65    25    26    1
66    25    86    1
67    25    87    1
68    26    27    1
69    27    28    2
70    27    29    1
71    29    30    1
72    29    31    1
73    29    32    1
74    31    88    1
75    31    89    1
76    32    33    1
77    32    34    1
78    32    90    1
79    33    91    1
80    33    92    1
81    33    93    1
82    34    94    1
83    34    95    1
84    34    96    1
85    35    36    1
86    35    97    1
87    35    98    1
88    36    40    1
89    36    37    1
90    37    38    2
91    37    99    1
92    38    39    1
93    39    45    1
94    39    40    2
95    40    41    1
96    41    42    2
97    42    43    1
98    42    44    1
99    43    100   1
100   43    101   1
101   44    45    am
102   44    102   1
103   45    46    2
@<TRIPOS>SUBSTRUCTURE
1   ZINC000008214706 1     RESIDUE    1   A     ZIN   1
