@<TRIPOS>MOLECULE
ZINC000006381852
  34   35    0    0    0
SMALL
USER_CHARGES
NO_NAME
@<TRIPOS>ATOM
    1 C1       -0.0187     1.5258     0.0104 C.3    1 <0>      -0.1900
    2 C2        0.0021    -0.0041     0.0020 C.3    1 <0>       0.0800
    3 H3        0.5123    -0.3556    -0.8948 H      1 <0>       0.0500
    4 O4       -1.3386    -0.4987     0.0122 O.3    1 <0>      -0.5600
    5 C5        0.7421    -0.5109     1.2415 C.3    1 <0>       0.1000
    6 H6        0.2319    -0.1594     2.1383 H      1 <0>       0.1200
    7 O7        2.0827    -0.0163     1.2314 O.3    1 <0>      -0.5400
    8 C8        0.7628    -2.0407     1.2331 C.3    1 <0>       0.1100
    9 H9       -0.2581    -2.4225     1.2408 H      1 <0>       0.1300
   10 C10       1.5179    -2.5556     2.4670 C.3    1 <0>       0.1100
   11 N11       2.9133    -2.0999     2.3802 N.pl3  1 <0>      -0.6800
   12 C12       3.5872    -2.2261     1.1709 C.ar   1 <0>       0.4400
   13 N13       4.9130    -2.1511     1.1156 N.ar   1 <0>      -0.5800
   14 H14       5.4215    -2.0080     1.9292 H      1 <0>       0.4400
   15 C15       5.5457    -2.2708    -0.0430 C.ar   1 <0>       0.6600
   16 N16       6.9296    -2.1877    -0.0646 N.pl3  1 <0>      -0.8000
   17 N17       4.8969    -2.4676    -1.1801 N.ar   1 <0>      -0.5700
   18 C18       3.5668    -2.5546    -1.2032 C.ar   1 <0>       0.5100
   19 N19       2.8905    -2.7608    -2.3994 N.pl3  1 <0>      -0.7900
   20 C20       2.8695    -2.4341    -0.0051 C.ar   1 <0>      -0.0300
   21 N21       1.4638    -2.5214     0.0316 N.pl3  1 <0>      -0.7300
   22 H22       1.0039     1.9031     0.0027 H      1 <0>       0.0700
   23 H23      -0.5459     1.8868    -0.8726 H      1 <0>       0.0600
   24 H24      -0.5289     1.8773     0.9072 H      1 <0>       0.0700
   25 H25      -1.8677    -0.2163    -0.7464 H      1 <0>       0.3900
   26 H26       2.5972    -0.2904     0.4599 H      1 <0>       0.3600
   27 H27       1.0575    -2.1581     3.3715 H      1 <0>       0.1200
   28 H28       1.4881    -3.6450     2.4876 H      1 <0>       0.0900
   29 H29       3.3561    -1.7173     3.1538 H      1 <0>       0.4200
   30 H30       7.4198    -2.0440     0.7600 H      1 <0>       0.4300
   31 H31       7.4076    -2.2732    -0.9044 H      1 <0>       0.4400
   32 H32       3.3864    -2.8431    -3.2290 H      1 <0>       0.4300
   33 H33       1.9225    -2.8225    -2.4049 H      1 <0>       0.4200
   34 H34       0.9701    -2.8900    -0.7176 H      1 <0>       0.4100
@<TRIPOS>BOND
   1    1    2 1
   2    1   22 1
   3    1   23 1
   4    1   24 1
   5    2    3 1
   6    2    4 1
   7    2    5 1
   8    4   25 1
   9    5    6 1
  10    5    7 1
  11    5    8 1
  12    7   26 1
  13    8    9 1
  14    8   21 1
  15    8   10 1
  16   10   11 1
  17   10   27 1
  18   10   28 1
  19   11   12 1
  20   11   29 1
  21   12   20 ar
  22   12   13 ar
  23   13   14 1
  24   13   15 ar
  25   15   16 1
  26   15   17 ar
  27   16   30 1
  28   16   31 1
  29   17   18 ar
  30   18   19 1
  31   18   20 ar
  32   19   32 1
  33   19   33 1
  34   20   21 1
  35   21   34 1
