@<TRIPOS>MOLECULE
ZINC000072190226
72    74    1     0     0
SMALL
USER_CHARGES
@<TRIPOS>ATOM
1      C1      1.0450    2.9261    2.2590 C.3      1 ZINC000072190226   -0.1500
2      C2      1.3468    1.5343    1.6998 C.3      1 ZINC000072190226    0.0500
3      N3      0.1923    0.6546    1.9263 N.3      1 ZINC000072190226   -0.5300
4      C4     -0.9700    1.1002    1.1462 C.3      1 ZINC000072190226    0.0500
5      C5     -2.2182    0.3517    1.6181 C.3      1 ZINC000072190226   -0.1500
6      C6      0.5271   -0.7427    1.6207 C.3      1 ZINC000072190226    0.0500
7      C7      1.3818   -1.3210    2.7503 C.3      1 ZINC000072190226    0.0800
8      O8      0.5997   -1.3698    3.9727 O.3      1 ZINC000072190226   -0.3400
9      C9      1.2358   -1.7611    5.0880 C.2      1 ZINC000072190226    0.4500
10     O10     2.4267   -1.9641    5.0646 O.2      1 ZINC000072190226   -0.4800
11     C11     0.4648   -1.9474    6.3693 C.3      1 ZINC000072190226    0.1700
12     H12    -0.4587   -2.4882    6.1623 H        1 ZINC000072190226    0.1300
13     C13     0.1314   -0.5792    6.9675 C.3      1 ZINC000072190226   -0.0900
14     C14    -0.7903   -0.7573    8.1463 C.ar     1 ZINC000072190226   -0.0900
15     C15    -2.1493   -0.9111    7.9425 C.ar     1 ZINC000072190226   -0.1000
16     C16    -2.9967   -1.0751    9.0207 C.ar     1 ZINC000072190226   -0.1400
17     C17    -2.4824   -1.0854   10.3108 C.ar     1 ZINC000072190226    0.1400
18     N18    -3.3377   -1.2516   11.4048 N.am     1 ZINC000072190226   -0.6600
19     C19    -3.0891   -0.6021   12.5593 C.2      1 ZINC000072190226    0.5700
20     O20    -2.0812    0.0679   12.6750 O.2      1 ZINC000072190226   -0.4900
21     C21    -4.0410   -0.7042   13.6835 C.ar     1 ZINC000072190226   -0.1200
22     C22    -3.8958   -1.7156   14.6371 C.ar     1 ZINC000072190226    0.0000
23     Cl23   -2.5943   -2.8567   14.5041 Cl       1 ZINC000072190226   -0.0400
24     C24    -4.7900   -1.8045   15.6856 C.ar     1 ZINC000072190226   -0.1100
25     C25    -5.8275   -0.8959   15.7935 C.ar     1 ZINC000072190226   -0.0700
26     C26    -5.9778    0.1080   14.8536 C.ar     1 ZINC000072190226   -0.1100
27     C27    -5.0883    0.2135   13.8026 C.ar     1 ZINC000072190226    0.0000
28     Cl28   -5.2786    1.4744   12.6247 Cl       1 ZINC000072190226   -0.0400
29     C29    -1.1169   -0.9307   10.5121 C.ar     1 ZINC000072190226   -0.1100
30     C30    -0.2744   -0.7724    9.4293 C.ar     1 ZINC000072190226   -0.0900
31     N31     1.2755   -2.7117    7.3205 N.am     1 ZINC000072190226   -0.7100
32     C32     2.5009   -2.2711    7.6680 C.2      1 ZINC000072190226    0.5800
33     O33     2.8946   -1.1924    7.2691 O.2      1 ZINC000072190226   -0.4900
34     C34     3.3657   -3.0992    8.5339 C.ar     1 ZINC000072190226   -0.1200
35     C35     4.1288   -4.1298    7.9827 C.ar     1 ZINC000072190226   -0.0300
36     C36     4.0734   -4.4012    6.5014 C.3      1 ZINC000072190226   -0.1200
37     C37     4.9341   -4.8992    8.7966 C.ar     1 ZINC000072190226   -0.1200
38     C38     4.9868   -4.6522   10.1571 C.ar     1 ZINC000072190226   -0.0900
39     C39     4.2338   -3.6328   10.7113 C.ar     1 ZINC000072190226   -0.1200
40     C40     3.4279   -2.8505    9.9076 C.ar     1 ZINC000072190226    0.0000
41     Cl41    2.4833   -1.5714   10.6041 Cl       1 ZINC000072190226   -0.0500
42     H42     0.8481    2.8531    3.3285 H        1 ZINC000072190226    0.0600
43     H43     1.9017    3.5787    2.0909 H        1 ZINC000072190226    0.0600
44     H44     0.1702    3.3379    1.7557 H        1 ZINC000072190226    0.0600
45     H45     1.5437    1.6072    0.6302 H        1 ZINC000072190226    0.0300
46     H46     2.2216    1.1224    2.2030 H        1 ZINC000072190226    0.0700
47     H47    -1.1135    2.1714    1.2876 H        1 ZINC000072190226    0.0800
48     H48    -0.7996    0.8928    0.0897 H        1 ZINC000072190226    0.0300
49     H49    -3.0712    0.6459    1.0065 H        1 ZINC000072190226    0.0600
50     H50    -2.0558   -0.7219    1.5228 H        1 ZINC000072190226    0.0500
51     H51    -2.4169    0.5980    2.6611 H        1 ZINC000072190226    0.0600
52     H52    -0.3903   -1.3236    1.5253 H        1 ZINC000072190226    0.0900
53     H53     1.0840   -0.7865    0.6848 H        1 ZINC000072190226    0.0600
54     H54     1.7027   -2.3281    2.4840 H        1 ZINC000072190226    0.0700
55     H55     2.2568   -0.6895    2.9038 H        1 ZINC000072190226    0.0700
56     H56     1.0500   -0.0922    7.2948 H        1 ZINC000072190226    0.1000
57     H57    -0.3580    0.0375    6.2136 H        1 ZINC000072190226    0.1000
58     H58    -2.5486   -0.9027    6.9390 H        1 ZINC000072190226    0.1300
59     H59    -4.0580   -1.1948    8.8608 H        1 ZINC000072190226    0.1300
60     H60    -4.1097   -1.8344   11.3327 H        1 ZINC000072190226    0.4100
61     H61    -4.6793   -2.5857   16.4230 H        1 ZINC000072190226    0.1500
62     H62    -6.5239   -0.9708   16.6155 H        1 ZINC000072190226    0.1500
63     H63    -6.7903    0.8137   14.9445 H        1 ZINC000072190226    0.1500
64     H64    -0.7139   -0.9383   11.5141 H        1 ZINC000072190226    0.1400
65     H65     0.7875   -0.6520    9.5851 H        1 ZINC000072190226    0.1300
66     H66     0.9305   -3.5349    7.7001 H        1 ZINC000072190226    0.4100
67     H67     4.8375   -3.8113    5.9951 H        1 ZINC000072190226    0.0800
68     H68     4.2525   -5.4608    6.3191 H        1 ZINC000072190226    0.0700
69     H69     3.0902   -4.1277    6.1184 H        1 ZINC000072190226    0.0700
70     H70     5.5248   -5.6968    8.3708 H        1 ZINC000072190226    0.1400
71     H71     5.6186   -5.2584   10.7893 H        1 ZINC000072190226    0.1400
72     H72     4.2796   -3.4454   11.7739 H        1 ZINC000072190226    0.1400
@<TRIPOS>BOND
1     1     2     1
2     1     42    1
3     1     43    1
4     1     44    1
5     2     3     1
6     2     45    1
7     2     46    1
8     3     4     1
9     3     6     1
10    4     5     1
11    4     47    1
12    4     48    1
13    5     49    1
14    5     50    1
15    5     51    1
16    6     7     1
17    6     52    1
18    6     53    1
19    7     8     1
20    7     54    1
21    7     55    1
22    8     9     1
23    9     10    2
24    9     11    1
25    11    12    1
26    11    13    1
27    11    31    1
28    13    14    1
29    13    56    1
30    13    57    1
31    14    30    ar
32    14    15    ar
33    15    16    ar
34    15    58    1
35    16    17    ar
36    16    59    1
37    17    18    1
38    17    29    ar
39    18    19    am
40    18    60    1
41    19    20    2
42    19    21    1
43    21    27    ar
44    21    22    ar
45    22    23    1
46    22    24    ar
47    24    25    ar
48    24    61    1
49    25    26    ar
50    25    62    1
51    26    27    ar
52    26    63    1
53    27    28    1
54    29    30    ar
55    29    64    1
56    30    65    1
57    31    32    am
58    31    66    1
59    32    33    2
60    32    34    1
61    34    40    ar
62    34    35    ar
63    35    36    1
64    35    37    ar
65    36    67    1
66    36    68    1
67    36    69    1
68    37    38    ar
69    37    70    1
70    38    39    ar
71    38    71    1
72    39    40    ar
73    39    72    1
74    40    41    1
@<TRIPOS>SUBSTRUCTURE
1   ZINC000072190226 1     RESIDUE    1   A     ZIN   1
