@<TRIPOS>MOLECULE
ZINC000028467935
57    61    1     0     0
SMALL
USER_CHARGES
@<TRIPOS>ATOM
1      O1      0.0021   -0.0041    0.0020 O.2      1 ZINC000028467935   -0.5200
2      C2     -0.0144    1.2136    0.0087 C.2      1 ZINC000028467935    0.5600
3      N3     -1.1852    1.8743    0.0290 N.am     1 ZINC000028467935   -0.6200
4      C4     -1.2632    3.2541    0.0370 C.2      1 ZINC000028467935    0.1400
5      C5     -0.1413    4.0157    0.0249 C.2      1 ZINC000028467935   -0.1300
6      C6     -0.5540    5.4682    0.0374 C.3      1 ZINC000028467935   -0.0400
7      C7     -2.0622    5.4632    0.0585 C.ar     1 ZINC000028467935   -0.1000
8      C8     -3.0008    6.4700    0.0756 C.ar     1 ZINC000028467935    0.0100
9      C9     -4.3498    6.1573    0.0923 C.ar     1 ZINC000028467935   -0.6700
10     S10    -5.5507    7.4465    0.1142 S.o2     1 ZINC000028467935    2.7000
11     O11    -6.7313    6.8857    0.6720 O.2      1 ZINC000028467935   -0.9500
12     O12    -4.9025    8.5895    0.6551 O.2      1 ZINC000028467935   -0.9400
13     N13    -5.9060    7.8123   -1.4614 N.am     1 ZINC000028467935   -1.1200
14     C14    -6.5575    6.8162   -2.3156 C.3      1 ZINC000028467935    0.1200
15     C15    -7.1062    7.5003   -3.5694 C.3      1 ZINC000028467935   -0.1600
16     C16    -7.7866    6.4601   -4.4615 C.3      1 ZINC000028467935   -0.0100
17     N17    -8.3134    7.1168   -5.6653 N.4      1 ZINC000028467935   -0.3900
18     H18    -8.9217    7.8753   -5.3958 H        1 ZINC000028467935    0.4200
19     C19    -9.0694    6.1424   -6.4640 C.3      1 ZINC000028467935   -0.0400
20     C20    -9.6174    6.8291   -7.7175 C.3      1 ZINC000028467935    0.0400
21     O21    -8.5314    7.3886   -8.4615 O.3      1 ZINC000028467935   -0.3600
22     C22    -7.7494    8.3271   -7.7176 C.3      1 ZINC000028467935    0.0400
23     C23    -7.1980    7.6433   -6.4640 C.3      1 ZINC000028467935   -0.0500
24     C24    -4.7568    4.8351    0.0913 C.ar     1 ZINC000028467935   -0.0200
25     C25    -3.8238    3.8192    0.0742 C.ar     1 ZINC000028467935   -0.1100
26     C26    -2.4606    4.1272    0.0578 C.ar     1 ZINC000028467935    0.0000
27     C27     1.1739    3.3823    0.0028 C.ar     1 ZINC000028467935    0.0100
28     C28     2.3535    4.1306   -0.0107 C.ar     1 ZINC000028467935   -0.1200
29     C29     3.5605    3.4894   -0.0318 C.ar     1 ZINC000028467935   -0.0800
30     C30     3.6318    2.1023   -0.0405 C.ar     1 ZINC000028467935   -0.1200
31     C31     2.4853    1.3379   -0.0280 C.ar     1 ZINC000028467935   -0.0500
32     C32     1.2426    1.9687    0.0008 C.ar     1 ZINC000028467935   -0.1400
33     H33    -2.0087    1.3616    0.0382 H        1 ZINC000028467935    0.4100
34     H34    -0.1667    5.9619    0.9286 H        1 ZINC000028467935    0.1200
35     H35    -0.1916    5.9703   -0.8596 H        1 ZINC000028467935    0.1200
36     H36    -2.6854    7.5029    0.0764 H        1 ZINC000028467935    0.1500
37     H37    -5.6828    8.6860   -1.8186 H        1 ZINC000028467935    0.4200
38     H38    -5.8325    6.0554   -2.6046 H        1 ZINC000028467935    0.0800
39     H39    -7.3765    6.3487   -1.7689 H        1 ZINC000028467935    0.0900
40     H40    -7.8312    8.2611   -3.2804 H        1 ZINC000028467935    0.1000
41     H41    -6.2872    7.9678   -4.1160 H        1 ZINC000028467935    0.1000
42     H42    -7.0615    5.6992   -4.7505 H        1 ZINC000028467935    0.1400
43     H43    -8.6055    5.9925   -3.9148 H        1 ZINC000028467935    0.1400
44     H44    -8.4121    5.3234   -6.7560 H        1 ZINC000028467935    0.1400
45     H45    -9.8972    5.7514   -5.8724 H        1 ZINC000028467935    0.1400
46     H46   -10.1420    6.0984   -8.3330 H        1 ZINC000028467935    0.1400
47     H47   -10.3060    7.6223   -7.4264 H        1 ZINC000028467935    0.0800
48     H48    -6.9222    8.6805   -8.3332 H        1 ZINC000028467935    0.1400
49     H49    -8.3741    9.1716   -7.4265 H        1 ZINC000028467935    0.0800
50     H50    -6.6365    8.3665   -5.8725 H        1 ZINC000028467935    0.1400
51     H51    -6.5414    6.8238   -6.7559 H        1 ZINC000028467935    0.1400
52     H52    -5.8101    4.5971    0.1044 H        1 ZINC000028467935    0.1500
53     H53    -4.1459    2.7884    0.0739 H        1 ZINC000028467935    0.1400
54     H54     2.3120    5.2098   -0.0049 H        1 ZINC000028467935    0.1400
55     H55     4.4714    4.0695   -0.0422 H        1 ZINC000028467935    0.1300
56     H56     4.5967    1.6174   -0.0575 H        1 ZINC000028467935    0.1400
57     H57     2.5491    0.2598   -0.0352 H        1 ZINC000028467935    0.1400
@<TRIPOS>BOND
1     1     2     2
2     2     32    1
3     2     3     am
4     3     4     1
5     3     33    1
6     4     26    1
7     4     5     2
8     5     6     1
9     5     27    1
10    6     7     1
11    6     34    1
12    6     35    1
13    7     26    ar
14    7     8     ar
15    8     9     ar
16    8     36    1
17    9     10    1
18    9     24    ar
19    10    11    2
20    10    12    2
21    10    13    am
22    13    14    1
23    13    37    1
24    14    15    1
25    14    38    1
26    14    39    1
27    15    16    1
28    15    40    1
29    15    41    1
30    16    17    1
31    16    42    1
32    16    43    1
33    17    18    1
34    17    23    1
35    17    19    1
36    19    20    1
37    19    44    1
38    19    45    1
39    20    21    1
40    20    46    1
41    20    47    1
42    21    22    1
43    22    23    1
44    22    48    1
45    22    49    1
46    23    50    1
47    23    51    1
48    24    25    ar
49    24    52    1
50    25    26    ar
51    25    53    1
52    27    32    ar
53    27    28    ar
54    28    29    ar
55    28    54    1
56    29    30    ar
57    29    55    1
58    30    31    ar
59    30    56    1
60    31    32    ar
61    31    57    1
@<TRIPOS>SUBSTRUCTURE
1   ZINC000028467935 1     RESIDUE    1   A     ZIN   1
