@<TRIPOS>MOLECULE
ZINC000028964600
50    53    1     0     0
SMALL
USER_CHARGES
@<TRIPOS>ATOM
1      C1      0.0318    1.5445    0.0054 C.3      1 ZINC000028964600   -0.1400
2      C2      0.0511    0.0146    0.0011 C.3      1 ZINC000028964600   -0.0300
3      C3      0.7994   -0.4895    1.2367 C.3      1 ZINC000028964600   -0.1400
4      C4     -1.3847   -0.5136    0.0236 C.3      1 ZINC000028964600   -0.1500
5      C5      0.7471   -0.4754   -1.2425 C.ar     1 ZINC000028964600   -0.0600
6      C6      0.0693   -1.2714   -2.1465 C.ar     1 ZINC000028964600   -0.1200
7      C7      0.7092   -1.7190   -3.2860 C.ar     1 ZINC000028964600   -0.0800
8      C8      2.0282   -1.3734   -3.5258 C.ar     1 ZINC000028964600   -0.1200
9      C9      2.7064   -0.5772   -2.6214 C.ar     1 ZINC000028964600   -0.0900
10     C10     2.0616   -0.1248   -1.4828 C.ar     1 ZINC000028964600   -0.1100
11     C11     4.1212   -0.3436   -3.1060 C.3      1 ZINC000028964600   -0.0800
12     C12     4.3683   -1.4324   -4.1717 C.3      1 ZINC000028964600   -0.1200
13     C13     2.9412   -1.7287   -4.6797 C.3      1 ZINC000028964600    0.2000
14     H14     2.7125   -1.1099   -5.5474 H        1 ZINC000028964600    0.1100
15     N15     2.8067   -3.1476   -5.0186 N.am     1 ZINC000028964600   -0.7300
16     C16     1.8822   -3.5412   -5.9169 C.2      1 ZINC000028964600    0.7000
17     O17     1.1599   -2.7186   -6.4460 O.2      1 ZINC000028964600   -0.5600
18     N18     1.7585   -4.8465   -6.2287 N.am     1 ZINC000028964600   -0.6800
19     C19     0.7410   -5.2654   -7.0866 C.ar     1 ZINC000028964600    0.2200
20     C20     0.3362   -4.4745   -8.1238 C.ar     1 ZINC000028964600   -0.1600
21     C21    -0.6782   -4.8736   -8.9927 C.ar     1 ZINC000028964600   -0.0500
22     C22    -1.3219   -6.0597   -8.8668 C.ar     1 ZINC000028964600   -0.1200
23     C23    -0.9773   -6.9494   -7.8267 C.ar     1 ZINC000028964600    0.1200
24     N24    -1.3986   -8.1404   -7.4426 N.2      1 ZINC000028964600   -0.3000
25     N25    -0.6679   -8.5400   -6.3175 N.pl3    1 ZINC000028964600   -0.4300
26     C26     0.2216   -7.5923   -5.9901 C.2      1 ZINC000028964600    0.0800
27     C27     0.0936   -6.5598   -6.8959 C.ar     1 ZINC000028964600   -0.2200
28     H28     1.0546    1.9208   -0.0107 H        1 ZINC000028964600    0.0600
29     H29    -0.5014    1.9037   -0.8748 H        1 ZINC000028964600    0.0600
30     H30    -0.4717    1.8990    0.9049 H        1 ZINC000028964600    0.0600
31     H31     0.2960   -0.1350    2.1361 H        1 ZINC000028964600    0.0600
32     H32     0.8132   -1.5794    1.2336 H        1 ZINC000028964600    0.0600
33     H33     1.8223   -0.1132    1.2206 H        1 ZINC000028964600    0.0600
34     H34    -1.9178   -0.1544   -0.8566 H        1 ZINC000028964600    0.0600
35     H35    -1.3709   -1.6035    0.0205 H        1 ZINC000028964600    0.0600
36     H36    -1.8881   -0.1591    0.9231 H        1 ZINC000028964600    0.0600
37     H37    -0.9595   -1.5434   -1.9620 H        1 ZINC000028964600    0.1300
38     H38     0.1788   -2.3409   -3.9920 H        1 ZINC000028964600    0.1200
39     H39     2.5906    0.4972   -0.7759 H        1 ZINC000028964600    0.1200
40     H40     4.2099    0.6477   -3.5505 H        1 ZINC000028964600    0.0900
41     H41     4.8263   -0.4539   -2.2821 H        1 ZINC000028964600    0.0800
42     H42     4.9949   -1.0506   -4.9777 H        1 ZINC000028964600    0.0900
43     H43     4.8118   -2.3208   -3.7223 H        1 ZINC000028964600    0.0800
44     H44     3.3830   -3.8038   -4.5965 H        1 ZINC000028964600    0.4000
45     H45     2.3768   -5.4947   -5.8567 H        1 ZINC000028964600    0.4100
46     H46     0.8130   -3.5172   -8.2741 H        1 ZINC000028964600    0.1400
47     H47    -0.9625   -4.2116   -9.7973 H        1 ZINC000028964600    0.1300
48     H48    -2.1019   -6.3250   -9.5651 H        1 ZINC000028964600    0.1300
49     H49    -0.7875   -9.3785   -5.8449 H        1 ZINC000028964600    0.4400
50     H50     0.9181   -7.6319   -5.1656 H        1 ZINC000028964600    0.1800
@<TRIPOS>BOND
1     1     2     1
2     1     28    1
3     1     29    1
4     1     30    1
5     2     3     1
6     2     4     1
7     2     5     1
8     3     31    1
9     3     32    1
10    3     33    1
11    4     34    1
12    4     35    1
13    4     36    1
14    5     10    ar
15    5     6     ar
16    6     7     ar
17    6     37    1
18    7     8     ar
19    7     38    1
20    8     13    1
21    8     9     ar
22    9     10    ar
23    9     11    1
24    10    39    1
25    11    12    1
26    11    40    1
27    11    41    1
28    12    13    1
29    12    42    1
30    12    43    1
31    13    14    1
32    13    15    1
33    15    16    am
34    15    44    1
35    16    17    2
36    16    18    am
37    18    19    1
38    18    45    1
39    19    27    ar
40    19    20    ar
41    20    21    ar
42    20    46    1
43    21    22    ar
44    21    47    1
45    22    23    ar
46    22    48    1
47    23    27    ar
48    23    24    2
49    24    25    1
50    25    26    1
51    25    49    1
52    26    27    2
53    26    50    1
@<TRIPOS>SUBSTRUCTURE
1   ZINC000028964600 1     RESIDUE    1   A     ZIN   1
