@<TRIPOS>MOLECULE
ZINC000001537190
61    63    1     0     0
SMALL
USER_CHARGES
@<TRIPOS>ATOM
1      C1      1.0927    2.2964    1.8471 C.3      1 ZINC000001537190    0.0200
2      N2      1.1394    0.8282    1.8266 N.3      1 ZINC000001537190   -0.5300
3      C3      1.9429    0.3115    2.9425 C.3      1 ZINC000001537190    0.0600
4      C4      3.4039    0.7248    2.7533 C.3      1 ZINC000001537190   -0.1200
5      C5      4.2408    0.1865    3.9155 C.3      1 ZINC000001537190    0.0600
6      O6      5.6053    0.5725    3.7388 O.3      1 ZINC000001537190   -0.3100
7      C7      6.4888    0.1714    4.6917 C.ar     1 ZINC000001537190    0.1300
8      C8      6.0502   -0.5826    5.7701 C.ar     1 ZINC000001537190   -0.1900
9      C9      6.9468   -0.9907    6.7380 C.ar     1 ZINC000001537190   -0.0900
10     C10     8.2877   -0.6460    6.6314 C.ar     1 ZINC000001537190    0.1000
11     N11     9.1970   -1.0594    7.6115 N.am     1 ZINC000001537190   -1.0600
12     S12    10.6503   -1.7177    7.1677 S.o2     1 ZINC000001537190    2.6100
13     C13    10.2059   -3.2055    6.2301 C.3      1 ZINC000001537190   -0.6700
14     O14    11.2295   -0.7429    6.3112 O.2      1 ZINC000001537190   -0.9500
15     O15    11.2662   -2.0696    8.3990 O.2      1 ZINC000001537190   -0.9500
16     C16     8.7259    0.1090    5.5515 C.ar     1 ZINC000001537190   -0.1100
17     C17     7.8289    0.5118    4.5817 C.ar     1 ZINC000001537190   -0.1300
18     C18    -0.2144    0.2582    1.8444 C.3      1 ZINC000001537190    0.1000
19     C19    -0.9254    0.6122    0.5637 C.ar     1 ZINC000001537190    0.1700
20     C20    -0.9156   -0.2978   -0.4908 C.ar     1 ZINC000001537190   -0.1500
21     C21    -1.5553    0.0061   -1.6589 C.ar     1 ZINC000001537190   -0.0600
22     C22    -2.2109    1.2482   -1.7537 C.ar     1 ZINC000001537190   -0.0900
23     C23    -2.8888    1.6272   -2.9225 C.ar     1 ZINC000001537190   -0.1100
24     C24    -3.5180    2.8518   -2.9740 C.ar     1 ZINC000001537190    0.1400
25     N25    -4.1945    3.2342   -4.1343 N.am     1 ZINC000001537190   -1.0600
26     S26    -5.7116    3.8899   -4.0301 S.o2     1 ZINC000001537190    2.6100
27     C27    -6.7155    2.5884   -3.2625 C.3      1 ZINC000001537190   -0.6700
28     O28    -5.5580    4.9895   -3.1432 O.2      1 ZINC000001537190   -0.9500
29     O29    -6.1013    4.0881   -5.3822 O.2      1 ZINC000001537190   -0.9500
30     C30    -3.4853    3.7160   -1.8727 C.ar     1 ZINC000001537190   -0.1400
31     C31    -2.8351    3.3701   -0.7307 C.ar     1 ZINC000001537190   -0.0700
32     C32    -2.1816    2.1276   -0.6424 C.ar     1 ZINC000001537190    0.1200
33     N33    -1.5411    1.7661    0.4738 N.ar     1 ZINC000001537190   -0.4600
34     H34     2.1044    2.6932    1.7625 H        1 ZINC000001537190    0.0700
35     H35     0.4916    2.6525    1.0104 H        1 ZINC000001537190    0.0800
36     H36     0.6476    2.6327    2.7834 H        1 ZINC000001537190    0.0300
37     H37     1.5680    0.7211    3.8804 H        1 ZINC000001537190    0.0400
38     H38     1.8733   -0.7760    2.9673 H        1 ZINC000001537190    0.0800
39     H39     3.7788    0.3151    1.8153 H        1 ZINC000001537190    0.0800
40     H40     3.4735    1.8122    2.7284 H        1 ZINC000001537190    0.0800
41     H41     3.8659    0.5961    4.8534 H        1 ZINC000001537190    0.0600
42     H42     4.1711   -0.9010    3.9403 H        1 ZINC000001537190    0.0600
43     H43     5.0072   -0.8504    5.8530 H        1 ZINC000001537190    0.1300
44     H44     6.6051   -1.5776    7.5778 H        1 ZINC000001537190    0.1300
45     H45     8.9760   -0.9605    8.5508 H        1 ZINC000001537190    0.4300
46     H46     9.6823   -2.9176    5.3184 H        1 ZINC000001537190    0.1300
47     H47    11.1106   -3.7556    5.9711 H        1 ZINC000001537190    0.1300
48     H48     9.5577   -3.8375    6.8372 H        1 ZINC000001537190    0.1300
49     H49     9.7686    0.3776    5.4678 H        1 ZINC000001537190    0.1600
50     H50     8.1696    1.0986    3.7415 H        1 ZINC000001537190    0.1400
51     H51    -0.1509   -0.8260    1.9370 H        1 ZINC000001537190    0.0900
52     H52    -0.7681    0.6634    2.6913 H        1 ZINC000001537190    0.0600
53     H53    -0.4027   -1.2423   -0.3852 H        1 ZINC000001537190    0.1400
54     H54    -1.5577   -0.6873   -2.4870 H        1 ZINC000001537190    0.1400
55     H55    -2.9167    0.9645   -3.7749 H        1 ZINC000001537190    0.1400
56     H56    -3.7758    3.1158   -5.0012 H        1 ZINC000001537190    0.4300
57     H57    -6.3632    2.4095   -2.2467 H        1 ZINC000001537190    0.1300
58     H58    -7.7588    2.9028   -3.2352 H        1 ZINC000001537190    0.1300
59     H59    -6.6276    1.6710   -3.8445 H        1 ZINC000001537190    0.1300
60     H60    -3.9841    4.6721   -1.9320 H        1 ZINC000001537190    0.1700
61     H61    -2.8198    4.0492    0.1089 H        1 ZINC000001537190    0.1400
@<TRIPOS>BOND
1     1     2     1
2     1     34    1
3     1     35    1
4     1     36    1
5     2     3     1
6     2     18    1
7     3     4     1
8     3     37    1
9     3     38    1
10    4     5     1
11    4     39    1
12    4     40    1
13    5     6     1
14    5     41    1
15    5     42    1
16    6     7     1
17    7     17    ar
18    7     8     ar
19    8     9     ar
20    8     43    1
21    9     10    ar
22    9     44    1
23    10    11    1
24    10    16    ar
25    11    12    am
26    11    45    1
27    12    13    1
28    12    14    2
29    12    15    2
30    13    46    1
31    13    47    1
32    13    48    1
33    16    17    ar
34    16    49    1
35    17    50    1
36    18    19    1
37    18    51    1
38    18    52    1
39    19    33    ar
40    19    20    ar
41    20    21    ar
42    20    53    1
43    21    22    ar
44    21    54    1
45    22    32    ar
46    22    23    ar
47    23    24    ar
48    23    55    1
49    24    25    1
50    24    30    ar
51    25    26    am
52    25    56    1
53    26    27    1
54    26    28    2
55    26    29    2
56    27    57    1
57    27    58    1
58    27    59    1
59    30    31    ar
60    30    60    1
61    31    32    ar
62    31    61    1
63    32    33    ar
@<TRIPOS>SUBSTRUCTURE
1   ZINC000001537190 1     RESIDUE    1   A     ZIN   1
