@<TRIPOS>MOLECULE
ZINC000036372460
70    73    1     0     0
SMALL
USER_CHARGES
@<TRIPOS>ATOM
1      C1     -1.9825    1.7113   -3.1569 C.3      1 ZINC000036372460   -0.1500
2      C2     -1.5447    0.3901   -2.5215 C.3      1 ZINC000036372460   -0.1200
3      C3     -2.7807   -0.4099   -2.1052 C.3      1 ZINC000036372460   -0.1100
4      C4     -2.3429   -1.7310   -1.4698 C.3      1 ZINC000036372460   -0.1100
5      C5     -3.5603   -2.5190   -1.0598 C.2      1 ZINC000036372460    0.4500
6      O6     -4.6648   -2.0699   -1.2558 O.2      1 ZINC000036372460   -0.4900
7      O7     -3.4177   -3.7197   -0.4770 O.3      1 ZINC000036372460   -0.3400
8      C8     -4.6329   -4.4568   -0.1799 C.3      1 ZINC000036372460    0.1000
9      C9     -5.4774   -3.6932    0.8074 C.2      1 ZINC000036372460    0.3600
10     O10    -6.6818   -3.7267    0.7247 O.2      1 ZINC000036372460   -0.4000
11     C11    -4.8191   -2.8878    1.8978 C.3      1 ZINC000036372460    0.0300
12     O12    -5.8173   -2.1810    2.6367 O.3      1 ZINC000036372460   -0.5500
13     C13    -5.4315   -4.7213   -1.4805 C.3      1 ZINC000036372460   -0.1300
14     C14    -5.4469   -6.2615   -1.6794 C.3      1 ZINC000036372460   -0.1200
15     C15    -4.2093   -6.7201   -0.8999 C.3      1 ZINC000036372460   -0.0800
16     H16    -3.3031   -6.4922   -1.4612 H        1 ZINC000036372460    0.0800
17     C17    -4.2086   -8.1780   -0.4687 C.3      1 ZINC000036372460   -0.0700
18     H18    -5.0977   -8.3784    0.1291 H        1 ZINC000036372460    0.0900
19     C19    -4.2283   -9.0570   -1.7146 C.3      1 ZINC000036372460   -0.1100
20     C20    -3.6038  -10.4241   -1.4666 C.3      1 ZINC000036372460   -0.1000
21     C21    -3.6991  -10.7533    0.0031 C.2      1 ZINC000036372460   -0.0200
22     C22    -4.3744  -11.8207    0.4154 C.2      1 ZINC000036372460   -0.2400
23     C23    -4.4818  -12.1417    1.8372 C.2      1 ZINC000036372460    0.3900
24     O24    -5.0851  -13.1328    2.1921 O.2      1 ZINC000036372460   -0.4700
25     C25    -3.8414  -11.2401    2.8629 C.3      1 ZINC000036372460   -0.1800
26     C26    -3.7782   -9.8160    2.3005 C.3      1 ZINC000036372460   -0.1000
27     C27    -3.0075   -9.8380    0.9790 C.3      1 ZINC000036372460   -0.0300
28     C28    -1.5821  -10.3362    1.2261 C.3      1 ZINC000036372460   -0.1400
29     C29    -2.9609   -8.4244    0.3803 C.3      1 ZINC000036372460   -0.0600
30     H30    -2.0774   -8.3359   -0.2520 H        1 ZINC000036372460    0.0900
31     C31    -2.8469   -7.4323    1.5365 C.3      1 ZINC000036372460    0.1100
32     H32    -1.8822   -7.5695    2.0251 H        1 ZINC000036372460    0.0600
33     O33    -3.8853   -7.7011    2.4806 O.3      1 ZINC000036372460   -0.5400
34     C34    -2.9656   -5.9747    1.0724 C.3      1 ZINC000036372460   -0.1300
35     C35    -4.2918   -5.8375    0.3730 C.3      1 ZINC000036372460   -0.0400
36     C36    -5.4152   -6.3431    1.2803 C.3      1 ZINC000036372460   -0.1600
37     H37    -1.1020    2.2812   -3.4534 H        1 ZINC000036372460    0.0600
38     H38    -2.5955    1.5068   -4.0347 H        1 ZINC000036372460    0.0600
39     H39    -2.5620    2.2871   -2.4352 H        1 ZINC000036372460    0.0600
40     H40    -0.9653   -0.1857   -3.2431 H        1 ZINC000036372460    0.0600
41     H41    -0.9317    0.5947   -1.6437 H        1 ZINC000036372460    0.0600
42     H42    -3.3601    0.1660   -1.3836 H        1 ZINC000036372460    0.0700
43     H43    -3.3937   -0.6144   -2.9830 H        1 ZINC000036372460    0.0700
44     H44    -1.7635   -2.3069   -2.1915 H        1 ZINC000036372460    0.1100
45     H45    -1.7299   -1.5265   -0.5920 H        1 ZINC000036372460    0.1100
46     H46    -4.2773   -3.5564    2.5667 H        1 ZINC000036372460    0.0800
47     H47    -4.1234   -2.1757    1.4539 H        1 ZINC000036372460    0.0700
48     H48    -5.4646   -1.6401    3.3565 H        1 ZINC000036372460    0.3900
49     H49    -6.4501   -4.3472   -1.3767 H        1 ZINC000036372460    0.0900
50     H50    -4.9400   -4.2398   -2.3258 H        1 ZINC000036372460    0.0800
51     H51    -6.3524   -6.6961   -1.2558 H        1 ZINC000036372460    0.0800
52     H52    -5.3536   -6.5150   -2.7353 H        1 ZINC000036372460    0.0700
53     H53    -5.2613   -9.1932   -2.0348 H        1 ZINC000036372460    0.0700
54     H54    -3.6768   -8.5555   -2.5099 H        1 ZINC000036372460    0.0700
55     H55    -4.1377  -11.1787   -2.0442 H        1 ZINC000036372460    0.0800
56     H56    -2.5566  -10.4064   -1.7687 H        1 ZINC000036372460    0.0800
57     H57    -4.8511  -12.4614   -0.3117 H        1 ZINC000036372460    0.1300
58     H58    -4.4363  -11.2458    3.7763 H        1 ZINC000036372460    0.0900
59     H59    -2.8329  -11.5922    3.0797 H        1 ZINC000036372460    0.1000
60     H60    -4.7890   -9.4467    2.1276 H        1 ZINC000036372460    0.0800
61     H61    -3.2668   -9.1657    3.0103 H        1 ZINC000036372460    0.1200
62     H62    -1.6163  -11.3428    1.6429 H        1 ZINC000036372460    0.0600
63     H63    -1.0341  -10.3515    0.2841 H        1 ZINC000036372460    0.0600
64     H64    -1.0806   -9.6694    1.9275 H        1 ZINC000036372460    0.0600
65     H65    -3.8819   -7.1120    3.2475 H        1 ZINC000036372460    0.3600
66     H66    -2.9406   -5.3065    1.9332 H        1 ZINC000036372460    0.0700
67     H67    -2.1514   -5.7339    0.3889 H        1 ZINC000036372460    0.0900
68     H68    -5.3141   -5.8941    2.2684 H        1 ZINC000036372460    0.0500
69     H69    -6.3793   -6.0673    0.8529 H        1 ZINC000036372460    0.0500
70     H70    -5.3527   -7.4279    1.3659 H        1 ZINC000036372460    0.1200
@<TRIPOS>BOND
1     1     2     1
2     1     37    1
3     1     38    1
4     1     39    1
5     2     3     1
6     2     40    1
7     2     41    1
8     3     4     1
9     3     42    1
10    3     43    1
11    4     5     1
12    4     44    1
13    4     45    1
14    5     6     2
15    5     7     1
16    7     8     1
17    8     35    1
18    8     9     1
19    8     13    1
20    9     10    2
21    9     11    1
22    11    12    1
23    11    46    1
24    11    47    1
25    12    48    1
26    13    14    1
27    13    49    1
28    13    50    1
29    14    15    1
30    14    51    1
31    14    52    1
32    15    16    1
33    15    35    1
34    15    17    1
35    17    18    1
36    17    29    1
37    17    19    1
38    19    20    1
39    19    53    1
40    19    54    1
41    20    21    1
42    20    55    1
43    20    56    1
44    21    27    1
45    21    22    2
46    22    23    1
47    22    57    1
48    23    24    2
49    23    25    1
50    25    26    1
51    25    58    1
52    25    59    1
53    26    27    1
54    26    60    1
55    26    61    1
56    27    28    1
57    27    29    1
58    28    62    1
59    28    63    1
60    28    64    1
61    29    30    1
62    29    31    1
63    31    32    1
64    31    33    1
65    31    34    1
66    33    65    1
67    34    35    1
68    34    66    1
69    34    67    1
70    35    36    1
71    36    68    1
72    36    69    1
73    36    70    1
@<TRIPOS>SUBSTRUCTURE
1   ZINC000036372460 1     RESIDUE    1   A     ZIN   1
