@<TRIPOS>MOLECULE
ZINC000001619592
55    59    1     0     0
SMALL
USER_CHARGES
@<TRIPOS>ATOM
1      C1     -0.0173    1.4248    0.0099 C.3      1 ZINC000001619592    0.0300
2      O2      0.0021   -0.0041    0.0020 O.3      1 ZINC000001619592   -0.3700
3      C3     -1.2953   -0.6030    0.0112 C.3      1 ZINC000001619592    0.0400
4      C4     -1.1538   -2.1267    0.0017 C.3      1 ZINC000001619592    0.1400
5      H5     -0.5485   -2.4342   -0.8367 H        1 ZINC000001619592    0.1300
6      O6     -0.4633   -2.4906    1.2231 O.3      1 ZINC000001619592   -0.3400
7      C7     -1.1074   -2.9243    2.3405 C.2      1 ZINC000001619592    0.5700
8      O8     -0.5614   -3.6039    3.1839 O.2      1 ZINC000001619592   -0.4300
9      C9     -2.5201   -2.5075    2.4412 C.2      1 ZINC000001619592   -0.2700
10     C10    -3.4262   -2.1628    3.3824 C.2      1 ZINC000001619592    0.1000
11     O11    -4.5929   -1.8498    2.7631 O.3      1 ZINC000001619592   -0.1300
12     C12    -4.4517   -1.9555    1.4411 C.2      1 ZINC000001619592   -0.0500
13     C13    -3.2058   -2.3997    1.1983 C.2      1 ZINC000001619592   -0.1300
14     C14    -2.5439   -2.7446   -0.1052 C.3      1 ZINC000001619592    0.0000
15     C15    -2.4103   -4.2701   -0.1995 C.3      1 ZINC000001619592   -0.1500
16     C16    -3.3856   -2.2444   -1.2553 C.2      1 ZINC000001619592   -0.0200
17     C17    -4.6215   -1.7631   -1.0565 C.2      1 ZINC000001619592   -0.1100
18     C18    -5.2966   -1.6996    0.2675 C.2      1 ZINC000001619592    0.4800
19     O19    -6.4852   -1.4503    0.3846 O.2      1 ZINC000001619592   -0.4000
20     C20    -5.3945   -1.2378   -2.2229 C.3      1 ZINC000001619592   -0.0500
21     H21    -5.0789   -0.2115   -2.4337 H        1 ZINC000001619592    0.1100
22     C22    -6.9198   -1.2966   -2.1408 C.3      1 ZINC000001619592   -0.1000
23     C23    -7.3468   -1.2566   -3.6343 C.3      1 ZINC000001619592   -0.1800
24     C24    -6.1243   -1.6607   -4.4517 C.2      1 ZINC000001619592    0.3900
25     O25    -5.9910   -1.6095   -5.6493 O.2      1 ZINC000001619592   -0.4300
26     C26    -5.1091   -2.1373   -3.4491 C.3      1 ZINC000001619592   -0.1200
27     C27    -5.3662   -3.6095   -3.1327 C.3      1 ZINC000001619592   -0.1400
28     C28    -3.6546   -1.9067   -3.7936 C.3      1 ZINC000001619592   -0.1200
29     C29    -2.7844   -2.3855   -2.6343 C.3      1 ZINC000001619592    0.1200
30     H30    -2.5522   -3.4429   -2.8039 H        1 ZINC000001619592    0.1100
31     O31    -1.5312   -1.6526   -2.7022 O.3      1 ZINC000001619592   -0.3500
32     C32    -0.5443   -2.1991   -3.4297 C.2      1 ZINC000001619592    0.4600
33     C33     0.7837   -1.4965   -3.5462 C.3      1 ZINC000001619592   -0.1500
34     O34    -0.7208   -3.2544   -3.9911 O.2      1 ZINC000001619592   -0.5000
35     H35     1.0053    1.8021    0.0021 H        1 ZINC000001619592    0.0900
36     H36    -0.5445    1.7859   -0.8732 H        1 ZINC000001619592    0.0400
37     H37    -0.5275    1.7763    0.9067 H        1 ZINC000001619592    0.0400
38     H38    -1.8320   -0.2936    0.9080 H        1 ZINC000001619592    0.0500
39     H39    -1.8490   -0.2840   -0.8718 H        1 ZINC000001619592    0.0800
40     H40    -3.2530   -2.1359    4.4481 H        1 ZINC000001619592    0.2300
41     H41    -3.3998   -4.7250   -0.1547 H        1 ZINC000001619592    0.0800
42     H42    -1.9309   -4.5353   -1.1419 H        1 ZINC000001619592    0.0800
43     H43    -1.8052   -4.6339    0.6309 H        1 ZINC000001619592    0.0700
44     H44    -7.2594   -2.2142   -1.6622 H        1 ZINC000001619592    0.0900
45     H45    -7.3111   -0.4264   -1.6079 H        1 ZINC000001619592    0.0900
46     H46    -8.1628   -1.9578   -3.8092 H        1 ZINC000001619592    0.1100
47     H47    -7.6613   -0.2476   -3.9054 H        1 ZINC000001619592    0.1000
48     H48    -5.2558   -4.2011   -4.0415 H        1 ZINC000001619592    0.0700
49     H49    -4.6485   -3.9516   -2.3871 H        1 ZINC000001619592    0.0700
50     H50    -6.3778   -3.7263   -2.7438 H        1 ZINC000001619592    0.0700
51     H51    -3.3966   -2.4597   -4.7006 H        1 ZINC000001619592    0.0900
52     H52    -3.4799   -0.8409   -3.9679 H        1 ZINC000001619592    0.0900
53     H53     1.4411   -1.8264   -2.7417 H        1 ZINC000001619592    0.1100
54     H54     1.2381   -1.7354   -4.5077 H        1 ZINC000001619592    0.1100
55     H55     0.6326   -0.4195   -3.4733 H        1 ZINC000001619592    0.1000
@<TRIPOS>BOND
1     1     2     1
2     1     35    1
3     1     36    1
4     1     37    1
5     2     3     1
6     3     4     1
7     3     38    1
8     3     39    1
9     4     5     1
10    4     14    1
11    4     6     1
12    6     7     1
13    7     8     2
14    7     9     1
15    9     13    1
16    9     10    2
17    10    11    1
18    10    40    1
19    11    12    1
20    12    18    1
21    12    13    2
22    13    14    1
23    14    15    1
24    14    16    1
25    15    41    1
26    15    42    1
27    15    43    1
28    16    29    1
29    16    17    2
30    17    18    1
31    17    20    1
32    18    19    2
33    20    21    1
34    20    26    1
35    20    22    1
36    22    23    1
37    22    44    1
38    22    45    1
39    23    24    1
40    23    46    1
41    23    47    1
42    24    25    2
43    24    26    1
44    26    27    1
45    26    28    1
46    27    48    1
47    27    49    1
48    27    50    1
49    28    29    1
50    28    51    1
51    28    52    1
52    29    30    1
53    29    31    1
54    31    32    1
55    32    33    1
56    32    34    2
57    33    53    1
58    33    54    1
59    33    55    1
@<TRIPOS>SUBSTRUCTURE
1   ZINC000001619592 1     RESIDUE    1   A     ZIN   1
