@<TRIPOS>MOLECULE
ZINC000118893170
  29   30    0    0    0
SMALL
NO_CHARGES
@<TRIPOS>ATOM
   1 O1             0.6860    -0.5052    -1.1483 O.3     
   2 C2             0.0021    -0.0041     0.0020 C.3     
   3 C3            -1.4333    -0.5336     0.0129 C.3     
   4 H4            -1.4290    -1.6236     0.0195 H       
   5 C5            -2.1817    -0.0022     1.2464 C.3     
   6 H6            -2.2651    -0.7835     2.0018 H       
   7 O7            -1.5020     1.1337     1.7848 O.3     
   8 C8            -3.5785     0.4014     0.7425 C.3     
   9 H9            -3.7470     1.4646     0.9137 H       
  10 O10           -4.5829    -0.3690     1.4056 O.3     
  11 C11           -3.5859     0.0992    -0.7668 C.3     
  12 H12           -4.1548    -0.8029    -0.9918 H       
  13 C13           -4.1524     1.3259    -1.5096 C.3     
  14 H14           -4.5352     2.0560    -0.7964 H       
  15 O15           -5.1866     0.9254    -2.4107 O.3     
  16 C16           -2.9569     1.9164    -2.2913 C.3     
  17 H17           -2.9619     1.5685    -3.3243 H       
  18 O18           -2.9756     3.3444    -2.2408 O.3     
  19 C19           -1.7307     1.3529    -1.5288 C.3     
  20 N20           -2.1626    -0.0391    -1.1668 N.3     
  21 H21            1.6038    -0.2093    -1.2201 H       
  22 H22            0.5179    -0.3340     0.9038 H       
  23 H23           -0.0128     1.0854    -0.0301 H       
  24 H24           -1.9279     1.5132     2.5656 H       
  25 H25           -4.6055    -0.2441     2.3642 H       
  26 H26           -5.5810     1.6559    -2.9065 H       
  27 H27           -2.2458     3.7644    -2.7163 H       
  28 H28           -0.8542     1.3244    -2.1761 H       
  29 H29           -1.5305     1.9407    -0.6329 H       
@<TRIPOS>BOND
   1    1    2 1
   2    1   21 1
   3    2    3 1
   4    2   22 1
   5    2   23 1
   6    3    4 1
   7    3   20 1
   8    3    5 1
   9    5    6 1
  10    5    7 1
  11    5    8 1
  12    7   24 1
  13    8    9 1
  14    8   10 1
  15    8   11 1
  16   10   25 1
  17   11   12 1
  18   11   20 1
  19   11   13 1
  20   13   14 1
  21   13   15 1
  22   13   16 1
  23   15   26 1
  24   16   17 1
  25   16   18 1
  26   16   19 1
  27   18   27 1
  28   19   20 1
  29   19   28 1
  30   19   29 1
