@<TRIPOS>MOLECULE
ZINC000038471398
68    71    1     0     0
SMALL
USER_CHARGES
@<TRIPOS>ATOM
1      C1     -0.0410    1.4794    0.0498 C.3      1 ZINC000038471398   -0.1200
2      C2     -0.0281   -0.0274    0.0276 C.ar     1 ZINC000038471398   -0.0700
3      C3     -0.0065   -0.6977   -1.1777 C.ar     1 ZINC000038471398   -0.0700
4      C4      0.0054   -2.0936   -1.1964 C.ar     1 ZINC000038471398   -0.1200
5      C5      0.0291   -2.8185   -2.4843 C.2      1 ZINC000038471398    0.5700
6      O6     -0.5691   -2.3725   -3.4440 O.2      1 ZINC000038471398   -0.5200
7      N7      0.7139   -3.9741   -2.5947 N.am     1 ZINC000038471398   -0.5600
8      C8      0.8292   -4.6666   -3.8879 C.3      1 ZINC000038471398    0.1200
9      C9     -0.2213   -5.7456   -4.0048 C.3      1 ZINC000038471398   -0.1400
10     C10    -0.0589   -6.8676   -2.9884 C.3      1 ZINC000038471398   -0.1100
11     C11    -0.3750   -6.3821   -1.5770 C.3      1 ZINC000038471398   -0.0800
12     C12     0.8685   -5.7519   -0.9768 C.ar     1 ZINC000038471398   -0.0900
13     C13     1.5207   -6.3706    0.0688 C.ar     1 ZINC000038471398   -0.1100
14     C14     2.6396   -5.7760    0.6269 C.ar     1 ZINC000038471398   -0.1100
15     C15     3.0984   -4.5659    0.1401 C.ar     1 ZINC000038471398   -0.1100
16     C16     2.4507   -3.9489   -0.9133 C.ar     1 ZINC000038471398   -0.1100
17     C17     1.3417   -4.5491   -1.4842 C.ar     1 ZINC000038471398    0.1300
18     C18    -0.0046   -2.8016    0.0064 C.ar     1 ZINC000038471398   -0.0900
19     C19    -0.0263   -2.1187    1.2051 C.ar     1 ZINC000038471398   -0.1000
20     C20    -0.0323   -0.7354    1.2166 C.ar     1 ZINC000038471398   -0.0900
21     C21    -0.0560    0.0038    2.5297 C.3      1 ZINC000038471398    0.1800
22     N22    -1.4228    0.4465    2.8163 N.am     1 ZINC000038471398   -0.7400
23     C23    -1.6859    1.1327    3.9460 C.2      1 ZINC000038471398    0.7300
24     O24    -0.7890    1.3842    4.7274 O.2      1 ZINC000038471398   -0.5800
25     N25    -2.9433    1.5400    4.2097 N.am     1 ZINC000038471398   -0.6200
26     C26    -4.1212    1.2990    3.3565 C.3      1 ZINC000038471398    0.1000
27     C27    -5.3315    1.3773    4.3202 C.3      1 ZINC000038471398   -0.1300
28     C28    -4.8914    2.5130    5.2814 C.3      1 ZINC000038471398   -0.1200
29     C29    -3.3686    2.2928    5.3988 C.3      1 ZINC000038471398    0.1400
30     H30    -2.8559    3.2544    5.4255 H        1 ZINC000038471398    0.1000
31     C31    -3.0585    1.5121    6.6499 C.2      1 ZINC000038471398    0.5100
32     O32    -2.8429    0.3205    6.5833 O.2      1 ZINC000038471398   -0.5200
33     N33    -3.0209    2.1381    7.8429 N.am     1 ZINC000038471398   -0.6200
34     C34    -2.7195    1.3791    9.0592 C.3      1 ZINC000038471398    0.0900
35     C35    -3.2814    3.5775    7.9234 C.3      1 ZINC000038471398    0.0700
36     H36     0.9834    1.8514    0.0639 H        1 ZINC000038471398    0.0800
37     H37    -0.5505    1.8515   -0.8391 H        1 ZINC000038471398    0.0700
38     H38    -0.5654    1.8252    0.9406 H        1 ZINC000038471398    0.0700
39     H39     0.0008   -0.1439   -2.1049 H        1 ZINC000038471398    0.1300
40     H40     0.6974   -3.9464   -4.6954 H        1 ZINC000038471398    0.0900
41     H41     1.8186   -5.1168   -3.9686 H        1 ZINC000038471398    0.0800
42     H42    -1.2033   -5.2922   -3.8696 H        1 ZINC000038471398    0.0700
43     H43    -0.1725   -6.1727   -5.0064 H        1 ZINC000038471398    0.0800
44     H44    -0.7347   -7.6833   -3.2455 H        1 ZINC000038471398    0.0700
45     H45     0.9679   -7.2321   -3.0195 H        1 ZINC000038471398    0.0700
46     H46    -1.1750   -5.6429   -1.6167 H        1 ZINC000038471398    0.0700
47     H47    -0.6880   -7.2265   -0.9629 H        1 ZINC000038471398    0.0800
48     H48     1.1603   -7.3143    0.4508 H        1 ZINC000038471398    0.1300
49     H49     3.1549   -6.2582    1.4444 H        1 ZINC000038471398    0.1300
50     H50     3.9659   -4.1011    0.5849 H        1 ZINC000038471398    0.1300
51     H51     2.8088   -3.0029   -1.2917 H        1 ZINC000038471398    0.1200
52     H52     0.0042   -3.8815   -0.0012 H        1 ZINC000038471398    0.1400
53     H53    -0.0344   -2.6653    2.1365 H        1 ZINC000038471398    0.1300
54     H54     0.2859   -0.6581    3.3254 H        1 ZINC000038471398    0.0800
55     H55     0.6019    0.8708    2.4705 H        1 ZINC000038471398    0.0800
56     H56    -2.1383    0.2459    2.1929 H        1 ZINC000038471398    0.4000
57     H57    -4.1973    2.0687    2.5886 H        1 ZINC000038471398    0.0700
58     H58    -4.0631    0.3109    2.9000 H        1 ZINC000038471398    0.0800
59     H59    -6.2407    1.6496    3.7842 H        1 ZINC000038471398    0.0900
60     H60    -5.4635    0.4389    4.8588 H        1 ZINC000038471398    0.0800
61     H61    -5.1114    3.4898    4.8506 H        1 ZINC000038471398    0.0900
62     H62    -5.3708    2.4025    6.2540 H        1 ZINC000038471398    0.0900
63     H63    -1.6430    1.3795    9.2303 H        1 ZINC000038471398    0.0500
64     H64    -3.2226    1.8401    9.9092 H        1 ZINC000038471398    0.0700
65     H65    -3.0686    0.3531    8.9431 H        1 ZINC000038471398    0.0800
66     H66    -3.4846    3.9663    6.9256 H        1 ZINC000038471398    0.0800
67     H67    -4.1442    3.7553    8.5653 H        1 ZINC000038471398    0.0700
68     H68    -2.4091    4.0819    8.3391 H        1 ZINC000038471398    0.0600
@<TRIPOS>BOND
1     1     2     1
2     1     36    1
3     1     37    1
4     1     38    1
5     2     20    ar
6     2     3     ar
7     3     4     ar
8     3     39    1
9     4     5     1
10    4     18    ar
11    5     6     2
12    5     7     am
13    7     17    1
14    7     8     1
15    8     9     1
16    8     40    1
17    8     41    1
18    9     10    1
19    9     42    1
20    9     43    1
21    10    11    1
22    10    44    1
23    10    45    1
24    11    12    1
25    11    46    1
26    11    47    1
27    12    17    ar
28    12    13    ar
29    13    14    ar
30    13    48    1
31    14    15    ar
32    14    49    1
33    15    16    ar
34    15    50    1
35    16    17    ar
36    16    51    1
37    18    19    ar
38    18    52    1
39    19    20    ar
40    19    53    1
41    20    21    1
42    21    22    1
43    21    54    1
44    21    55    1
45    22    23    am
46    22    56    1
47    23    24    2
48    23    25    am
49    25    29    1
50    25    26    1
51    26    27    1
52    26    57    1
53    26    58    1
54    27    28    1
55    27    59    1
56    27    60    1
57    28    29    1
58    28    61    1
59    28    62    1
60    29    30    1
61    29    31    1
62    31    32    2
63    31    33    am
64    33    34    1
65    33    35    1
66    34    63    1
67    34    64    1
68    34    65    1
69    35    66    1
70    35    67    1
71    35    68    1
@<TRIPOS>SUBSTRUCTURE
1   ZINC000038471398 1     RESIDUE    1   A     ZIN   1
