@<TRIPOS>MOLECULE
ZINC000003952389
  41   44    0    0    0
SMALL
USER_CHARGES
NO_NAME
@<TRIPOS>ATOM
    1 O1        0.0021    -0.0041     0.0020 O.2    1 <0>      -0.5000
    2 C2       -0.0144     1.2087     0.0087 C.2    1 <0>       0.5300
    3 C3       -1.2443     2.0912     0.0318 C.3    1 <0>      -0.1000
    4 C4       -0.6886     3.4966     0.0323 C.ar   1 <0>      -0.1400
    5 C5        0.6938     3.3712     0.0109 C.ar   1 <0>       0.1500
    6 C6        1.4775     4.5233     0.0058 C.ar   1 <0>      -0.1300
    7 C7        0.8828     5.7683     0.0212 C.ar   1 <0>      -0.0800
    8 C8       -0.4987     5.8867     0.0433 C.ar   1 <0>       0.0300
    9 C9       -1.2883     4.7416     0.0504 C.ar   1 <0>       0.1100
   10 O10      -2.6461     4.8342     0.0805 O.3    1 <0>      -0.2800
   11 C11      -3.2138     6.0986    -0.2780 C.3    1 <0>       0.0500
   12 H12      -3.1311     6.2466    -1.3547 H      1 <0>       0.0900
   13 C13      -4.6860     6.1392     0.1366 C.3    1 <0>       0.0700
   14 N14      -5.4175     5.0653    -0.5485 N.3    1 <0>      -0.6800
   15 C15      -6.8378     5.0735    -0.1737 C.3    1 <0>       0.1000
   16 C16      -7.5540     3.9606    -0.8946 C.ar   1 <0>      -0.0900
   17 C17      -8.1135     4.1899    -2.1377 C.ar   1 <0>      -0.1100
   18 C18      -8.7704     3.1691    -2.7989 C.ar   1 <0>      -0.1200
   19 C19      -8.8676     1.9189    -2.2172 C.ar   1 <0>      -0.1200
   20 C20      -8.3074     1.6893    -0.9745 C.ar   1 <0>      -0.1200
   21 C21      -7.6467     2.7090    -0.3152 C.ar   1 <0>      -0.1000
   22 C22      -2.4378     7.2000     0.4568 C.3    1 <0>       0.0300
   23 O23      -1.0654     7.1245     0.0553 O.3    1 <0>      -0.3000
   24 N24       1.0557     2.0215     0.0028 N.am   1 <0>      -0.6600
   25 H25      -1.8528     1.9215    -0.8564 H      1 <0>       0.1300
   26 H26      -1.8269     1.9107     0.9352 H      1 <0>       0.1300
   27 H27       2.5542     4.4415    -0.0098 H      1 <0>       0.1400
   28 H28       1.4973     6.6565     0.0162 H      1 <0>       0.1400
   29 H29      -4.7637     6.0011     1.2151 H      1 <0>       0.0900
   30 H30      -5.1143     7.1032    -0.1380 H      1 <0>       0.0600
   31 H31      -5.3072     5.1339    -1.5491 H      1 <0>       0.3400
   32 H32      -6.9304     4.9280     0.9025 H      1 <0>       0.0800
   33 H33      -7.2811     6.0301    -0.4505 H      1 <0>       0.0400
   34 H34      -8.0376     5.1667    -2.5922 H      1 <0>       0.1200
   35 H35      -9.2081     3.3485    -3.7698 H      1 <0>       0.1200
   36 H36      -9.3815     1.1215    -2.7335 H      1 <0>       0.1200
   37 H37      -8.3835     0.7127    -0.5199 H      1 <0>       0.1200
   38 H38      -7.2090     2.5297     0.6557 H      1 <0>       0.1200
   39 H39      -2.8450     8.1758     0.1922 H      1 <0>       0.1200
   40 H40      -2.5150     7.0485     1.5335 H      1 <0>       0.0800
   41 H41       1.9733     1.7075    -0.0115 H      1 <0>       0.4200
@<TRIPOS>BOND
   1    1    2 2
   2    2   24 am
   3    2    3 1
   4    3    4 1
   5    3   25 1
   6    3   26 1
   7    4    9 ar
   8    4    5 ar
   9    5    6 ar
  10    5   24 1
  11    6    7 ar
  12    6   27 1
  13    7    8 ar
  14    7   28 1
  15    8   23 1
  16    8    9 ar
  17    9   10 1
  18   10   11 1
  19   11   12 1
  20   11   13 1
  21   11   22 1
  22   13   14 1
  23   13   29 1
  24   13   30 1
  25   14   15 1
  26   14   31 1
  27   15   16 1
  28   15   32 1
  29   15   33 1
  30   16   21 ar
  31   16   17 ar
  32   17   18 ar
  33   17   34 1
  34   18   19 ar
  35   18   35 1
  36   19   20 ar
  37   19   36 1
  38   20   21 ar
  39   20   37 1
  40   21   38 1
  41   22   23 1
  42   22   39 1
  43   22   40 1
  44   24   41 1
