@<TRIPOS>MOLECULE
ZINC000003798093
70    70    1     0     0
SMALL
USER_CHARGES
@<TRIPOS>ATOM
1      C1      2.3360   -0.6450    0.0564 C.3      1 ZINC000003798093   -0.1600
2      C2      1.9648   -2.1264    0.1477 C.3      1 ZINC000003798093   -0.1300
3      C3      0.4456   -2.2785    0.0480 C.3      1 ZINC000003798093   -0.1200
4      C4      0.0743   -3.7600    0.1393 C.3      1 ZINC000003798093   -0.1200
5      C5     -1.4448   -3.9121    0.0396 C.3      1 ZINC000003798093   -0.1500
6      C6     -1.8161   -5.3936    0.1308 C.3      1 ZINC000003798093   -0.0100
7      N7     -3.2747   -5.5396    0.0351 N.4      1 ZINC000003798093   -0.3900
8      H8     -3.7168   -4.9698    0.7408 H        1 ZINC000003798093    0.4200
9      C9     -3.7238   -5.1077   -1.2952 C.3      1 ZINC000003798093   -0.0600
10     C10    -3.6405   -6.9472    0.2423 C.3      1 ZINC000003798093   -0.0100
11     C11    -5.1646   -7.0797    0.2668 C.3      1 ZINC000003798093   -0.1600
12     C12    -5.5456   -8.5457    0.4826 C.3      1 ZINC000003798093   -0.1000
13     C13    -7.0640   -8.6615    0.6311 C.3      1 ZINC000003798093    0.0900
14     C14    -7.7116   -8.2721   -0.6321 C.1      1 ZINC000003798093    0.2000
15     N15    -8.2115   -7.9717   -1.6070 N.1      1 ZINC000003798093   -0.4100
16     C16    -7.4290  -10.0850    0.9648 C.ar     1 ZINC000003798093   -0.0200
17     C17    -8.1820  -10.3575    2.0915 C.ar     1 ZINC000003798093   -0.2500
18     C18    -8.5204  -11.6659    2.4018 C.ar     1 ZINC000003798093    0.1500
19     O19    -9.2617  -11.9329    3.5103 O.3      1 ZINC000003798093   -0.3000
20     C20    -9.6579  -10.8170    4.3101 C.3      1 ZINC000003798093    0.0200
21     C21    -8.1013  -12.7041    1.5783 C.ar     1 ZINC000003798093    0.0400
22     O22    -8.4317  -13.9895    1.8792 O.3      1 ZINC000003798093   -0.3100
23     C23    -9.6558  -14.4888    1.3367 C.3      1 ZINC000003798093    0.0300
24     C24    -7.3443  -12.4259    0.4465 C.ar     1 ZINC000003798093    0.1500
25     O25    -6.9321  -13.4382   -0.3627 O.3      1 ZINC000003798093   -0.3000
26     C26    -6.1575  -13.0786   -1.5084 C.3      1 ZINC000003798093    0.0200
27     C27    -7.0146  -11.1142    0.1403 C.ar     1 ZINC000003798093   -0.2200
28     C28    -7.5386   -7.7367    1.7538 C.3      1 ZINC000003798093   -0.0800
29     C29    -9.0672   -7.7529    1.8159 C.3      1 ZINC000003798093   -0.1900
30     C30    -6.9687   -8.2209    3.0886 C.3      1 ZINC000003798093   -0.1900
31     H31     3.4183   -0.5366    0.1275 H        1 ZINC000003798093    0.0600
32     H32     1.9923   -0.2423   -0.8963 H        1 ZINC000003798093    0.0600
33     H33     1.8620   -0.1006    0.8732 H        1 ZINC000003798093    0.0600
34     H34     2.4388   -2.6708   -0.6690 H        1 ZINC000003798093    0.0600
35     H35     2.3085   -2.5291    1.1005 H        1 ZINC000003798093    0.0600
36     H36    -0.0284   -1.7342    0.8647 H        1 ZINC000003798093    0.0700
37     H37     0.1019   -1.8759   -0.9048 H        1 ZINC000003798093    0.0700
38     H38     0.5484   -4.3044   -0.6774 H        1 ZINC000003798093    0.0700
39     H39     0.4180   -4.1627    1.0921 H        1 ZINC000003798093    0.0700
40     H40    -1.9189   -3.3677    0.8563 H        1 ZINC000003798093    0.0900
41     H41    -1.7885   -3.5094   -0.9132 H        1 ZINC000003798093    0.0900
42     H42    -1.3421   -5.9379   -0.6859 H        1 ZINC000003798093    0.1300
43     H43    -1.4724   -5.7962    1.0836 H        1 ZINC000003798093    0.1300
44     H44    -3.2462   -5.7232   -2.0575 H        1 ZINC000003798093    0.1200
45     H45    -4.8061   -5.2160   -1.3662 H        1 ZINC000003798093    0.1200
46     H46    -3.4524   -4.0632   -1.4489 H        1 ZINC000003798093    0.1300
47     H47    -3.2363   -7.5510   -0.5702 H        1 ZINC000003798093    0.1300
48     H48    -3.2304   -7.2933    1.1910 H        1 ZINC000003798093    0.1400
49     H49    -5.5688   -6.4759    1.0792 H        1 ZINC000003798093    0.1000
50     H50    -5.5747   -6.7336   -0.6820 H        1 ZINC000003798093    0.0900
51     H51    -5.2182   -9.1360   -0.3733 H        1 ZINC000003798093    0.0900
52     H52    -5.0627   -8.9174    1.3863 H        1 ZINC000003798093    0.1000
53     H53    -8.5070   -9.5502    2.7311 H        1 ZINC000003798093    0.1800
54     H54   -10.2624  -10.1365    3.7104 H        1 ZINC000003798093    0.0600
55     H55   -10.2422  -11.1686    5.1604 H        1 ZINC000003798093    0.1100
56     H56    -8.7713  -10.2946    4.6695 H        1 ZINC000003798093    0.0600
57     H57    -9.7984  -15.5222    1.6525 H        1 ZINC000003798093    0.1000
58     H58   -10.4866  -13.8812    1.6953 H        1 ZINC000003798093    0.0500
59     H59    -9.6159  -14.4437    0.2483 H        1 ZINC000003798093    0.0500
60     H60    -5.2477  -12.5714   -1.1873 H        1 ZINC000003798093    0.0600
61     H61    -5.8948  -13.9774   -2.0662 H        1 ZINC000003798093    0.1100
62     H62    -6.7391  -12.4125   -2.1457 H        1 ZINC000003798093    0.0600
63     H63    -6.4267  -10.8972   -0.7392 H        1 ZINC000003798093    0.1300
64     H64    -7.1936   -6.7214    1.5584 H        1 ZINC000003798093    0.0900
65     H65    -9.4090   -8.7496    2.0952 H        1 ZINC000003798093    0.0800
66     H66    -9.4084   -7.0308    2.5577 H        1 ZINC000003798093    0.0700
67     H67    -9.4734   -7.4900    0.8392 H        1 ZINC000003798093    0.0600
68     H68    -5.8832   -8.1225    3.0773 H        1 ZINC000003798093    0.0600
69     H69    -7.3797   -7.6188    3.8989 H        1 ZINC000003798093    0.0700
70     H70    -7.2372   -9.2664    3.2404 H        1 ZINC000003798093    0.0900
@<TRIPOS>BOND
1     1     2     1
2     1     31    1
3     1     32    1
4     1     33    1
5     2     3     1
6     2     34    1
7     2     35    1
8     3     4     1
9     3     36    1
10    3     37    1
11    4     5     1
12    4     38    1
13    4     39    1
14    5     6     1
15    5     40    1
16    5     41    1
17    6     7     1
18    6     42    1
19    6     43    1
20    7     8     1
21    7     9     1
22    7     10    1
23    9     44    1
24    9     45    1
25    9     46    1
26    10    11    1
27    10    47    1
28    10    48    1
29    11    12    1
30    11    49    1
31    11    50    1
32    12    13    1
33    12    51    1
34    12    52    1
35    13    14    1
36    13    16    1
37    13    28    1
38    14    15    3
39    16    27    ar
40    16    17    ar
41    17    18    ar
42    17    53    1
43    18    19    1
44    18    21    ar
45    19    20    1
46    20    54    1
47    20    55    1
48    20    56    1
49    21    22    1
50    21    24    ar
51    22    23    1
52    23    57    1
53    23    58    1
54    23    59    1
55    24    25    1
56    24    27    ar
57    25    26    1
58    26    60    1
59    26    61    1
60    26    62    1
61    27    63    1
62    28    29    1
63    28    30    1
64    28    64    1
65    29    65    1
66    29    66    1
67    29    67    1
68    30    68    1
69    30    69    1
70    30    70    1
@<TRIPOS>SUBSTRUCTURE
1   ZINC000003798093 1     RESIDUE    1   A     ZIN   1
