@<TRIPOS>MOLECULE
ZINC000034177219
67    71    1     0     0
SMALL
USER_CHARGES
@<TRIPOS>ATOM
1      C1     -0.0853    0.9487    0.3688 C.3      1 ZINC000034177219   -0.1200
2      C2     -0.0098   -0.4791   -0.1073 C.ar     1 ZINC000034177219   -0.1200
3      C3     -0.7144   -0.8705   -1.2290 C.ar     1 ZINC000034177219   -0.0600
4      C4     -0.6482   -2.1789   -1.6687 C.ar     1 ZINC000034177219   -0.1300
5      C5      0.1282   -3.1052   -0.9836 C.ar     1 ZINC000034177219    0.1700
6      N6      0.1949   -4.4289   -1.4296 N.am     1 ZINC000034177219   -0.6600
7      C7      0.1279   -4.7000   -2.7481 C.2      1 ZINC000034177219    0.5500
8      O8      0.1019   -3.7911   -3.5549 O.2      1 ZINC000034177219   -0.5000
9      C9      0.0860   -6.1025   -3.2131 C.ar     1 ZINC000034177219   -0.1000
10     C10     0.1099   -7.1484   -2.2890 C.ar     1 ZINC000034177219   -0.0800
11     C11     0.0700   -8.4551   -2.7296 C.ar     1 ZINC000034177219   -0.1000
12     C12     0.0066   -8.7300   -4.0842 C.ar     1 ZINC000034177219   -0.1400
13     C13    -0.0367  -10.1598   -4.5582 C.3      1 ZINC000034177219    0.0400
14     N14    -1.4342  -10.6026   -4.6519 N.4      1 ZINC000034177219   -0.3900
15     H15    -1.8926  -10.4587   -3.7646 H        1 ZINC000034177219    0.4200
16     C16    -1.4733  -12.0297   -4.9972 C.3      1 ZINC000034177219    0.0000
17     C17    -2.9286  -12.4959   -5.0764 C.3      1 ZINC000034177219    0.0200
18     N18    -3.6376  -11.7083   -6.0947 N.3      1 ZINC000034177219   -0.5400
19     C19    -5.0262  -12.1649   -6.2410 C.3      1 ZINC000034177219    0.0200
20     C20    -3.5856  -10.2746   -5.7754 C.3      1 ZINC000034177219    0.0300
21     C21    -2.1247   -9.8269   -5.6907 C.3      1 ZINC000034177219   -0.0100
22     C22    -0.0178   -7.6979   -5.0054 C.ar     1 ZINC000034177219   -0.1000
23     C23     0.0166   -6.3867   -4.5780 C.ar     1 ZINC000034177219   -0.0500
24     C24     0.8377   -2.7154    0.1435 C.ar     1 ZINC000034177219   -0.1900
25     C25     0.7733   -1.3995    0.5795 C.ar     1 ZINC000034177219    0.1800
26     N26     1.4863   -1.0027    1.7141 N.pl3    1 ZINC000034177219   -0.6200
27     C27     1.7290   -1.9108    2.7330 C.2      1 ZINC000034177219    0.3300
28     N28     2.4756   -1.6908    3.7706 N.2      1 ZINC000034177219   -0.5200
29     C29     2.5929   -2.6848    4.6493 C.2      1 ZINC000034177219    0.1500
30     C30     3.4150   -2.5650    5.8780 C.ar     1 ZINC000034177219   -0.0800
31     C31     4.0169   -1.3492    6.2142 C.ar     1 ZINC000034177219   -0.0400
32     C32     4.7743   -1.2894    7.3714 C.ar     1 ZINC000034177219   -0.1700
33     C33     4.9100   -2.4238    8.1505 C.ar     1 ZINC000034177219    0.1100
34     N34     4.3298   -3.5579    7.8077 N.ar     1 ZINC000034177219   -0.4800
35     C35     3.5952   -3.6617    6.7194 C.ar     1 ZINC000034177219    0.1200
36     C36     1.9136   -3.8040    4.3446 C.2      1 ZINC000034177219   -0.2800
37     S37     1.0654   -3.5394    2.8231 S.3      1 ZINC000034177219    0.0900
38     H38     0.6999    1.5335   -0.1102 H        1 ZINC000034177219    0.0800
39     H39    -1.0584    1.3667    0.1108 H        1 ZINC000034177219    0.0800
40     H40     0.0478    0.9786    1.4503 H        1 ZINC000034177219    0.0700
41     H41    -1.3186   -0.1524   -1.7635 H        1 ZINC000034177219    0.1400
42     H42    -1.2008   -2.4818   -2.5457 H        1 ZINC000034177219    0.1400
43     H43     0.2895   -5.1520   -0.7899 H        1 ZINC000034177219    0.4100
44     H44     0.1597   -6.9352   -1.2314 H        1 ZINC000034177219    0.1400
45     H45     0.0888   -9.2653   -2.0157 H        1 ZINC000034177219    0.1400
46     H46     0.4338  -10.2319   -5.5388 H        1 ZINC000034177219    0.1400
47     H47     0.4986  -10.7934   -3.8510 H        1 ZINC000034177219    0.1400
48     H48    -0.9895  -12.1835   -5.9617 H        1 ZINC000034177219    0.1400
49     H49    -0.9492  -12.6030   -4.2324 H        1 ZINC000034177219    0.1400
50     H50    -2.9582  -13.5513   -5.3472 H        1 ZINC000034177219    0.1200
51     H51    -3.4089  -12.3549   -4.1081 H        1 ZINC000034177219    0.0600
52     H52    -5.5467  -12.0556   -5.2896 H        1 ZINC000034177219    0.0400
53     H53    -5.5277  -11.5653   -7.0006 H        1 ZINC000034177219    0.0800
54     H54    -5.0343  -13.2127   -6.5413 H        1 ZINC000034177219    0.0800
55     H55    -4.0944   -9.7094   -6.5562 H        1 ZINC000034177219    0.1200
56     H56    -4.0767  -10.0970   -4.8187 H        1 ZINC000034177219    0.0600
57     H57    -2.0835   -8.7670   -5.4399 H        1 ZINC000034177219    0.1400
58     H58    -1.6378   -9.9921   -6.6518 H        1 ZINC000034177219    0.1400
59     H59    -0.0674   -7.9193   -6.0613 H        1 ZINC000034177219    0.1400
60     H60    -0.0028   -5.5820   -5.2980 H        1 ZINC000034177219    0.1500
61     H61     1.4420   -3.4335    0.6779 H        1 ZINC000034177219    0.1400
62     H62     1.8114   -0.0918    1.7887 H        1 ZINC000034177219    0.4300
63     H63     3.8945   -0.4786    5.5869 H        1 ZINC000034177219    0.1400
64     H64     5.2545   -0.3668    7.6625 H        1 ZINC000034177219    0.1400
65     H65     5.5005   -2.3807    9.0538 H        1 ZINC000034177219    0.1600
66     H66     3.1361   -4.6074    6.4718 H        1 ZINC000034177219    0.1600
67     H67     1.8884   -4.7088    4.9338 H        1 ZINC000034177219    0.1800
@<TRIPOS>BOND
1     1     2     1
2     1     38    1
3     1     39    1
4     1     40    1
5     2     25    ar
6     2     3     ar
7     3     4     ar
8     3     41    1
9     4     5     ar
10    4     42    1
11    5     6     1
12    5     24    ar
13    6     7     am
14    6     43    1
15    7     8     2
16    7     9     1
17    9     23    ar
18    9     10    ar
19    10    11    ar
20    10    44    1
21    11    12    ar
22    11    45    1
23    12    13    1
24    12    22    ar
25    13    14    1
26    13    46    1
27    13    47    1
28    14    15    1
29    14    21    1
30    14    16    1
31    16    17    1
32    16    48    1
33    16    49    1
34    17    18    1
35    17    50    1
36    17    51    1
37    18    19    1
38    18    20    1
39    19    52    1
40    19    53    1
41    19    54    1
42    20    21    1
43    20    55    1
44    20    56    1
45    21    57    1
46    21    58    1
47    22    23    ar
48    22    59    1
49    23    60    1
50    24    25    ar
51    24    61    1
52    25    26    1
53    26    27    1
54    26    62    1
55    27    37    1
56    27    28    2
57    28    29    1
58    29    30    1
59    29    36    2
60    30    35    ar
61    30    31    ar
62    31    32    ar
63    31    63    1
64    32    33    ar
65    32    64    1
66    33    34    ar
67    33    65    1
68    34    35    ar
69    35    66    1
70    36    37    1
71    36    67    1
@<TRIPOS>SUBSTRUCTURE
1   ZINC000034177219 1     RESIDUE    1   A     ZIN   1
