@<TRIPOS>MOLECULE
ZINC000020621758
55    57    1     0     0
SMALL
USER_CHARGES
@<TRIPOS>ATOM
1      C1     -0.0187    1.5258    0.0104 C.3      1 ZINC000020621758   -0.1500
2      C2      0.0021   -0.0041    0.0020 C.3      1 ZINC000020621758    0.0500
3      O3     -1.3386   -0.4987    0.0122 O.3      1 ZINC000020621758   -0.2800
4      C4     -1.4981   -1.8461    0.0064 C.ar     1 ZINC000020621758    0.2500
5      C5     -0.3912   -2.6756   -0.0028 C.ar     1 ZINC000020621758   -0.3000
6      C6     -0.5562   -4.0549   -0.0081 C.ar     1 ZINC000020621758    0.3000
7      N7      0.5591   -4.8865   -0.0170 N.pl3    1 ZINC000020621758   -0.8500
8      C8     -1.8360   -4.6089   -0.0042 C.ar     1 ZINC000020621758   -0.1600
9      Cl9    -2.0323   -6.3337   -0.0110 Cl       1 ZINC000020621758   -0.0600
10     C10    -2.9433   -3.7927    0.0054 C.ar     1 ZINC000020621758    0.0100
11     C11    -2.7867   -2.4024    0.0158 C.ar     1 ZINC000020621758   -0.2300
12     C12    -3.9695   -1.5259    0.0261 C.2      1 ZINC000020621758    0.5800
13     O13    -3.8310   -0.3176    0.0351 O.2      1 ZINC000020621758   -0.5100
14     N14    -5.2059   -2.0625    0.0256 N.am     1 ZINC000020621758   -0.7400
15     C15    -6.3829   -1.1903    0.0358 C.3      1 ZINC000020621758    0.1300
16     C16    -7.6515   -2.0457    0.0329 C.3      1 ZINC000020621758    0.0600
17     H17    -7.6635   -2.6820    0.9178 H        1 ZINC000020621758    0.1000
18     C18    -8.8819   -1.1352    0.0413 C.3      1 ZINC000020621758   -0.0400
19     N19   -10.0978   -1.9580   -0.0201 N.4      1 ZINC000020621758   -0.3800
20     H20   -10.1280   -2.5738    0.7786 H        1 ZINC000020621758    0.4200
21     C21   -11.2801   -1.0863   -0.0117 C.3      1 ZINC000020621758    0.0500
22     C22   -12.5266   -1.9311    0.0491 C.ar     1 ZINC000020621758   -0.1800
23     C23   -13.1292   -2.3583   -1.1194 C.ar     1 ZINC000020621758   -0.0700
24     C24   -14.2723   -3.1330   -1.0648 C.ar     1 ZINC000020621758   -0.1500
25     C25   -14.8138   -3.4817    0.1609 C.ar     1 ZINC000020621758    0.1400
26     F26   -15.9310   -4.2394    0.2154 F        1 ZINC000020621758   -0.1200
27     C27   -14.2091   -3.0536    1.3306 C.ar     1 ZINC000020621758   -0.1500
28     C28   -13.0634   -2.2830    1.2736 C.ar     1 ZINC000020621758   -0.0600
29     C29   -10.0859   -2.7560   -1.2539 C.3      1 ZINC000020621758   -0.0500
30     C30    -8.8533   -3.6635   -1.2599 C.3      1 ZINC000020621758    0.0400
31     O31    -7.6752   -2.8610   -1.1421 O.3      1 ZINC000020621758   -0.3500
32     H32     1.0039    1.9031    0.0027 H        1 ZINC000020621758    0.0800
33     H33    -0.5459    1.8868   -0.8726 H        1 ZINC000020621758    0.0700
34     H34    -0.5289    1.8773    0.9072 H        1 ZINC000020621758    0.0700
35     H35     0.5123   -0.3556   -0.8948 H        1 ZINC000020621758    0.0700
36     H36     0.5293   -0.3651    0.8851 H        1 ZINC000020621758    0.0700
37     H37     0.6017   -2.2508   -0.0062 H        1 ZINC000020621758    0.1400
38     H38     1.4500   -4.5030   -0.0194 H        1 ZINC000020621758    0.4100
39     H39     0.4457   -5.8499   -0.0207 H        1 ZINC000020621758    0.4100
40     H40    -3.9330   -4.2249    0.0087 H        1 ZINC000020621758    0.1400
41     H41    -5.3163   -3.0262    0.0184 H        1 ZINC000020621758    0.4000
42     H42    -6.3663   -0.5681    0.9306 H        1 ZINC000020621758    0.1000
43     H43    -6.3715   -0.5543   -0.8493 H        1 ZINC000020621758    0.0900
44     H44    -8.8897   -0.5428    0.9563 H        1 ZINC000020621758    0.1500
45     H45    -8.8485   -0.4707   -0.8221 H        1 ZINC000020621758    0.1500
46     H46   -11.2424   -0.4312    0.8586 H        1 ZINC000020621758    0.1400
47     H47   -11.2937   -0.4836   -0.9198 H        1 ZINC000020621758    0.1400
48     H48   -12.7066   -2.0862   -2.0754 H        1 ZINC000020621758    0.1400
49     H49   -14.7433   -3.4661   -1.9779 H        1 ZINC000020621758    0.1500
50     H50   -14.6308   -3.3247    2.2872 H        1 ZINC000020621758    0.1500
51     H51   -12.5914   -1.9492    2.1858 H        1 ZINC000020621758    0.1400
52     H52   -10.9874   -3.3669   -1.3004 H        1 ZINC000020621758    0.1400
53     H53   -10.0521   -2.0910   -2.1168 H        1 ZINC000020621758    0.1400
54     H54    -8.9068   -4.3558   -0.4197 H        1 ZINC000020621758    0.0800
55     H55    -8.8193   -4.2251   -2.1935 H        1 ZINC000020621758    0.1400
@<TRIPOS>BOND
1     1     2     1
2     1     32    1
3     1     33    1
4     1     34    1
5     2     3     1
6     2     35    1
7     2     36    1
8     3     4     1
9     4     11    ar
10    4     5     ar
11    5     6     ar
12    5     37    1
13    6     7     1
14    6     8     ar
15    7     38    1
16    7     39    1
17    8     9     1
18    8     10    ar
19    10    11    ar
20    10    40    1
21    11    12    1
22    12    13    2
23    12    14    am
24    14    15    1
25    14    41    1
26    15    16    1
27    15    42    1
28    15    43    1
29    16    17    1
30    16    31    1
31    16    18    1
32    18    19    1
33    18    44    1
34    18    45    1
35    19    20    1
36    19    21    1
37    19    29    1
38    21    22    1
39    21    46    1
40    21    47    1
41    22    28    ar
42    22    23    ar
43    23    24    ar
44    23    48    1
45    24    25    ar
46    24    49    1
47    25    26    1
48    25    27    ar
49    27    28    ar
50    27    50    1
51    28    51    1
52    29    30    1
53    29    52    1
54    29    53    1
55    30    31    1
56    30    54    1
57    30    55    1
@<TRIPOS>SUBSTRUCTURE
1   ZINC000020621758 1     RESIDUE    1   A     ZIN   1
