@<TRIPOS>MOLECULE
ZINC000245380320
55    58    1     0     0
SMALL
USER_CHARGES
@<TRIPOS>ATOM
1      C1     -0.0341    1.5551   -0.0522 C.3      1 ZINC000245380320   -0.1300
2      C2     -0.0360    0.0251   -0.0386 C.3      1 ZINC000245380320   -0.0300
3      C3     -1.4606   -0.4685   -0.1581 C.3      1 ZINC000245380320   -0.1200
4      C4     -1.5059   -1.9906   -0.0578 C.3      1 ZINC000245380320   -0.1800
5      C5     -0.9494   -2.4210    1.3078 C.3      1 ZINC000245380320   -0.0600
6      H6     -1.5459   -1.9740    2.1031 H        1 ZINC000245380320    0.0700
7      C7      0.4940   -1.9693    1.4389 C.3      1 ZINC000245380320   -0.1000
8      H8      1.0834   -2.4680    0.6695 H        1 ZINC000245380320    0.1000
9      C9      1.0950   -2.3060    2.8011 C.3      1 ZINC000245380320   -0.1100
10     C10     0.5194   -3.5807    3.3999 C.3      1 ZINC000245380320   -0.0900
11     C11     0.0267   -4.4761    2.2907 C.2      1 ZINC000245380320   -0.0100
12     C12     0.5353   -5.6929    2.1260 C.2      1 ZINC000245380320   -0.2400
13     C13     0.0726   -6.5625    1.0462 C.2      1 ZINC000245380320    0.3900
14     O14     0.5330   -7.6786    0.9261 O.2      1 ZINC000245380320   -0.4700
15     C15    -0.9779   -6.0717    0.0815 C.3      1 ZINC000245380320   -0.1700
16     C16    -0.8892   -4.5447   -0.0145 C.3      1 ZINC000245380320   -0.1200
17     C17    -1.0633   -3.9494    1.3759 C.3      1 ZINC000245380320   -0.0300
18     C18    -2.4365   -4.3372    1.9281 C.3      1 ZINC000245380320   -0.1400
19     C19     0.6523   -0.4647    1.2440 C.3      1 ZINC000245380320   -0.0800
20     H20     0.3276    0.0946    2.1214 H        1 ZINC000245380320    0.0900
21     C21     2.1564   -0.2230    0.9164 C.3      1 ZINC000245380320   -0.1200
22     C22     2.2806   -0.6305   -0.5683 C.3      1 ZINC000245380320   -0.1500
23     C23     0.8472   -0.4861   -1.1843 C.3      1 ZINC000245380320    0.1000
24     O24     0.8616    0.4683   -2.2478 O.3      1 ZINC000245380320   -0.5400
25     C25     0.3613   -1.8205   -1.6888 C.2      1 ZINC000245380320    0.3500
26     O26     0.8325   -2.8409   -1.2471 O.2      1 ZINC000245380320   -0.4200
27     C27    -0.7125   -1.8814   -2.7443 C.3      1 ZINC000245380320    0.0200
28     O28    -0.9993   -3.2467   -3.0538 O.3      1 ZINC000245380320   -0.5500
29     H29     0.9935    1.9174   -0.0253 H        1 ZINC000245380320    0.0600
30     H30    -0.5212    1.9109   -0.9601 H        1 ZINC000245380320    0.0700
31     H31    -0.5734    1.9268    0.8190 H        1 ZINC000245380320    0.0600
32     H32    -2.0604   -0.0363    0.6428 H        1 ZINC000245380320    0.0800
33     H33    -1.8703   -0.1582   -1.1193 H        1 ZINC000245380320    0.0700
34     H34    -2.5365   -2.3318   -0.1553 H        1 ZINC000245380320    0.0700
35     H35    -0.8998   -2.4264   -0.8520 H        1 ZINC000245380320    0.1100
36     H36     2.1728   -2.4250    2.6903 H        1 ZINC000245380320    0.0600
37     H37     0.9031   -1.4787    3.4844 H        1 ZINC000245380320    0.0700
38     H38     1.2932   -4.0973    3.9678 H        1 ZINC000245380320    0.0800
39     H39    -0.3105   -3.3297    4.0604 H        1 ZINC000245380320    0.0800
40     H40     1.3024   -6.0443    2.8001 H        1 ZINC000245380320    0.1300
41     H41    -0.8043   -6.5099   -0.9012 H        1 ZINC000245380320    0.0900
42     H42    -1.9661   -6.3580    0.4413 H        1 ZINC000245380320    0.1000
43     H43     0.0817   -4.2602   -0.4199 H        1 ZINC000245380320    0.1100
44     H44    -1.6813   -4.1732   -0.6648 H        1 ZINC000245380320    0.0800
45     H45    -2.5115   -5.4231    1.9856 H        1 ZINC000245380320    0.0600
46     H46    -2.5613   -3.9111    2.9236 H        1 ZINC000245380320    0.0600
47     H47    -3.2149   -3.9537    1.2685 H        1 ZINC000245380320    0.0600
48     H48     2.4125    0.8283    1.0475 H        1 ZINC000245380320    0.0700
49     H49     2.7901   -0.8531    1.5406 H        1 ZINC000245380320    0.0700
50     H50     2.9842    0.0270   -1.0788 H        1 ZINC000245380320    0.0800
51     H51     2.6123   -1.6659   -0.6453 H        1 ZINC000245380320    0.0800
52     H52     1.4389    0.2271   -2.9850 H        1 ZINC000245380320    0.3800
53     H53    -1.6149   -1.3958   -2.3730 H        1 ZINC000245380320    0.0900
54     H54    -0.3681   -1.3697   -3.6430 H        1 ZINC000245380320    0.0800
55     H55    -1.6832   -3.3620   -3.7277 H        1 ZINC000245380320    0.3900
@<TRIPOS>BOND
1     1     2     1
2     1     29    1
3     1     30    1
4     1     31    1
5     2     19    1
6     2     23    1
7     2     3     1
8     3     4     1
9     3     32    1
10    3     33    1
11    4     5     1
12    4     34    1
13    4     35    1
14    5     6     1
15    5     17    1
16    5     7     1
17    7     8     1
18    7     9     1
19    7     19    1
20    9     10    1
21    9     36    1
22    9     37    1
23    10    11    1
24    10    38    1
25    10    39    1
26    11    17    1
27    11    12    2
28    12    13    1
29    12    40    1
30    13    14    2
31    13    15    1
32    15    16    1
33    15    41    1
34    15    42    1
35    16    17    1
36    16    43    1
37    16    44    1
38    17    18    1
39    18    45    1
40    18    46    1
41    18    47    1
42    19    20    1
43    19    21    1
44    21    22    1
45    21    48    1
46    21    49    1
47    22    23    1
48    22    50    1
49    22    51    1
50    23    24    1
51    23    25    1
52    24    52    1
53    25    26    2
54    25    27    1
55    27    28    1
56    27    53    1
57    27    54    1
58    28    55    1
@<TRIPOS>SUBSTRUCTURE
1   ZINC000245380320 1     RESIDUE    1   A     ZIN   1
