@<TRIPOS>MOLECULE
ZINC000049952320
37    38    1     0     0
SMALL
USER_CHARGES
@<TRIPOS>ATOM
1      C1      0.5407    2.0238    0.4323 C.3      1 ZINC000049952320   -0.1200
2      C2      0.1764    0.5860    0.1656 C.ar     1 ZINC000049952320   -0.0900
3      C3      0.1089    0.1170   -1.1368 C.ar     1 ZINC000049952320    0.1200
4      O4      0.3712    0.9540   -2.1750 O.3      1 ZINC000049952320   -0.3100
5      C5      0.2829    0.4032   -3.4907 C.3      1 ZINC000049952320    0.0700
6      C6      0.6044    1.4705   -4.5048 C.cat    1 ZINC000049952320    0.5200
7      N7      0.9163    2.6980   -4.1608 N.pl3    1 ZINC000049952320   -0.6100
8      H8      0.9694    3.0297   -3.2508 H        1 ZINC000049952320    0.4600
9      C9      1.1735    3.4918   -5.3732 C.3      1 ZINC000049952320    0.0500
10     C10     0.9487    2.4766   -6.5130 C.3      1 ZINC000049952320    0.0600
11     N11     0.5986    1.2395   -5.7966 N.pl3    1 ZINC000049952320   -0.6300
12     C12    -0.2263   -1.2075   -1.3805 C.ar     1 ZINC000049952320   -0.1800
13     C13    -0.4930   -2.0602   -0.3262 C.ar     1 ZINC000049952320   -0.0700
14     C14    -0.4269   -1.5969    0.9744 C.ar     1 ZINC000049952320   -0.0500
15     Cl15   -0.7619   -2.6710    2.2964 Cl       1 ZINC000049952320    0.0000
16     C16    -0.0865   -0.2724    1.2243 C.ar     1 ZINC000049952320    0.1700
17     N17    -0.0189    0.1966    2.5389 N.am     1 ZINC000049952320   -1.0600
18     S18     1.2010   -0.3106    3.5373 S.o2     1 ZINC000049952320    2.5900
19     C19     2.7058    0.3900    2.8055 C.3      1 ZINC000049952320   -0.6700
20     O20     0.9160    0.3113    4.7828 O.2      1 ZINC000049952320   -0.9400
21     O21     1.1953   -1.7256    3.4067 O.2      1 ZINC000049952320   -0.9200
22     H22     1.6224    2.1117    0.5336 H        1 ZINC000049952320    0.0800
23     H23     0.2018    2.6443   -0.3973 H        1 ZINC000049952320    0.0700
24     H24     0.0614    2.3552    1.3534 H        1 ZINC000049952320    0.0800
25     H25     0.9933   -0.4176   -3.5894 H        1 ZINC000049952320    0.1400
26     H26    -0.7275    0.0318   -3.6619 H        1 ZINC000049952320    0.1400
27     H27     0.4670    4.3183   -5.4491 H        1 ZINC000049952320    0.1300
28     H28     2.1997    3.8593   -5.3820 H        1 ZINC000049952320    0.1300
29     H29     0.1300    2.7967   -7.1575 H        1 ZINC000049952320    0.1300
30     H30     1.8627    2.3377   -7.0904 H        1 ZINC000049952320    0.1300
31     H31     0.3912    0.3887   -6.2138 H        1 ZINC000049952320    0.4600
32     H32    -0.2791   -1.5722   -2.3957 H        1 ZINC000049952320    0.1400
33     H33    -0.7539   -3.0904   -0.5188 H        1 ZINC000049952320    0.1500
34     H34    -0.6865    0.8194    2.8665 H        1 ZINC000049952320    0.4300
35     H35     2.5973    1.4710    2.7168 H        1 ZINC000049952320    0.1300
36     H36     3.5600    0.1617    3.4428 H        1 ZINC000049952320    0.1400
37     H37     2.8641   -0.0416    1.8172 H        1 ZINC000049952320    0.1300
@<TRIPOS>BOND
1     1     2     1
2     1     22    1
3     1     23    1
4     1     24    1
5     2     16    ar
6     2     3     ar
7     3     4     1
8     3     12    ar
9     4     5     1
10    5     6     1
11    5     25    1
12    5     26    1
13    6     11    ar
14    6     7     ar
15    7     8     1
16    7     9     1
17    9     10    1
18    9     27    1
19    9     28    1
20    10    11    1
21    10    29    1
22    10    30    1
23    11    31    1
24    12    13    ar
25    12    32    1
26    13    14    ar
27    13    33    1
28    14    15    1
29    14    16    ar
30    16    17    1
31    17    18    am
32    17    34    1
33    18    19    1
34    18    20    2
35    18    21    2
36    19    35    1
37    19    36    1
38    19    37    1
@<TRIPOS>SUBSTRUCTURE
1   ZINC000049952320 1     RESIDUE    1   A     ZIN   1
