@<TRIPOS>MOLECULE
ZINC000038562120
51    53    1     0     0
SMALL
USER_CHARGES
@<TRIPOS>ATOM
1      C1      0.2530    2.0092    0.1901 C.3      1 ZINC000038562120   -0.1400
2      C2      0.2143    0.4822    0.2771 C.3      1 ZINC000038562120   -0.0400
3      C3      0.9953    0.0216    1.5095 C.3      1 ZINC000038562120   -0.1400
4      C4     -1.2381    0.0144    0.3894 C.3      1 ZINC000038562120   -0.1500
5      C5      0.8375   -0.1075   -0.9619 C.ar     1 ZINC000038562120    0.0000
6      C6      0.0914   -0.9272   -1.7878 C.ar     1 ZINC000038562120   -0.1400
7      C7      0.6631   -1.4681   -2.9242 C.ar     1 ZINC000038562120   -0.0100
8      C8      1.9808   -1.1889   -3.2350 C.ar     1 ZINC000038562120   -0.6900
9      S9      2.7096   -1.8788   -4.6832 S.o2     1 ZINC000038562120    2.6900
10     O10     4.1124   -1.8960   -4.4572 O.2      1 ZINC000038562120   -0.9400
11     O11     1.9582   -3.0440   -4.9945 O.2      1 ZINC000038562120   -0.9400
12     N12     2.4484   -0.8095   -5.9205 N.am     1 ZINC000038562120   -1.0600
13     C13     2.9532    0.4815   -5.8405 C.ar     1 ZINC000038562120    0.2000
14     C14     4.1799    0.7150   -5.2323 C.ar     1 ZINC000038562120   -0.1600
15     C15     4.6797    1.9989   -5.1534 C.ar     1 ZINC000038562120   -0.0500
16     C16     3.9646    3.0650   -5.6792 C.ar     1 ZINC000038562120   -0.0500
17     Cl17    4.6084    4.6736   -5.5711 Cl       1 ZINC000038562120   -0.0500
18     C18     2.7460    2.8537   -6.2873 C.ar     1 ZINC000038562120   -0.0500
19     C19     2.2283    1.5579   -6.3796 C.ar     1 ZINC000038562120   -0.1700
20     C20     0.9269    1.3242   -7.0285 C.2      1 ZINC000038562120    0.4500
21     O21    -0.1024    1.6049   -6.4452 O.2      1 ZINC000038562120   -0.4000
22     C22     0.8721    0.7479   -8.3899 C.ar     1 ZINC000038562120   -0.1400
23     C23     2.0433    0.5183   -9.1214 C.ar     1 ZINC000038562120   -0.0800
24     C24     1.9462   -0.0214  -10.3877 C.ar     1 ZINC000038562120    0.0700
25     N25     0.7707   -0.3191  -10.9092 N.ar     1 ZINC000038562120   -0.1000
26     O26     0.7182   -0.8708  -12.2123 O.3      1 ZINC000038562120   -0.5200
27     C27    -0.3574   -0.1190  -10.2536 C.ar     1 ZINC000038562120    0.0700
28     C28    -0.3520    0.4117   -8.9799 C.ar     1 ZINC000038562120   -0.0600
29     C29     2.7265   -0.3681   -2.4098 C.ar     1 ZINC000038562120   -0.0100
30     C30     2.1537    0.1759   -1.2754 C.ar     1 ZINC000038562120   -0.1300
31     H31     1.2877    2.3425    0.1100 H        1 ZINC000038562120    0.0600
32     H32    -0.3034    2.3373   -0.6879 H        1 ZINC000038562120    0.0600
33     H33    -0.1978    2.4357    1.0862 H        1 ZINC000038562120    0.0600
34     H34     0.5445    0.4481    2.4056 H        1 ZINC000038562120    0.0600
35     H35     0.9677   -1.0663    1.5715 H        1 ZINC000038562120    0.0600
36     H36     2.0300    0.3549    1.4294 H        1 ZINC000038562120    0.0600
37     H37    -1.7945    0.3425   -0.4886 H        1 ZINC000038562120    0.0600
38     H38    -1.2656   -1.0735    0.4514 H        1 ZINC000038562120    0.0600
39     H39    -1.6889    0.4409    1.2855 H        1 ZINC000038562120    0.0600
40     H40    -0.9381   -1.1454   -1.5450 H        1 ZINC000038562120    0.1400
41     H41     0.0803   -2.1091   -3.5691 H        1 ZINC000038562120    0.1400
42     H42     1.9428   -1.0851   -6.7010 H        1 ZINC000038562120    0.4300
43     H43     4.7432   -0.1092   -4.8203 H        1 ZINC000038562120    0.1800
44     H44     5.6337    2.1749   -4.6788 H        1 ZINC000038562120    0.1500
45     H45     2.1933    3.6872   -6.6950 H        1 ZINC000038562120    0.1500
46     H46     3.0083    0.7601   -8.7012 H        1 ZINC000038562120    0.1700
47     H47     2.8441   -0.2022  -10.9599 H        1 ZINC000038562120    0.1900
48     H48    -1.2970   -0.3778  -10.7189 H        1 ZINC000038562120    0.1900
49     H49    -1.2788    0.5725   -8.4491 H        1 ZINC000038562120    0.1800
50     H50     3.7559   -0.1496   -2.6528 H        1 ZINC000038562120    0.1400
51     H51     2.7363    0.8172   -0.6307 H        1 ZINC000038562120    0.1300
@<TRIPOS>BOND
1     1     2     1
2     1     31    1
3     1     32    1
4     1     33    1
5     2     3     1
6     2     4     1
7     2     5     1
8     3     34    1
9     3     35    1
10    3     36    1
11    4     37    1
12    4     38    1
13    4     39    1
14    5     30    ar
15    5     6     ar
16    6     7     ar
17    6     40    1
18    7     8     ar
19    7     41    1
20    8     9     1
21    8     29    ar
22    9     10    2
23    9     11    2
24    9     12    am
25    12    13    1
26    12    42    1
27    13    19    ar
28    13    14    ar
29    14    15    ar
30    14    43    1
31    15    16    ar
32    15    44    1
33    16    17    1
34    16    18    ar
35    18    19    ar
36    18    45    1
37    19    20    1
38    20    21    2
39    20    22    1
40    22    28    ar
41    22    23    ar
42    23    24    ar
43    23    46    1
44    24    25    ar
45    24    47    1
46    25    26    1
47    25    27    ar
48    27    28    ar
49    27    48    1
50    28    49    1
51    29    30    ar
52    29    50    1
53    30    51    1
@<TRIPOS>SUBSTRUCTURE
1   ZINC000038562120 1     RESIDUE    1   A     ZIN   1
