@<TRIPOS>MOLECULE
ZINC000073240561
42    46    1     0     0
SMALL
USER_CHARGES
@<TRIPOS>ATOM
1      N1     -0.1221   -0.4045    1.8682 N.1      1 ZINC000073240561   -0.3900
2      C2     -0.1073    0.7155    1.6789 C.1      1 ZINC000073240561    0.2500
3      C3     -0.0887    2.1274    1.4402 C.ar     1 ZINC000073240561    0.0300
4      C4     -1.2849    2.8458    1.3933 C.ar     1 ZINC000073240561   -0.0900
5      C5     -1.2629    4.2076    1.1633 C.ar     1 ZINC000073240561    0.0000
6      Cl6    -2.7510    5.0998    1.1058 Cl       1 ZINC000073240561   -0.0400
7      C7     -0.0583    4.8626    0.9791 C.ar     1 ZINC000073240561   -0.1600
8      C8      1.1361    4.1556    1.0237 C.ar     1 ZINC000073240561    0.1400
9      O9      2.3162    4.8042    0.8416 O.3      1 ZINC000073240561   -0.2400
10     C10     2.2799    6.1437    0.6189 C.ar     1 ZINC000073240561    0.1600
11     C11     2.1811    6.6397   -0.6917 C.ar     1 ZINC000073240561   -0.1700
12     C12     2.1022    6.0244   -1.9638 C.2      1 ZINC000073240561    0.0900
13     N13     2.0247    6.9534   -2.8719 N.2      1 ZINC000073240561   -0.2300
14     N14     2.0475    8.2138   -2.2626 N.pl3    1 ZINC000073240561   -0.4000
15     C15     1.9792    9.5042   -2.9529 C.3      1 ZINC000073240561    0.2100
16     C16     0.5373    9.8650   -3.2018 C.2      1 ZINC000073240561    0.0900
17     C17    -0.2312    9.4548   -4.2755 C.ar     1 ZINC000073240561   -0.2300
18     C18    -0.0086    8.6479   -5.4115 C.ar     1 ZINC000073240561    0.0100
19     C19    -1.0423    8.4643   -6.2803 C.ar     1 ZINC000073240561   -0.2100
20     C20    -2.2815    9.0599   -6.0475 C.ar     1 ZINC000073240561    0.2000
21     N21    -2.5171    9.8126   -5.0035 N.ar     1 ZINC000073240561   -0.4700
22     C22    -1.5632   10.0528   -4.0902 C.ar     1 ZINC000073240561    0.2700
23     N23    -1.5103   10.7501   -2.9702 N.2      1 ZINC000073240561   -0.2700
24     N24    -0.2291   10.6349   -2.4198 N.pl3    1 ZINC000073240561   -0.4000
25     C25     2.1447    8.0299   -0.9065 C.ar     1 ZINC000073240561    0.1400
26     C26     2.2063    8.8987    0.1799 C.ar     1 ZINC000073240561   -0.1200
27     C27     2.3026    8.3967    1.4580 C.ar     1 ZINC000073240561   -0.0500
28     C28     2.3342    7.0258    1.6799 C.ar     1 ZINC000073240561   -0.0800
29     Cl29    2.4555    6.4176    3.3014 Cl       1 ZINC000073240561   -0.0400
30     C30     1.1257    2.7910    1.2593 C.ar     1 ZINC000073240561   -0.0900
31     H31    -2.2268    2.3370    1.5364 H        1 ZINC000073240561    0.1500
32     H32    -0.0469    5.9275    0.7996 H        1 ZINC000073240561    0.1400
33     H33     2.1060    4.9606   -2.1501 H        1 ZINC000073240561    0.2000
34     H34     2.4443   10.2721   -2.3347 H        1 ZINC000073240561    0.1200
35     H35     2.5060    9.4355   -3.9046 H        1 ZINC000073240561    0.1300
36     H36     0.9533    8.1894   -5.5876 H        1 ZINC000073240561    0.1400
37     H37    -0.9002    7.8515   -7.1583 H        1 ZINC000073240561    0.1400
38     H38    -3.0784    8.8936   -6.7573 H        1 ZINC000073240561    0.1700
39     H39     0.0623   11.0554   -1.5957 H        1 ZINC000073240561    0.4500
40     H40     2.1790    9.9664    0.0197 H        1 ZINC000073240561    0.1400
41     H41     2.3501    9.0753    2.2969 H        1 ZINC000073240561    0.1500
42     H42     2.0542    2.2405    1.2945 H        1 ZINC000073240561    0.1500
@<TRIPOS>BOND
1     1     2     3
2     2     3     1
3     3     30    ar
4     3     4     ar
5     4     5     ar
6     4     31    1
7     5     6     1
8     5     7     ar
9     7     8     ar
10    7     32    1
11    8     9     1
12    8     30    ar
13    9     10    1
14    10    28    ar
15    10    11    ar
16    11    25    ar
17    11    12    1
18    12    13    2
19    12    33    1
20    13    14    1
21    14    15    1
22    14    25    1
23    15    16    1
24    15    34    1
25    15    35    1
26    16    24    1
27    16    17    2
28    17    22    ar
29    17    18    ar
30    18    19    ar
31    18    36    1
32    19    20    ar
33    19    37    1
34    20    21    ar
35    20    38    1
36    21    22    ar
37    22    23    2
38    23    24    1
39    24    39    1
40    25    26    ar
41    26    27    ar
42    26    40    1
43    27    28    ar
44    27    41    1
45    28    29    1
46    30    42    1
@<TRIPOS>SUBSTRUCTURE
1   ZINC000073240561 1     RESIDUE    1   A     ZIN   1
