@<TRIPOS>MOLECULE
ZINC000008214420
78    82    1     0     0
SMALL
USER_CHARGES
@<TRIPOS>ATOM
1      C1     -1.8666    3.7069    2.0186 C.3      1 ZINC000008214420   -0.1500
2      C2     -1.5390    2.2344    1.7633 C.3      1 ZINC000008214420   -0.1200
3      C3     -2.8270    1.4736    1.4419 C.3      1 ZINC000008214420   -0.1100
4      C4     -2.4994    0.0011    1.1866 C.3      1 ZINC000008214420    0.2200
5      H5     -1.9455   -0.4157    2.0278 H        1 ZINC000008214420    0.0900
6      O6     -1.7434   -0.1420   -0.0340 O.3      1 ZINC000008214420   -0.3600
7      C7     -1.9474   -1.5104   -0.4417 C.3      1 ZINC000008214420    0.0700
8      H8     -1.1113   -2.1541   -0.1687 H        1 ZINC000008214420    0.1000
9      C9     -2.2244   -1.5180   -1.9700 C.3      1 ZINC000008214420   -0.1100
10     C10    -3.7426   -1.3260   -2.0493 C.3      1 ZINC000008214420   -0.0800
11     H11    -4.0050   -0.2882   -1.8437 H        1 ZINC000008214420    0.1000
12     C12    -4.3989   -1.7910   -3.3369 C.3      1 ZINC000008214420   -0.1000
13     H13    -4.1846   -2.8475   -3.4984 H        1 ZINC000008214420    0.1200
14     C14    -3.8689   -0.9710   -4.5148 C.3      1 ZINC000008214420   -0.1400
15     C15    -4.5053   -1.4669   -5.8171 C.3      1 ZINC000008214420    0.1300
16     H16    -4.1936   -2.4931   -6.0117 H        1 ZINC000008214420    0.1100
17     F17    -4.1118   -0.6445   -6.8783 F        1 ZINC000008214420   -0.2000
18     C18    -6.0129   -1.4111   -5.6562 C.2      1 ZINC000008214420   -0.0800
19     C19    -6.7351   -0.7889   -6.5775 C.2      1 ZINC000008214420   -0.1900
20     C20    -8.1973   -0.6963   -6.4451 C.2      1 ZINC000008214420    0.4100
21     O21    -8.8676   -0.1602   -7.3077 O.2      1 ZINC000008214420   -0.4500
22     C22    -8.8315   -1.2676   -5.2450 C.2      1 ZINC000008214420   -0.2100
23     C23    -8.0914   -1.8904   -4.3413 C.2      1 ZINC000008214420   -0.0700
24     C24    -6.6164   -2.0715   -4.4519 C.3      1 ZINC000008214420   -0.0200
25     C25    -6.3345   -3.5720   -4.5508 C.3      1 ZINC000008214420   -0.1400
26     C26    -5.9141   -1.5869   -3.1809 C.3      1 ZINC000008214420    0.1600
27     F27    -6.1617   -0.2206   -3.0109 F        1 ZINC000008214420   -0.1900
28     C28    -6.4792   -2.3331   -1.9760 C.3      1 ZINC000008214420    0.0900
29     H29    -7.5311   -2.0728   -1.8577 H        1 ZINC000008214420    0.0800
30     O30    -6.3699   -3.7394   -2.2051 O.3      1 ZINC000008214420   -0.5400
31     C31    -5.7261   -1.9768   -0.6846 C.3      1 ZINC000008214420   -0.1300
32     C32    -4.2366   -2.2477   -0.9025 C.3      1 ZINC000008214420   -0.0400
33     C33    -4.0354   -3.6911   -1.3683 C.3      1 ZINC000008214420   -0.1500
34     C34    -3.2753   -1.9323    0.2542 C.3      1 ZINC000008214420    0.1000
35     C35    -3.0611   -3.1280    1.1461 C.2      1 ZINC000008214420    0.4600
36     O36    -3.1910   -4.2440    0.7018 O.2      1 ZINC000008214420   -0.4600
37     O37    -2.7260   -2.9531    2.4340 O.3      1 ZINC000008214420   -0.3500
38     C38    -2.6467   -4.1433    3.2620 C.3      1 ZINC000008214420    0.2800
39     H39    -3.5530   -4.7354    3.1349 H        1 ZINC000008214420    0.1400
40     C40    -2.5058   -3.7351    4.7298 C.3      1 ZINC000008214420   -0.1900
41     O41    -1.4937   -4.9323    2.8663 O.3      1 ZINC000008214420   -0.3300
42     C42    -0.2830   -4.3692    3.0303 C.2      1 ZINC000008214420    0.6000
43     O43    -0.1946   -3.2190    3.4094 O.2      1 ZINC000008214420   -0.5300
44     O44     0.8299   -5.0806    2.7745 O.3      1 ZINC000008214420   -0.3300
45     C45     2.1018   -4.4090    2.9734 C.3      1 ZINC000008214420    0.0800
46     C46     3.2439   -5.3690    2.6347 C.3      1 ZINC000008214420   -0.1600
47     O47    -3.7100   -0.7519    0.9582 O.3      1 ZINC000008214420   -0.3400
48     H48    -0.9491    4.2489    2.2475 H        1 ZINC000008214420    0.0600
49     H49    -2.3296    4.1355    1.1297 H        1 ZINC000008214420    0.0600
50     H50    -2.5547    3.7854    2.8603 H        1 ZINC000008214420    0.0600
51     H51    -0.8510    2.1558    0.9215 H        1 ZINC000008214420    0.0700
52     H52    -1.0761    1.8058    2.6522 H        1 ZINC000008214420    0.0600
53     H53    -3.5150    1.5521    2.2836 H        1 ZINC000008214420    0.0900
54     H54    -3.2899    1.9022    0.5530 H        1 ZINC000008214420    0.0800
55     H55    -1.7059   -0.6935   -2.4594 H        1 ZINC000008214420    0.1000
56     H56    -1.9334   -2.4722   -2.4093 H        1 ZINC000008214420    0.0900
57     H57    -4.1181    0.0798   -4.3664 H        1 ZINC000008214420    0.0900
58     H58    -2.7861   -1.0811   -4.5753 H        1 ZINC000008214420    0.0900
59     H59    -6.2458   -0.3460   -7.4324 H        1 ZINC000008214420    0.1500
60     H60    -9.8983   -1.1783   -5.1023 H        1 ZINC000008214420    0.1400
61     H61    -8.5872   -2.2917   -3.4698 H        1 ZINC000008214420    0.1300
62     H62    -6.5065   -3.9074   -5.5736 H        1 ZINC000008214420    0.0600
63     H63    -5.2982   -3.7661   -4.2742 H        1 ZINC000008214420    0.0800
64     H64    -6.9981   -4.1117   -3.8751 H        1 ZINC000008214420    0.1100
65     H65    -6.7093   -4.2833   -1.4812 H        1 ZINC000008214420    0.3800
66     H66    -5.8359   -0.9133   -0.4723 H        1 ZINC000008214420    0.0900
67     H67    -6.1160   -2.5643    0.1466 H        1 ZINC000008214420    0.0800
68     H68    -4.4646   -3.8152   -2.3626 H        1 ZINC000008214420    0.0900
69     H69    -2.9696   -3.9169   -1.4019 H        1 ZINC000008214420    0.0500
70     H70    -4.5288   -4.3696   -0.6724 H        1 ZINC000008214420    0.0700
71     H71    -3.3713   -3.1428    5.0268 H        1 ZINC000008214420    0.0900
72     H72    -2.4463   -4.6285    5.3513 H        1 ZINC000008214420    0.0900
73     H73    -1.5995   -3.1430    4.8568 H        1 ZINC000008214420    0.1000
74     H74     2.1568   -3.5353    2.3239 H        1 ZINC000008214420    0.0800
75     H75     2.1879   -4.0945    4.0135 H        1 ZINC000008214420    0.0800
76     H76     4.1987   -4.8649    2.7840 H        1 ZINC000008214420    0.0900
77     H77     3.1889   -6.2427    3.2842 H        1 ZINC000008214420    0.0700
78     H78     3.1578   -5.6835    1.5946 H        1 ZINC000008214420    0.0700
@<TRIPOS>BOND
1     1     2     1
2     1     48    1
3     1     49    1
4     1     50    1
5     2     3     1
6     2     51    1
7     2     52    1
8     3     4     1
9     3     53    1
10    3     54    1
11    4     5     1
12    4     47    1
13    4     6     1
14    6     7     1
15    7     8     1
16    7     34    1
17    7     9     1
18    9     10    1
19    9     55    1
20    9     56    1
21    10    11    1
22    10    32    1
23    10    12    1
24    12    13    1
25    12    26    1
26    12    14    1
27    14    15    1
28    14    57    1
29    14    58    1
30    15    16    1
31    15    17    1
32    15    18    1
33    18    24    1
34    18    19    2
35    19    20    1
36    19    59    1
37    20    21    2
38    20    22    1
39    22    23    2
40    22    60    1
41    23    24    1
42    23    61    1
43    24    25    1
44    24    26    1
45    25    62    1
46    25    63    1
47    25    64    1
48    26    27    1
49    26    28    1
50    28    29    1
51    28    30    1
52    28    31    1
53    30    65    1
54    31    32    1
55    31    66    1
56    31    67    1
57    32    33    1
58    32    34    1
59    33    68    1
60    33    69    1
61    33    70    1
62    34    35    1
63    34    47    1
64    35    36    2
65    35    37    1
66    37    38    1
67    38    39    1
68    38    40    1
69    38    41    1
70    40    71    1
71    40    72    1
72    40    73    1
73    41    42    1
74    42    43    2
75    42    44    1
76    44    45    1
77    45    46    1
78    45    74    1
79    45    75    1
80    46    76    1
81    46    77    1
82    46    78    1
@<TRIPOS>SUBSTRUCTURE
1   ZINC000008214420 1     RESIDUE    1   A     ZIN   1
