@<TRIPOS>MOLECULE
ZINC000035000463
  39   42    0    0    0
SMALL
USER_CHARGES
NO_NAME
@<TRIPOS>ATOM
    1 O1        2.3732     3.8313     0.6477 O.2    1 <0>      -0.4700
    2 C2        1.2959     3.3115     0.4474 C.2    1 <0>       0.5300
    3 N3        1.2265     2.0002     0.1436 N.am   1 <0>      -0.6500
    4 C4        2.3953     1.2658    -0.0435 C.ar   1 <0>       0.3300
    5 C5        2.3226    -0.0610    -0.4648 C.ar   1 <0>       0.0300
    6 N6        3.4245    -0.7626    -0.6437 N.ar   1 <0>      -0.3800
    7 C7        4.6115    -0.2066    -0.4230 C.ar   1 <0>       0.0800
    8 C8        5.8497    -0.9944    -0.6244 C.ar   1 <0>      -0.0300
    9 C9        6.8977    -0.4987    -1.4061 C.ar   1 <0>      -0.1200
   10 C10       8.0336    -1.2653    -1.5672 C.ar   1 <0>       0.1000
   11 N11       8.1392    -2.4499    -0.9968 N.ar   1 <0>      -0.4500
   12 C12       7.1758    -2.9565    -0.2514 C.ar   1 <0>       0.0800
   13 C13       6.0056    -2.2542    -0.0322 C.ar   1 <0>       0.0800
   14 F14       5.0235    -2.7792     0.7327 F      1 <0>      -0.1200
   15 C15       4.6886     1.1302     0.0011 C.ar   1 <0>       0.1900
   16 C16       6.0083     1.7570     0.2485 C.ar   1 <0>      -0.1100
   17 C17       6.2763     3.0520    -0.2058 C.ar   1 <0>      -0.0300
   18 C18       7.5247     3.5924     0.0509 C.ar   1 <0>      -0.1700
   19 C19       8.4579     2.8415     0.7419 C.ar   1 <0>       0.1100
   20 N20       8.1766     1.6216     1.1580 N.ar   1 <0>      -0.4800
   21 C21       7.0014     1.0675     0.9432 C.ar   1 <0>       0.1300
   22 N22       3.5738     1.8322     0.1743 N.ar   1 <0>      -0.4200
   23 C23       0.0345     4.1303     0.5440 C.3    1 <0>      -0.2000
   24 C24      -0.3794     4.6292     1.9299 C.3    1 <0>      -0.1500
   25 C25       0.1793     5.6116     0.8986 C.3    1 <0>      -0.1400
   26 H26       0.3627     1.5679     0.0554 H      1 <0>       0.4300
   27 H27       1.3599    -0.5161    -0.6450 H      1 <0>       0.1800
   28 H28       6.8191     0.4699    -1.8772 H      1 <0>       0.1400
   29 H29       8.8479    -0.8901    -2.1693 H      1 <0>       0.1700
   30 H30       7.3048    -3.9306     0.1967 H      1 <0>       0.1700
   31 H31       5.5286     3.6161    -0.7435 H      1 <0>       0.1400
   32 H32       7.7672     4.5897    -0.2851 H      1 <0>       0.1400
   33 H33       9.4328     3.2603     0.9438 H      1 <0>       0.1600
   34 H34       6.8085     0.0663     1.2994 H      1 <0>       0.1500
   35 H35      -0.7596     3.8541    -0.1497 H      1 <0>       0.1300
   36 H36      -1.4460     4.6812     2.1483 H      1 <0>       0.1100
   37 H37       0.2607     4.3652     2.7718 H      1 <0>       0.1000
   38 H38       1.1869     5.9939     1.0619 H      1 <0>       0.1100
   39 H39      -0.5199     6.3099     0.4384 H      1 <0>       0.1100
@<TRIPOS>BOND
   1    1    2 2
   2    2    3 am
   3    2   23 1
   4    3    4 1
   5    3   26 1
   6    4   22 ar
   7    4    5 ar
   8    5    6 ar
   9    5   27 1
  10    6    7 ar
  11    7    8 1
  12    7   15 ar
  13    8   13 ar
  14    8    9 ar
  15    9   10 ar
  16    9   28 1
  17   10   11 ar
  18   10   29 1
  19   11   12 ar
  20   12   13 ar
  21   12   30 1
  22   13   14 1
  23   15   16 1
  24   15   22 ar
  25   16   21 ar
  26   16   17 ar
  27   17   18 ar
  28   17   31 1
  29   18   19 ar
  30   18   32 1
  31   19   20 ar
  32   19   33 1
  33   20   21 ar
  34   21   34 1
  35   23   25 1
  36   23   24 1
  37   23   35 1
  38   24   25 1
  39   24   36 1
  40   24   37 1
  41   25   38 1
  42   25   39 1
