@<TRIPOS>MOLECULE
ZINC000095579362
39    42    1     0     0
SMALL
USER_CHARGES
@<TRIPOS>ATOM
1      O1      0.0021   -0.0041    0.0020 O.2      1 ZINC000095579362   -0.5100
2      C2     -0.0144    1.2123    0.0087 C.2      1 ZINC000095579362    0.6000
3      N3      1.1435    1.9020    0.0014 N.am     1 ZINC000095579362   -0.7300
4      C4      2.4220    1.1868   -0.0147 C.3      1 ZINC000095579362    0.1400
5      H5      2.3356    0.2712    0.5703 H        1 ZINC000095579362    0.1300
6      C6      2.7977    0.8403   -1.4572 C.3      1 ZINC000095579362   -0.0200
7      N7      4.0749    1.4664   -1.8069 N.4      1 ZINC000095579362   -0.3700
8      H8      4.3015    1.2194   -2.7586 H        1 ZINC000095579362    0.4300
9      C9      3.9757    2.9251   -1.7178 C.3      1 ZINC000095579362   -0.0100
10     C10     3.6390    3.3409   -0.2841 C.3      1 ZINC000095579362   -0.1400
11     C11     3.5174    2.0785    0.5846 C.3      1 ZINC000095579362   -0.1100
12     C12     4.8486    1.3180    0.5213 C.3      1 ZINC000095579362   -0.1300
13     C13     5.1449    0.9778   -0.9340 C.3      1 ZINC000095579362   -0.0100
14     C14    -1.2974    1.9299    0.0187 C.2      1 ZINC000095579362   -0.2500
15     C15    -2.4977    1.3414    0.0265 C.2      1 ZINC000095579362   -0.0100
16     C16    -3.5996    2.2118    0.0359 C.ar     1 ZINC000095579362   -0.0900
17     C17    -4.9797    1.8970    0.0455 C.ar     1 ZINC000095579362   -0.0500
18     C18    -5.9131    2.8853    0.0533 C.ar     1 ZINC000095579362   -0.1100
19     C19    -5.5319    4.2212    0.0521 C.ar     1 ZINC000095579362   -0.0700
20     C20    -4.1989    4.5596    0.0429 C.ar     1 ZINC000095579362   -0.0200
21     Cl21   -3.7298    6.2311    0.0414 Cl       1 ZINC000095579362   -0.0500
22     C22    -3.2197    3.5597    0.0352 C.ar     1 ZINC000095579362   -0.1200
23     S23    -1.4637    3.6769    0.0296 S.3      1 ZINC000095579362    0.1400
24     H24     1.1303    2.8719    0.0067 H        1 ZINC000095579362    0.4100
25     H25     2.8854   -0.2414   -1.5581 H        1 ZINC000095579362    0.1400
26     H26     2.0208    1.2029   -2.1303 H        1 ZINC000095579362    0.1300
27     H27     4.9265    3.3708   -2.0098 H        1 ZINC000095579362    0.1300
28     H28     3.1922    3.2760   -2.3896 H        1 ZINC000095579362    0.1300
29     H29     4.4321    3.9779    0.1073 H        1 ZINC000095579362    0.1100
30     H30     2.6935    3.8832   -0.2735 H        1 ZINC000095579362    0.1000
31     H31     3.2686    2.3487    1.6108 H        1 ZINC000095579362    0.1300
32     H32     5.6473    1.9463    0.9154 H        1 ZINC000095579362    0.1100
33     H33     4.7755    0.4040    1.1107 H        1 ZINC000095579362    0.1100
34     H34     5.2186   -0.1041   -1.0447 H        1 ZINC000095579362    0.1300
35     H35     6.0901    1.4348   -1.2270 H        1 ZINC000095579362    0.1300
36     H36    -2.6123    0.2675    0.0253 H        1 ZINC000095579362    0.1600
37     H37    -5.2935    0.8636    0.0462 H        1 ZINC000095579362    0.1400
38     H38    -6.9623    2.6291    0.0602 H        1 ZINC000095579362    0.1500
39     H39    -6.2843    4.9960    0.0580 H        1 ZINC000095579362    0.1500
@<TRIPOS>BOND
1     1     2     2
2     2     3     am
3     2     14    1
4     3     4     1
5     3     24    1
6     4     5     1
7     4     11    1
8     4     6     1
9     6     7     1
10    6     25    1
11    6     26    1
12    7     8     1
13    7     13    1
14    7     9     1
15    9     10    1
16    9     27    1
17    9     28    1
18    10    11    1
19    10    29    1
20    10    30    1
21    11    12    1
22    11    31    1
23    12    13    1
24    12    32    1
25    12    33    1
26    13    34    1
27    13    35    1
28    14    23    1
29    14    15    2
30    15    16    1
31    15    36    1
32    16    22    ar
33    16    17    ar
34    17    18    ar
35    17    37    1
36    18    19    ar
37    18    38    1
38    19    20    ar
39    19    39    1
40    20    21    1
41    20    22    ar
42    22    23    1
@<TRIPOS>SUBSTRUCTURE
1   ZINC000095579362 1     RESIDUE    1   A     ZIN   1
