@<TRIPOS>MOLECULE
ZINC000067957558
89    93    1     0     0
SMALL
USER_CHARGES
@<TRIPOS>ATOM
1      C1      0.1268    1.0904   -0.6279 C.2      1 ZINC000067957558   -0.2100
2      C2      0.1286   -0.2331   -0.5084 C.2      1 ZINC000067957558   -0.0600
3      C3     -1.1466   -0.9656   -0.4066 C.2      1 ZINC000067957558   -0.1200
4      C4     -2.2207   -0.6655    0.4732 C.2      1 ZINC000067957558    0.0700
5      C5     -2.2237    0.3883    1.3729 C.2      1 ZINC000067957558   -0.1500
6      C6     -3.3050    0.6299    2.2212 C.2      1 ZINC000067957558    0.1000
7      N7     -4.4678   -0.0980    2.3202 N.pl3    1 ZINC000067957558   -0.6000
8      C8     -5.2570    0.4810    3.2923 C.2      1 ZINC000067957558    0.1400
9      C9     -6.5058    0.0749    3.7319 C.2      1 ZINC000067957558   -0.1100
10     C10    -7.1830   -1.0397    3.2160 C.2      1 ZINC000067957558    0.1700
11     N11    -6.7955   -1.8469    2.2246 N.2      1 ZINC000067957558   -0.5200
12     C12    -7.7007   -2.7889    2.0011 C.2      1 ZINC000067957558    0.1600
13     C13    -7.7043   -3.8282    1.0562 C.2      1 ZINC000067957558    0.0700
14     C14    -8.9258   -4.7318    1.0099 C.3      1 ZINC000067957558   -0.1400
15     C15    -9.9819   -4.1044    0.1369 C.2      1 ZINC000067957558    0.5700
16     O16    -9.7429   -3.0759   -0.4599 O.2      1 ZINC000067957558   -0.5500
17     N17   -11.1919   -4.6861    0.0193 N.am     1 ZINC000067957558   -0.6400
18     C18   -12.1722   -4.1524   -0.9296 C.3      1 ZINC000067957558    0.1100
19     H19   -11.6518   -3.7058   -1.7769 H        1 ZINC000067957558    0.1000
20     C20   -13.0728   -5.2861   -1.4242 C.3      1 ZINC000067957558   -0.1600
21     C21   -12.2344   -6.3253   -2.1229 C.2      1 ZINC000067957558    0.4900
22     O22   -11.0197   -6.2205   -2.1360 O.co2    1 ZINC000067957558   -0.6300
23     O23   -12.7707   -7.2708   -2.6751 O.co2    1 ZINC000067957558   -0.7700
24     C24   -13.0129   -3.1043   -0.2472 C.2      1 ZINC000067957558    0.4700
25     O25   -12.8119   -2.8286    0.9233 O.co2    1 ZINC000067957558   -0.6400
26     O26   -13.8941   -2.5320   -0.8657 O.co2    1 ZINC000067957558   -0.7600
27     C27    -6.6863   -4.0923    0.1747 C.2      1 ZINC000067957558    0.2200
28     N28    -5.5278   -3.4821    0.0282 N.2      1 ZINC000067957558   -0.4800
29     C29    -4.7423   -3.9622   -0.9067 C.2      1 ZINC000067957558    0.1200
30     C30    -3.4849   -3.5349   -1.2880 C.2      1 ZINC000067957558   -0.1500
31     C31    -2.8051   -2.4572   -0.7365 C.2      1 ZINC000067957558    0.1200
32     C32    -1.5195   -2.0679   -1.1545 C.2      1 ZINC000067957558   -0.1400
33     C33    -0.6942   -2.7349   -2.2246 C.3      1 ZINC000067957558   -0.0700
34     N34    -3.2142   -1.5943    0.2546 N.pl3    1 ZINC000067957558   -0.5500
35     C35    -5.4339   -5.1386   -1.5811 C.3      1 ZINC000067957558   -0.1100
36     H36    -5.5957   -4.9353   -2.6397 H        1 ZINC000067957558    0.1000
37     C37    -4.6216   -6.4220   -1.3966 C.3      1 ZINC000067957558   -0.1200
38     C38    -6.7737   -5.2310   -0.8345 C.3      1 ZINC000067957558   -0.1100
39     H39    -6.8664   -6.1906   -0.3260 H        1 ZINC000067957558    0.0900
40     C40    -7.9447   -5.0144   -1.7952 C.3      1 ZINC000067957558   -0.0900
41     C41    -7.7804   -3.6687   -2.5044 C.3      1 ZINC000067957558   -0.1600
42     C42    -8.9839   -3.4085   -3.3731 C.2      1 ZINC000067957558    0.4900
43     O43    -9.9272   -4.1808   -3.3552 O.co2    1 ZINC000067957558   -0.6200
44     O44    -9.0145   -2.4256   -4.0939 O.co2    1 ZINC000067957558   -0.7600
45     C45    -8.8036   -2.5757    2.9695 C.2      1 ZINC000067957558   -0.0800
46     C46   -10.0260   -3.3727    3.1104 C.2      1 ZINC000067957558    0.5000
47     O47   -10.9992   -3.1301    2.4086 O.co2    1 ZINC000067957558   -0.5400
48     O48   -10.0734   -4.2810    3.9298 O.co2    1 ZINC000067957558   -0.7200
49     C49    -8.4378   -1.4670    3.7115 C.2      1 ZINC000067957558   -0.2300
50     C50    -9.2240   -0.8360    4.8317 C.3      1 ZINC000067957558   -0.0600
51     C51    -4.5662    1.6011    3.7951 C.2      1 ZINC000067957558   -0.1100
52     C52    -5.0589    2.5382    4.8675 C.3      1 ZINC000067957558   -0.0600
53     C53    -5.9423    3.6163    4.2363 C.3      1 ZINC000067957558   -0.1500
54     C54    -3.3750    1.6874    3.1421 C.2      1 ZINC000067957558   -0.1200
55     C55    -2.3161    2.7356    3.3680 C.3      1 ZINC000067957558   -0.0800
56     H56     1.0611    1.6271   -0.7025 H        1 ZINC000067957558    0.0900
57     H57    -0.8089    1.6289   -0.6550 H        1 ZINC000067957558    0.1000
58     H58     1.0642   -0.7720   -0.4857 H        1 ZINC000067957558    0.1100
59     H59    -1.3606    1.0471    1.4181 H        1 ZINC000067957558    0.1500
60     H60    -4.6939   -0.8827    1.7967 H        1 ZINC000067957558    0.4300
61     H61    -6.9917    0.6497    4.5205 H        1 ZINC000067957558    0.1400
62     H62    -8.6448   -5.7019    0.6000 H        1 ZINC000067957558    0.0900
63     H63    -9.3189   -4.8633    2.0180 H        1 ZINC000067957558    0.1300
64     H64   -11.4138   -5.4582    0.5630 H        1 ZINC000067957558    0.3700
65     H65   -13.5829   -5.7415   -0.5754 H        1 ZINC000067957558    0.0300
66     H66   -13.8106   -4.8867   -2.1200 H        1 ZINC000067957558    0.0500
67     H67    -2.9907   -4.0922   -2.0908 H        1 ZINC000067957558    0.1400
68     H68    -0.9124   -2.2774   -3.1897 H        1 ZINC000067957558    0.0600
69     H69     0.3645   -2.6130   -1.9958 H        1 ZINC000067957558    0.0600
70     H70    -0.9379   -3.7966   -2.2625 H        1 ZINC000067957558    0.0600
71     H71    -4.0632   -1.6334    0.7221 H        1 ZINC000067957558    0.4300
72     H72    -4.4962   -6.6228   -0.3327 H        1 ZINC000067957558    0.0500
73     H73    -5.1468   -7.2548   -1.8642 H        1 ZINC000067957558    0.0600
74     H74    -3.6430   -6.3026   -1.8616 H        1 ZINC000067957558    0.0500
75     H75    -7.9609   -5.8152   -2.5345 H        1 ZINC000067957558    0.0500
76     H76    -8.8797   -5.0181   -1.2350 H        1 ZINC000067957558    0.1200
77     H77    -7.6896   -2.8756   -1.7623 H        1 ZINC000067957558    0.0500
78     H78    -6.8835   -3.6914   -3.1235 H        1 ZINC000067957558    0.0100
79     H79    -8.9385   -1.2937    5.7788 H        1 ZINC000067957558    0.0500
80     H80    -9.0129    0.2328    4.8665 H        1 ZINC000067957558    0.0500
81     H81   -10.2892   -0.9906    4.6600 H        1 ZINC000067957558    0.0700
82     H82    -5.6379    1.9780    5.6016 H        1 ZINC000067957558    0.0700
83     H83    -4.2070    3.0083    5.3587 H        1 ZINC000067957558    0.0700
84     H84    -6.2987    4.2941    5.0119 H        1 ZINC000067957558    0.0500
85     H85    -5.3633    4.1765    3.5021 H        1 ZINC000067957558    0.0500
86     H86    -6.7942    3.1462    3.7451 H        1 ZINC000067957558    0.0600
87     H87    -1.6252    2.3939    4.1386 H        1 ZINC000067957558    0.0600
88     H88    -1.7700    2.9062    2.4402 H        1 ZINC000067957558    0.0600
89     H89    -2.7872    3.6648    3.6884 H        1 ZINC000067957558    0.0600
@<TRIPOS>BOND
1     1     2     2
2     1     56    1
3     1     57    1
4     2     3     1
5     2     58    1
6     3     32    1
7     3     4     2
8     4     34    1
9     4     5     1
10    5     6     2
11    5     59    1
12    6     54    1
13    6     7     1
14    7     8     1
15    7     60    1
16    8     9     2
17    8     51    1
18    9     10    1
19    9     61    1
20    10    49    1
21    10    11    2
22    11    12    1
23    12    13    2
24    12    45    1
25    13    14    1
26    13    27    1
27    14    15    1
28    14    62    1
29    14    63    1
30    15    16    2
31    15    17    am
32    17    18    1
33    17    64    1
34    18    19    1
35    18    20    1
36    18    24    1
37    20    21    1
38    20    65    1
39    20    66    1
40    21    22    ar
41    21    23    ar
42    24    25    ar
43    24    26    ar
44    27    38    1
45    27    28    2
46    28    29    1
47    29    30    2
48    29    35    1
49    30    31    1
50    30    67    1
51    31    32    2
52    31    34    1
53    32    33    1
54    33    68    1
55    33    69    1
56    33    70    1
57    34    71    1
58    35    36    1
59    35    37    1
60    35    38    1
61    37    72    1
62    37    73    1
63    37    74    1
64    38    39    1
65    38    40    1
66    40    41    1
67    40    75    1
68    40    76    1
69    41    42    1
70    41    77    1
71    41    78    1
72    42    43    ar
73    42    44    ar
74    45    46    1
75    45    49    2
76    46    47    ar
77    46    48    ar
78    49    50    1
79    50    79    1
80    50    80    1
81    50    81    1
82    51    52    1
83    51    54    2
84    52    53    1
85    52    82    1
86    52    83    1
87    53    84    1
88    53    85    1
89    53    86    1
90    54    55    1
91    55    87    1
92    55    88    1
93    55    89    1
@<TRIPOS>SUBSTRUCTURE
1   ZINC000067957558 1     RESIDUE    1   A     ZIN   1
