@<TRIPOS>MOLECULE
ZINC000095544807
115   123   1     0     0
SMALL
USER_CHARGES
@<TRIPOS>ATOM
1      C1      8.5232   -2.5204    6.6627 C.3      1 ZINC000095544807   -0.1500
2      C2      7.8856   -1.6185    5.6039 C.3      1 ZINC000095544807   -0.0900
3      C3      6.4740   -2.0746    5.3397 C.2      1 ZINC000095544807   -0.1200
4      C4      5.4902   -1.4729    5.9984 C.2      1 ZINC000095544807   -0.1400
5      C5      4.1123   -1.9641    5.7074 C.3      1 ZINC000095544807   -0.0800
6      H6      4.0530   -2.9289    6.2026 H        1 ZINC000095544807    0.1300
7      C7      4.1682   -2.2005    4.1635 C.3      1 ZINC000095544807    0.0000
8      N8      4.8538   -3.5439    4.2748 N.3      1 ZINC000095544807   -0.5000
9      C9      6.2622   -3.1905    4.3327 C.3      1 ZINC000095544807    0.0900
10     C10     4.2717   -4.3222    3.1789 C.3      1 ZINC000095544807    0.0500
11     C11     2.7419   -4.3493    3.5539 C.3      1 ZINC000095544807   -0.0500
12     C12     2.6403   -4.4756    5.0640 C.2      1 ZINC000095544807   -0.0800
13     C13     2.2367   -3.5992    6.0083 C.2      1 ZINC000095544807    0.1000
14     N14     2.3787   -4.2039    7.2524 N.pl3    1 ZINC000095544807   -0.5900
15     C15     2.7993   -5.4890    7.1256 C.ar     1 ZINC000095544807    0.1200
16     C16     3.0324   -6.5028    8.0543 C.ar     1 ZINC000095544807   -0.1400
17     C17     3.4733   -7.7166    7.5544 C.ar     1 ZINC000095544807   -0.0900
18     C18     3.6786   -7.9297    6.2012 C.ar     1 ZINC000095544807   -0.1600
19     C19     3.4507   -6.9493    5.2657 C.ar     1 ZINC000095544807   -0.0600
20     C20     2.9984   -5.7177    5.7478 C.ar     1 ZINC000095544807   -0.1000
21     C21     1.6878   -2.1898    5.9211 C.3      1 ZINC000095544807    0.0800
22     C22     0.8295   -1.9990    4.6951 C.2      1 ZINC000095544807    0.4800
23     O23     1.1310   -1.1697    3.8697 O.2      1 ZINC000095544807   -0.5000
24     O24    -0.2690   -2.7506    4.5212 O.3      1 ZINC000095544807   -0.3300
25     C25    -1.0470   -2.5125    3.3186 C.3      1 ZINC000095544807    0.0300
26     C26     0.8057   -1.9311    7.1153 C.ar     1 ZINC000095544807   -0.1700
27     C27     1.0286   -0.8025    7.8935 C.ar     1 ZINC000095544807   -0.0200
28     C28     0.1955   -0.6110    8.9792 C.ar     1 ZINC000095544807   -0.2100
29     C29    -0.8255   -1.5113    9.3005 C.ar     1 ZINC000095544807    0.1700
30     C30    -1.0489   -2.6391    8.5073 C.ar     1 ZINC000095544807   -0.2200
31     C31    -0.2139   -2.8208    7.4105 C.ar     1 ZINC000095544807    0.2100
32     O32    -0.3966   -3.9058    6.6128 O.3      1 ZINC000095544807   -0.2700
33     C33    -1.4543   -4.7996    6.9654 C.3      1 ZINC000095544807    0.0200
34     N34    -1.4909   -1.1252   10.4528 N.3      1 ZINC000095544807   -0.4600
35     C35    -2.9446   -1.2628   10.2926 C.3      1 ZINC000095544807    0.0200
36     C36    -1.1203    0.2794   10.7690 C.3      1 ZINC000095544807    0.1100
37     H37    -1.8993    0.9688   10.4434 H        1 ZINC000095544807    0.1100
38     C38     0.1664    0.5074    9.9841 C.3      1 ZINC000095544807    0.0000
39     C39     0.0503    1.8496    9.2066 C.3      1 ZINC000095544807   -0.1400
40     C40     1.5165    2.3417    9.1464 C.3      1 ZINC000095544807   -0.0100
41     N41     2.1031    1.8936   10.4412 N.4      1 ZINC000095544807   -0.3800
42     H42     3.0985    1.7573   10.3479 H        1 ZINC000095544807    0.4300
43     C43     1.8209    2.9370   11.4309 C.3      1 ZINC000095544807    0.0200
44     C44     2.1149    2.4529   12.8196 C.2      1 ZINC000095544807   -0.1700
45     C45     1.9805    1.2032   13.1465 C.2      1 ZINC000095544807   -0.1100
46     C46     1.5460    0.1565   12.1660 C.3      1 ZINC000095544807   -0.0100
47     C47     2.6265   -0.9267   12.1654 C.3      1 ZINC000095544807   -0.1200
48     C48     2.7552   -1.5194   13.5701 C.3      1 ZINC000095544807   -0.1600
49     C49     1.4442    0.6284   10.7581 C.3      1 ZINC000095544807    0.0600
50     H50     2.0662   -0.0937   10.2292 H        1 ZINC000095544807    0.1200
51     C51     0.2599   -0.5023   12.6676 C.3      1 ZINC000095544807    0.0900
52     H52     0.1350   -1.4759   12.1935 H        1 ZINC000095544807    0.1400
53     O53     0.3198   -0.6623   14.1095 O.3      1 ZINC000095544807   -0.3500
54     C54    -0.3470   -1.7017   14.6356 C.2      1 ZINC000095544807    0.4400
55     C55    -0.3305   -1.9317   16.1249 C.3      1 ZINC000095544807   -0.1500
56     O56    -0.9604   -2.4530   13.9151 O.2      1 ZINC000095544807   -0.4600
57     C57    -0.9152    0.3697   12.2778 C.3      1 ZINC000095544807    0.1500
58     O58    -0.6345    1.7307   12.6109 O.3      1 ZINC000095544807   -0.5300
59     C59    -2.1511   -0.0900   13.0074 C.2      1 ZINC000095544807    0.4300
60     O60    -2.7277    0.6649   13.7540 O.2      1 ZINC000095544807   -0.4900
61     O61    -2.6112   -1.3381   12.8278 O.3      1 ZINC000095544807   -0.3100
62     C62    -3.8063   -1.7122   13.5628 C.3      1 ZINC000095544807    0.0300
63     C63     2.8655   -1.1555    5.9492 C.3      1 ZINC000095544807   -0.1000
64     H64     8.5351   -3.5496    6.3040 H        1 ZINC000095544807    0.0600
65     H65     9.5444   -2.1904    6.8538 H        1 ZINC000095544807    0.0600
66     H66     7.9445   -2.4635    7.5846 H        1 ZINC000095544807    0.0500
67     H67     7.8738   -0.5893    5.9626 H        1 ZINC000095544807    0.0700
68     H68     8.4643   -1.6753    4.6820 H        1 ZINC000095544807    0.0700
69     H69     5.6687   -0.6800    6.6987 H        1 ZINC000095544807    0.1100
70     H70     3.2064   -2.2284    3.6932 H        1 ZINC000095544807    0.0900
71     H71     4.8235   -1.4668    3.6799 H        1 ZINC000095544807    0.0600
72     H72     6.5920   -2.8518    3.3506 H        1 ZINC000095544807    0.0400
73     H73     6.8448   -4.0599    4.6326 H        1 ZINC000095544807    0.0800
74     H74     4.4196   -3.8282    2.2177 H        1 ZINC000095544807    0.0400
75     H75     4.6753   -5.3355    3.1535 H        1 ZINC000095544807    0.0800
76     H76     2.2342   -3.4833    3.1690 H        1 ZINC000095544807    0.0700
77     H77     2.2938   -5.2467    3.1018 H        1 ZINC000095544807    0.0700
78     H78     2.2278   -3.7757    8.1085 H        1 ZINC000095544807    0.4000
79     H79     2.8756   -6.3489    9.1113 H        1 ZINC000095544807    0.1200
80     H80     3.6617   -8.5263    8.2440 H        1 ZINC000095544807    0.1200
81     H81     4.0283   -8.8965    5.8710 H        1 ZINC000095544807    0.1100
82     H82     3.6138   -7.1221    4.2129 H        1 ZINC000095544807    0.1200
83     H83    -1.9050   -3.1846    3.3020 H        1 ZINC000095544807    0.1000
84     H84    -1.3945   -1.4794    3.3092 H        1 ZINC000095544807    0.0600
85     H85    -0.4256   -2.6948    2.4418 H        1 ZINC000095544807    0.0700
86     H86     1.8193   -0.1048    7.6602 H        1 ZINC000095544807    0.1500
87     H87    -1.8397   -3.3388    8.7343 H        1 ZINC000095544807    0.1500
88     H88    -1.2760   -5.1973    7.9645 H        1 ZINC000095544807    0.0600
89     H89    -2.4030   -4.2631    6.9519 H        1 ZINC000095544807    0.0600
90     H90    -1.4907   -5.6202    6.2489 H        1 ZINC000095544807    0.1100
91     H91    -3.2064   -2.3198   10.2441 H        1 ZINC000095544807    0.0900
92     H92    -3.4490   -0.8021   11.1420 H        1 ZINC000095544807    0.0800
93     H93    -3.2571   -0.7686    9.3727 H        1 ZINC000095544807    0.0500
94     H94    -0.3418    1.6818    8.2035 H        1 ZINC000095544807    0.1200
95     H95    -0.5726    2.5587    9.7518 H        1 ZINC000095544807    0.1100
96     H96     2.0403    1.8797    8.3096 H        1 ZINC000095544807    0.1400
97     H97     1.5516    3.4283    9.0670 H        1 ZINC000095544807    0.1500
98     H98     2.4385    3.8094   11.2176 H        1 ZINC000095544807    0.1400
99     H99     0.7700    3.2185   11.3648 H        1 ZINC000095544807    0.1500
100    H100    2.4458    3.1604   13.5656 H        1 ZINC000095544807    0.1500
101    H101    2.1903    0.9069   14.1636 H        1 ZINC000095544807    0.1500
102    H102    2.3518   -1.7135   11.4629 H        1 ZINC000095544807    0.0800
103    H103    3.5793   -0.4894   11.8669 H        1 ZINC000095544807    0.0800
104    H104    3.0299   -0.7327   14.2727 H        1 ZINC000095544807    0.0700
105    H105    1.8025   -1.9567   13.8686 H        1 ZINC000095544807    0.0600
106    H106    3.5250   -2.2912   13.5696 H        1 ZINC000095544807    0.0700
107    H107   -1.1636   -1.3995   16.5839 H        1 ZINC000095544807    0.1100
108    H108   -0.4241   -2.9983   16.3289 H        1 ZINC000095544807    0.1100
109    H109    0.6082   -1.5636   16.5389 H        1 ZINC000095544807    0.1000
110    H110   -0.4706    1.8795   13.5522 H        1 ZINC000095544807    0.4000
111    H111   -3.6185   -1.6203   14.6325 H        1 ZINC000095544807    0.0600
112    H112   -4.6277   -1.0537   13.2802 H        1 ZINC000095544807    0.0600
113    H113   -4.0698   -2.7433   13.3273 H        1 ZINC000095544807    0.1100
114    H114    2.9074   -0.6453    6.9213 H        1 ZINC000095544807    0.0800
115    H115    2.7295   -0.3966    5.1658 H        1 ZINC000095544807    0.1000
@<TRIPOS>BOND
1     1     2     1
2     1     64    1
3     1     65    1
4     1     66    1
5     2     3     1
6     2     67    1
7     2     68    1
8     3     9     1
9     3     4     2
10    4     5     1
11    4     69    1
12    5     6     1
13    5     63    1
14    5     7     1
15    7     8     1
16    7     70    1
17    7     71    1
18    8     9     1
19    8     10    1
20    9     72    1
21    9     73    1
22    10    11    1
23    10    74    1
24    10    75    1
25    11    12    1
26    11    76    1
27    11    77    1
28    12    20    1
29    12    13    2
30    13    14    1
31    13    21    1
32    14    15    1
33    14    78    1
34    15    20    ar
35    15    16    ar
36    16    17    ar
37    16    79    1
38    17    18    ar
39    17    80    1
40    18    19    ar
41    18    81    1
42    19    20    ar
43    19    82    1
44    21    22    1
45    21    26    1
46    21    63    1
47    22    23    2
48    22    24    1
49    24    25    1
50    25    83    1
51    25    84    1
52    25    85    1
53    26    31    ar
54    26    27    ar
55    27    28    ar
56    27    86    1
57    28    38    1
58    28    29    ar
59    29    30    ar
60    29    34    1
61    30    31    ar
62    30    87    1
63    31    32    1
64    32    33    1
65    33    88    1
66    33    89    1
67    33    90    1
68    34    35    1
69    34    36    1
70    35    91    1
71    35    92    1
72    35    93    1
73    36    37    1
74    36    57    1
75    36    38    1
76    38    49    1
77    38    39    1
78    39    40    1
79    39    94    1
80    39    95    1
81    40    41    1
82    40    96    1
83    40    97    1
84    41    42    1
85    41    49    1
86    41    43    1
87    43    44    1
88    43    98    1
89    43    99    1
90    44    45    2
91    44    100   1
92    45    46    1
93    45    101   1
94    46    47    1
95    46    49    1
96    46    51    1
97    47    48    1
98    47    102   1
99    47    103   1
100   48    104   1
101   48    105   1
102   48    106   1
103   49    50    1
104   51    52    1
105   51    53    1
106   51    57    1
107   53    54    1
108   54    55    1
109   54    56    2
110   55    107   1
111   55    108   1
112   55    109   1
113   57    58    1
114   57    59    1
115   58    110   1
116   59    60    2
117   59    61    1
118   61    62    1
119   62    111   1
120   62    112   1
121   62    113   1
122   63    114   1
123   63    115   1
@<TRIPOS>SUBSTRUCTURE
1   ZINC000095544807 1     RESIDUE    1   A     ZIN   1
