@<TRIPOS>MOLECULE
ZINC000000004695
  41   43    0    0    0
SMALL
USER_CHARGES
NO_NAME
@<TRIPOS>ATOM
    1 C1       -0.0178     1.4608     0.0101 C.3    1 <0>       0.0900
    2 N2        0.0021    -0.0041     0.0020 N.am   1 <0>      -0.3900
    3 N3        0.0057    -0.6950    -1.2152 N.2    1 <0>      -0.3000
    4 C4        0.0234    -2.0040    -1.2419 C.2    1 <0>       0.2900
    5 O5        0.0266    -2.6538    -2.4345 O.3    1 <0>      -0.2700
    6 C6        0.0101    -1.8462    -3.6133 C.3    1 <0>       0.1000
    7 H7       -0.5156    -0.9139    -3.4070 H      1 <0>       0.1100
    8 C8        1.4261    -1.5417    -4.0329 C.ar   1 <0>      -0.2000
    9 C9        2.1232    -0.5652    -3.3496 C.ar   1 <0>      -0.0200
   10 C10       3.4376    -0.2595    -3.7081 C.ar   1 <0>      -0.0700
   11 C11       4.1599     0.7534    -2.9990 C.1    1 <0>       0.2500
   12 N12       4.7329     1.5570    -2.4365 N.1    1 <0>      -0.4200
   13 C13       4.0447    -0.9474    -4.7621 C.ar   1 <0>      -0.0200
   14 C14       3.3432    -1.9179    -5.4394 C.ar   1 <0>      -0.1600
   15 C15       2.0305    -2.2196    -5.0810 C.ar   1 <0>       0.2000
   16 O16       1.3739    -3.1769    -5.7849 O.3    1 <0>      -0.2900
   17 C17       0.1974    -3.7429    -5.2063 C.3    1 <0>       0.1200
   18 C18      -0.5368    -4.5851    -6.2516 C.3    1 <0>      -0.1400
   19 C19       0.5811    -4.6215    -4.0140 C.3    1 <0>      -0.1800
   20 C20      -0.7086    -2.5985    -4.7361 C.3    1 <0>       0.0800
   21 H21      -1.6488    -3.0040    -4.3624 H      1 <0>       0.0900
   22 O22      -0.9663    -1.7097    -5.8249 O.3    1 <0>      -0.5300
   23 C23       0.0395    -2.7427    -0.0442 C.2    1 <0>      -0.0800
   24 C24       0.0363    -2.0918     1.1500 C.2    1 <0>      -0.1300
   25 C25       0.0223    -0.6822     1.1671 C.2    1 <0>       0.4900
   26 O26       0.0193    -0.0801     2.2292 O.2    1 <0>      -0.5300
   27 H27       1.0048     1.8381     0.0023 H      1 <0>       0.0700
   28 H28      -0.5450     1.8219    -0.8730 H      1 <0>       0.0900
   29 H29      -0.5280     1.8123     0.9069 H      1 <0>       0.1000
   30 H30       1.6503    -0.0360    -2.5356 H      1 <0>       0.1400
   31 H31       5.0615    -0.7177    -5.0444 H      1 <0>       0.1400
   32 H32       3.8126    -2.4493    -6.2541 H      1 <0>       0.1500
   33 H33       0.1170    -5.3857    -6.5976 H      1 <0>       0.0700
   34 H34      -1.4340    -5.0153    -5.8066 H      1 <0>       0.0800
   35 H35      -0.8165    -3.9541    -7.0953 H      1 <0>       0.0800
   36 H36       1.0958    -4.0165    -3.2676 H      1 <0>       0.0800
   37 H37      -0.3191    -5.0517    -3.5750 H      1 <0>       0.0800
   38 H38       1.2399    -5.4223    -4.3498 H      1 <0>       0.0800
   39 H39      -1.5346    -0.9615    -5.5959 H      1 <0>       0.3900
   40 H40       0.0541    -3.8222    -0.0732 H      1 <0>       0.1600
   41 H41       0.0486    -2.6487     2.0753 H      1 <0>       0.1700
@<TRIPOS>BOND
   1    1    2 1
   2    1   27 1
   3    1   28 1
   4    1   29 1
   5    2   25 am
   6    2    3 1
   7    3    4 2
   8    4    5 1
   9    4   23 1
  10    5    6 1
  11    6    7 1
  12    6   20 1
  13    6    8 1
  14    8   15 ar
  15    8    9 ar
  16    9   10 ar
  17    9   30 1
  18   10   11 1
  19   10   13 ar
  20   11   12 3
  21   13   14 ar
  22   13   31 1
  23   14   15 ar
  24   14   32 1
  25   15   16 1
  26   16   17 1
  27   17   18 1
  28   17   19 1
  29   17   20 1
  30   18   33 1
  31   18   34 1
  32   18   35 1
  33   19   36 1
  34   19   37 1
  35   19   38 1
  36   20   21 1
  37   20   22 1
  38   22   39 1
  39   23   24 2
  40   23   40 1
  41   24   25 1
  42   24   41 1
  43   25   26 2
