@<TRIPOS>MOLECULE
ZINC000003798818
58    63    1     0     0
SMALL
USER_CHARGES
@<TRIPOS>ATOM
1      C1     -0.0187    1.5258    0.0104 C.3      1 ZINC000003798818   -0.1900
2      C2      0.0021   -0.0041    0.0020 C.3      1 ZINC000003798818    0.1200
3      H3      0.5123   -0.3556   -0.8948 H        1 ZINC000003798818    0.1100
4      O4      0.6932   -0.4774    1.1597 O.3      1 ZINC000003798818   -0.5500
5      C5     -1.4333   -0.5336    0.0129 C.3      1 ZINC000003798818   -0.2000
6      H6     -2.0458   -0.0834    0.7940 H        1 ZINC000003798818    0.1300
7      C7     -2.0917   -0.5360   -1.3514 C.2      1 ZINC000003798818    0.5200
8      O8     -2.3882    0.3299   -2.1473 O.2      1 ZINC000003798818   -0.4300
9      N9     -2.2194   -1.8924   -1.3343 N.am     1 ZINC000003798818   -0.4800
10     C10    -3.4983   -2.4324   -1.2383 C.2      1 ZINC000003798818    0.0600
11     C11    -4.4331   -2.5046   -2.3687 C.2      1 ZINC000003798818    0.5300
12     O12    -5.5446   -2.9932   -2.2134 O.co2    1 ZINC000003798818   -0.6700
13     O13    -4.1008   -2.0762   -3.4661 O.co2    1 ZINC000003798818   -0.6600
14     C14    -3.7913   -2.8828   -0.0023 C.2      1 ZINC000003798818   -0.1800
15     C15    -5.0667   -3.4849    0.4098 C.ar     1 ZINC000003798818    0.0700
16     C16    -5.8747   -2.8358    1.3479 C.ar     1 ZINC000003798818   -0.1100
17     C17    -7.0732   -3.3999    1.7369 C.ar     1 ZINC000003798818   -0.0400
18     C18    -7.4811   -4.6162    1.1961 C.ar     1 ZINC000003798818   -0.1900
19     C19    -8.6888   -5.4451    1.4168 C.2      1 ZINC000003798818    0.4600
20     O20    -9.6102   -5.1918    2.1665 O.2      1 ZINC000003798818   -0.4300
21     C21    -8.5623   -6.6404    0.5509 C.ar     1 ZINC000003798818   -0.1800
22     C22    -9.3876   -7.7411    0.3503 C.ar     1 ZINC000003798818   -0.0300
23     C23    -9.0109   -8.7328   -0.5401 C.ar     1 ZINC000003798818   -0.1800
24     C24    -9.9060   -9.9255   -0.7576 C.3      1 ZINC000003798818    0.1400
25     N25   -10.8418   -9.6413   -1.8483 N.pl3    1 ZINC000003798818   -0.3700
26     C26   -12.0190   -9.0951   -1.7107 C.cat    1 ZINC000003798818    0.2800
27     N27   -12.5925   -8.9896   -2.9287 N.pl3    1 ZINC000003798818   -0.4100
28     C28   -13.9149   -8.4314   -3.2215 C.3      1 ZINC000003798818    0.0600
29     C29   -11.7072   -9.5013   -3.8387 C.2      1 ZINC000003798818    0.0200
30     C30   -10.6216   -9.8962   -3.1466 C.2      1 ZINC000003798818    0.0000
31     C31    -7.8184   -8.6327   -1.2298 C.ar     1 ZINC000003798818   -0.0500
32     C32    -6.9863   -7.5406   -1.0386 C.ar     1 ZINC000003798818   -0.1100
33     C33    -7.3494   -6.5381   -0.1504 C.ar     1 ZINC000003798818    0.0400
34     C34    -6.6740   -5.2762    0.2508 C.ar     1 ZINC000003798818   -0.0600
35     C35    -5.4754   -4.7081   -0.1428 C.ar     1 ZINC000003798818   -0.0200
36     C36    -2.5901   -2.6663    0.8898 C.3      1 ZINC000003798818   -0.0800
37     C37    -1.5262   -2.0643   -0.0382 C.3      1 ZINC000003798818    0.0700
38     H38    -0.5814   -2.6072   -0.0634 H        1 ZINC000003798818    0.1400
39     H39     1.0039    1.9031    0.0027 H        1 ZINC000003798818    0.0700
40     H40    -0.5459    1.8868   -0.8726 H        1 ZINC000003798818    0.0700
41     H41    -0.5289    1.8773    0.9072 H        1 ZINC000003798818    0.0600
42     H42     0.2938   -0.2021    1.9962 H        1 ZINC000003798818    0.3800
43     H43    -5.5608   -1.8921    1.7691 H        1 ZINC000003798818    0.1300
44     H44    -7.6954   -2.8968    2.4624 H        1 ZINC000003798818    0.1300
45     H45   -10.3205   -7.8228    0.8882 H        1 ZINC000003798818    0.1300
46     H46    -9.2989  -10.7930   -1.0166 H        1 ZINC000003798818    0.1300
47     H47   -10.4642  -10.1323    0.1555 H        1 ZINC000003798818    0.1300
48     H48   -12.4612   -8.7796   -0.7773 H        1 ZINC000003798818    0.2500
49     H49   -13.8240   -7.3618   -3.4107 H        1 ZINC000003798818    0.1100
50     H50   -14.3296   -8.9222   -4.1020 H        1 ZINC000003798818    0.1200
51     H51   -14.5750   -8.5949   -2.3697 H        1 ZINC000003798818    0.1100
52     H52   -11.8501   -9.5710   -4.9070 H        1 ZINC000003798818    0.2200
53     H53    -9.7324  -10.3461   -3.5631 H        1 ZINC000003798818    0.2200
54     H54    -7.5322   -9.4105   -1.9222 H        1 ZINC000003798818    0.1400
55     H55    -6.0553   -7.4697   -1.5813 H        1 ZINC000003798818    0.1400
56     H56    -4.8540   -5.2067   -0.8719 H        1 ZINC000003798818    0.1300
57     H57    -2.8323   -1.9694    1.6922 H        1 ZINC000003798818    0.0800
58     H58    -2.2443   -3.6152    1.2998 H        1 ZINC000003798818    0.0900
@<TRIPOS>BOND
1     1     2     1
2     1     39    1
3     1     40    1
4     1     41    1
5     2     3     1
6     2     4     1
7     2     5     1
8     4     42    1
9     5     6     1
10    5     37    1
11    5     7     1
12    7     8     2
13    7     9     am
14    9     37    1
15    9     10    1
16    10    11    1
17    10    14    2
18    11    12    ar
19    11    13    ar
20    14    15    1
21    14    36    1
22    15    35    ar
23    15    16    ar
24    16    17    ar
25    16    43    1
26    17    18    ar
27    17    44    1
28    18    34    ar
29    18    19    1
30    19    20    2
31    19    21    1
32    21    33    ar
33    21    22    ar
34    22    23    ar
35    22    45    1
36    23    24    1
37    23    31    ar
38    24    25    1
39    24    46    1
40    24    47    1
41    25    30    1
42    25    26    ar
43    26    27    ar
44    26    48    1
45    27    28    1
46    27    29    1
47    28    49    1
48    28    50    1
49    28    51    1
50    29    30    2
51    29    52    1
52    30    53    1
53    31    32    ar
54    31    54    1
55    32    33    ar
56    32    55    1
57    33    34    1
58    34    35    ar
59    35    56    1
60    36    37    1
61    36    57    1
62    36    58    1
63    37    38    1
@<TRIPOS>SUBSTRUCTURE
1   ZINC000003798818 1     RESIDUE    1   A     ZIN   1
