@<TRIPOS>MOLECULE
ZINC000004791507
75    77    1     0     0
SMALL
USER_CHARGES
@<TRIPOS>ATOM
1      C1     -0.0160    1.3287    0.0093 C.2      1 ZINC000004791507   -0.1600
2      C2      0.0021   -0.0041    0.0020 C.2      1 ZINC000004791507   -0.1300
3      C3     -1.2458   -0.7957    0.0034 C.2      1 ZINC000004791507   -0.0800
4      C4     -2.2888   -0.4702    0.7946 C.2      1 ZINC000004791507   -0.1100
5      C5     -2.2010    0.6928    1.6807 C.2      1 ZINC000004791507   -0.1500
6      C6     -3.2315    1.0144    2.4625 C.2      1 ZINC000004791507   -0.0800
7      C7     -4.5223    0.2081    2.4828 C.3      1 ZINC000004791507   -0.0900
8      C8     -4.9173   -0.1433    3.9158 C.3      1 ZINC000004791507   -0.1200
9      C9     -4.8665    1.0854    4.8394 C.3      1 ZINC000004791507   -0.1100
10     C10    -3.4543    1.6214    4.8074 C.3      1 ZINC000004791507   -0.0500
11     C11    -2.4723    0.4739    5.0518 C.3      1 ZINC000004791507   -0.1500
12     C12    -3.1997    2.1930    3.3895 C.3      1 ZINC000004791507   -0.0600
13     H13    -3.9666    2.9189    3.1192 H        1 ZINC000004791507    0.0800
14     C14    -1.8466    2.8812    3.5834 C.3      1 ZINC000004791507   -0.1200
15     C15    -2.0103    3.5773    4.9641 C.3      1 ZINC000004791507   -0.1200
16     C16    -3.1032    2.7859    5.7205 C.3      1 ZINC000004791507   -0.0700
17     H17    -3.9793    3.4131    5.8852 H        1 ZINC000004791507    0.0700
18     C18    -2.5598    2.2722    7.0553 C.3      1 ZINC000004791507   -0.0500
19     H19    -1.6924    1.6375    6.8744 H        1 ZINC000004791507    0.0800
20     C20    -3.6439    1.4628    7.7697 C.3      1 ZINC000004791507   -0.1500
21     C21    -2.1562    3.4412    7.9165 C.2      1 ZINC000004791507   -0.1300
22     C22    -0.9156    3.5597    8.3204 C.2      1 ZINC000004791507   -0.1900
23     C23    -0.5119    4.7286    9.1816 C.3      1 ZINC000004791507    0.1700
24     C24     0.5722    5.5381    8.4672 C.3      1 ZINC000004791507   -0.1400
25     O25    -1.6492    5.5607    9.4188 O.3      1 ZINC000004791507   -0.5500
26     C26     0.0315    4.2149   10.5164 C.3      1 ZINC000004791507   -0.1200
27     C27     0.4413    5.4017   11.3908 C.3      1 ZINC000004791507   -0.1500
28     C28    -1.0526    3.4055   11.2308 C.3      1 ZINC000004791507   -0.1500
29     C29    -1.2973   -1.9907   -0.9275 C.3      1 ZINC000004791507   -0.1100
30     C30     0.0043   -2.7830   -0.7683 C.3      1 ZINC000004791507    0.1100
31     H31     0.0799   -3.1542    0.2537 H        1 ZINC000004791507    0.0700
32     O32     0.0024   -3.8870   -1.6757 O.3      1 ZINC000004791507   -0.5700
33     C33     1.2007   -1.8801   -1.0710 C.3      1 ZINC000004791507   -0.1100
34     C34     1.3034   -0.7809   -0.0146 C.3      1 ZINC000004791507    0.1500
35     H35     2.1291   -0.1126   -0.2591 H        1 ZINC000004791507    0.0700
36     O36     1.5228   -1.3669    1.2701 O.3      1 ZINC000004791507   -0.5600
37     H37     0.9119    1.8814    0.0035 H        1 ZINC000004791507    0.1100
38     H38    -0.9585    1.8559    0.0167 H        1 ZINC000004791507    0.1100
39     H39    -3.1886   -1.0672    0.7747 H        1 ZINC000004791507    0.1200
40     H40    -1.3011    1.2898    1.7006 H        1 ZINC000004791507    0.1300
41     H41    -5.3188    0.7941    2.0243 H        1 ZINC000004791507    0.0700
42     H42    -4.3805   -0.7108    1.9139 H        1 ZINC000004791507    0.0700
43     H43    -5.9300   -0.5464    3.9164 H        1 ZINC000004791507    0.0600
44     H44    -4.2341   -0.9024    4.2966 H        1 ZINC000004791507    0.0700
45     H45    -5.5594    1.8466    4.4810 H        1 ZINC000004791507    0.0600
46     H46    -5.1288    0.7946    5.8566 H        1 ZINC000004791507    0.0700
47     H47    -2.6026   -0.2861    4.2815 H        1 ZINC000004791507    0.0600
48     H48    -1.4518    0.8554    5.0169 H        1 ZINC000004791507    0.0500
49     H49    -2.6628    0.0350    6.0312 H        1 ZINC000004791507    0.0600
50     H50    -1.0410    2.1477    3.6138 H        1 ZINC000004791507    0.0700
51     H51    -1.6714    3.6168    2.7984 H        1 ZINC000004791507    0.0600
52     H52    -1.0707    3.5406    5.5155 H        1 ZINC000004791507    0.0700
53     H53    -2.3241    4.6121    4.8268 H        1 ZINC000004791507    0.0600
54     H54    -4.5114    2.0975    7.9506 H        1 ZINC000004791507    0.0500
55     H55    -3.9359    0.6173    7.1468 H        1 ZINC000004791507    0.0700
56     H56    -3.2568    1.0968    8.7207 H        1 ZINC000004791507    0.0500
57     H57    -2.8896    4.1812    8.2008 H        1 ZINC000004791507    0.1100
58     H58    -0.1822    2.8196    8.0361 H        1 ZINC000004791507    0.1100
59     H59     0.1850    5.9040    7.5162 H        1 ZINC000004791507    0.0600
60     H60     0.8641    6.3835    9.0901 H        1 ZINC000004791507    0.0700
61     H61     1.4396    4.9034    8.2863 H        1 ZINC000004791507    0.0700
62     H62    -2.3776    5.1121    9.8697 H        1 ZINC000004791507    0.3700
63     H63     0.8990    3.5802   10.3355 H        1 ZINC000004791507    0.0800
64     H64    -0.4262    6.0364   11.5717 H        1 ZINC000004791507    0.0600
65     H65     0.8284    5.0358   12.3418 H        1 ZINC000004791507    0.0500
66     H66     1.2136    5.9784   10.8818 H        1 ZINC000004791507    0.0600
67     H67    -1.3446    2.5600   10.6079 H        1 ZINC000004791507    0.0600
68     H68    -0.6655    3.0395   12.1818 H        1 ZINC000004791507    0.0600
69     H69    -1.9201    4.0402   11.4118 H        1 ZINC000004791507    0.0500
70     H70    -2.1462   -2.6229   -0.6668 H        1 ZINC000004791507    0.0700
71     H71    -1.3958   -1.6495   -1.9580 H        1 ZINC000004791507    0.0800
72     H72    -0.7277   -4.5064   -1.5400 H        1 ZINC000004791507    0.3800
73     H73     2.1140   -2.4751   -1.0663 H        1 ZINC000004791507    0.0800
74     H74     1.0715   -1.4243   -2.0527 H        1 ZINC000004791507    0.0800
75     H75     1.5977   -0.7237    1.9883 H        1 ZINC000004791507    0.3800
@<TRIPOS>BOND
1     1     2     2
2     1     37    1
3     1     38    1
4     2     34    1
5     2     3     1
6     3     4     2
7     3     29    1
8     4     5     1
9     4     39    1
10    5     6     2
11    5     40    1
12    6     12    1
13    6     7     1
14    7     8     1
15    7     41    1
16    7     42    1
17    8     9     1
18    8     43    1
19    8     44    1
20    9     10    1
21    9     45    1
22    9     46    1
23    10    16    1
24    10    11    1
25    10    12    1
26    11    47    1
27    11    48    1
28    11    49    1
29    12    13    1
30    12    14    1
31    14    15    1
32    14    50    1
33    14    51    1
34    15    16    1
35    15    52    1
36    15    53    1
37    16    17    1
38    16    18    1
39    18    19    1
40    18    20    1
41    18    21    1
42    20    54    1
43    20    55    1
44    20    56    1
45    21    22    2
46    21    57    1
47    22    23    1
48    22    58    1
49    23    24    1
50    23    25    1
51    23    26    1
52    24    59    1
53    24    60    1
54    24    61    1
55    25    62    1
56    26    27    1
57    26    28    1
58    26    63    1
59    27    64    1
60    27    65    1
61    27    66    1
62    28    67    1
63    28    68    1
64    28    69    1
65    29    30    1
66    29    70    1
67    29    71    1
68    30    31    1
69    30    32    1
70    30    33    1
71    32    72    1
72    33    34    1
73    33    73    1
74    33    74    1
75    34    35    1
76    34    36    1
77    36    75    1
@<TRIPOS>SUBSTRUCTURE
1   ZINC000004791507 1     RESIDUE    1   A     ZIN   1
