@<TRIPOS>MOLECULE
ZINC000003580965
51    53    1     0     0
SMALL
USER_CHARGES
@<TRIPOS>ATOM
1      C1      1.4490    0.9970   -0.5563 C.3      1 ZINC000003580965   -0.1500
2      C2      1.0845   -0.4423   -0.9257 C.3      1 ZINC000003580965   -0.0200
3      C3      2.0119   -1.4090   -0.1866 C.3      1 ZINC000003580965   -0.1600
4      C4     -0.3440   -0.7158   -0.5310 C.2      1 ZINC000003580965   -0.2400
5      C5     -1.2644   -1.0299   -1.4676 C.2      1 ZINC000003580965    0.2000
6      C6     -0.8698   -1.1103   -2.9198 C.3      1 ZINC000003580965   -0.0600
7      C7     -0.4367   -2.5165   -3.2455 C.ar     1 ZINC000003580965   -0.0900
8      C8      0.8626   -2.9155   -2.9932 C.ar     1 ZINC000003580965   -0.1100
9      C9      1.2599   -4.2053   -3.2919 C.ar     1 ZINC000003580965   -0.1100
10     C10     0.3579   -5.0964   -3.8426 C.ar     1 ZINC000003580965   -0.1100
11     C11    -0.9416   -4.6977   -4.0941 C.ar     1 ZINC000003580965   -0.1100
12     C12    -1.3401   -3.4091   -3.7914 C.ar     1 ZINC000003580965   -0.1200
13     N13    -2.5571   -1.2752   -1.0919 N.am     1 ZINC000003580965   -0.5400
14     C14    -3.5558   -1.6160   -2.1080 C.3      1 ZINC000003580965    0.2700
15     O15    -4.4176   -0.4966   -2.3232 O.3      1 ZINC000003580965   -0.3600
16     C16    -3.8411    0.5347   -3.1271 C.3      1 ZINC000003580965    0.0900
17     C17    -4.7884    1.7045   -3.1986 C.ar     1 ZINC000003580965   -0.1000
18     C18    -5.7376    1.7649   -4.2018 C.ar     1 ZINC000003580965   -0.1000
19     C19    -6.6066    2.8380   -4.2674 C.ar     1 ZINC000003580965   -0.1200
20     C20    -6.5266    3.8505   -3.3297 C.ar     1 ZINC000003580965   -0.1100
21     C21    -5.5780    3.7896   -2.3260 C.ar     1 ZINC000003580965   -0.1200
22     C22    -4.7119    2.7144   -2.2578 C.ar     1 ZINC000003580965   -0.1000
23     C23    -2.9194   -1.2069    0.2020 C.2      1 ZINC000003580965    0.7000
24     O24    -4.0734   -1.4290    0.5139 O.2      1 ZINC000003580965   -0.5200
25     N25    -2.0222   -0.8964    1.1562 N.am     1 ZINC000003580965   -0.6600
26     C26    -0.7375   -0.6526    0.8275 C.2      1 ZINC000003580965    0.5600
27     O27     0.0750   -0.3721    1.6902 O.2      1 ZINC000003580965   -0.5000
28     H28     2.4822    1.1948   -0.8418 H        1 ZINC000003580965    0.0600
29     H29     0.7883    1.6857   -1.0828 H        1 ZINC000003580965    0.0500
30     H30     1.3362    1.1358    0.5189 H        1 ZINC000003580965    0.0700
31     H31     1.1972   -0.5811   -2.0009 H        1 ZINC000003580965    0.0800
32     H32     1.8991   -1.2702    0.8886 H        1 ZINC000003580965    0.0800
33     H33     1.7522   -2.4344   -0.4498 H        1 ZINC000003580965    0.0500
34     H34     3.0450   -1.2112   -0.4721 H        1 ZINC000003580965    0.0600
35     H35    -1.7216   -0.8389   -3.5433 H        1 ZINC000003580965    0.0900
36     H36    -0.0459   -0.4228   -3.1110 H        1 ZINC000003580965    0.1200
37     H37     1.5673   -2.2193   -2.5629 H        1 ZINC000003580965    0.1300
38     H38     2.2752   -4.5168   -3.0954 H        1 ZINC000003580965    0.1300
39     H39     0.6685   -6.1039   -4.0767 H        1 ZINC000003580965    0.1300
40     H40    -1.6463   -5.3937   -4.5247 H        1 ZINC000003580965    0.1300
41     H41    -2.3554   -3.0976   -3.9879 H        1 ZINC000003580965    0.1200
42     H42    -3.0528   -1.8717   -3.0406 H        1 ZINC000003580965    0.1000
43     H43    -4.1447   -2.4677   -1.7675 H        1 ZINC000003580965    0.1300
44     H44    -2.8988    0.8568   -2.6840 H        1 ZINC000003580965    0.0600
45     H45    -3.6586    0.1530   -4.1316 H        1 ZINC000003580965    0.0700
46     H46    -5.8001    0.9739   -4.9344 H        1 ZINC000003580965    0.1200
47     H47    -7.3477    2.8855   -5.0516 H        1 ZINC000003580965    0.1300
48     H48    -7.2050    4.6892   -3.3814 H        1 ZINC000003580965    0.1200
49     H49    -5.5153    4.5808   -1.5935 H        1 ZINC000003580965    0.1300
50     H50    -3.9708    2.6669   -1.4737 H        1 ZINC000003580965    0.1200
51     H51    -2.3003   -0.8515    2.0844 H        1 ZINC000003580965    0.4300
@<TRIPOS>BOND
1     1     2     1
2     1     28    1
3     1     29    1
4     1     30    1
5     2     3     1
6     2     4     1
7     2     31    1
8     3     32    1
9     3     33    1
10    3     34    1
11    4     26    1
12    4     5     2
13    5     6     1
14    5     13    1
15    6     7     1
16    6     35    1
17    6     36    1
18    7     12    ar
19    7     8     ar
20    8     9     ar
21    8     37    1
22    9     10    ar
23    9     38    1
24    10    11    ar
25    10    39    1
26    11    12    ar
27    11    40    1
28    12    41    1
29    13    14    1
30    13    23    am
31    14    15    1
32    14    42    1
33    14    43    1
34    15    16    1
35    16    17    1
36    16    44    1
37    16    45    1
38    17    22    ar
39    17    18    ar
40    18    19    ar
41    18    46    1
42    19    20    ar
43    19    47    1
44    20    21    ar
45    20    48    1
46    21    22    ar
47    21    49    1
48    22    50    1
49    23    24    2
50    23    25    am
51    25    26    am
52    25    51    1
53    26    27    2
@<TRIPOS>SUBSTRUCTURE
1   ZINC000003580965 1     RESIDUE    1   A     ZIN   1
