@<TRIPOS>MOLECULE
ZINC000003990028
35    37    1     0     0
SMALL
USER_CHARGES
@<TRIPOS>ATOM
1      O1      0.0021   -0.0041    0.0020 O.2      1 ZINC000003990028   -0.5300
2      C2     -0.0144    1.2114    0.0087 C.2      1 ZINC000003990028    0.5600
3      N3      1.1435    1.9011    0.0014 N.am     1 ZINC000003990028   -0.7200
4      C4      2.4220    1.1860   -0.0147 C.3      1 ZINC000003990028    0.1200
5      H5      2.3356    0.2703    0.5703 H        1 ZINC000003990028    0.0900
6      C6      2.7979    0.8392   -1.4582 C.3      1 ZINC000003990028    0.0400
7      N7      4.0797    1.4736   -1.7937 N.3      1 ZINC000003990028   -0.5300
8      C8      3.9814    2.9375   -1.7126 C.3      1 ZINC000003990028    0.0500
9      C9      3.6383    3.3443   -0.2767 C.3      1 ZINC000003990028   -0.1500
10     C10     3.5171    2.0773    0.5844 C.3      1 ZINC000003990028   -0.1000
11     C11     4.8493    1.3190    0.5295 C.3      1 ZINC000003990028   -0.1500
12     C12     5.1592    0.9706   -0.9329 C.3      1 ZINC000003990028    0.0500
13     C13    -1.3042    1.9329    0.0187 C.ar     1 ZINC000003990028   -0.1300
14     C14    -1.3263    3.3288    0.0207 C.ar     1 ZINC000003990028   -0.0700
15     C15    -2.5328    3.9964    0.0301 C.ar     1 ZINC000003990028   -0.1200
16     C16    -3.7212    3.2849    0.0376 C.ar     1 ZINC000003990028   -0.0100
17     Cl17   -5.2362    4.1324    0.0495 Cl       1 ZINC000003990028   -0.0600
18     C18    -3.7056    1.8999    0.0353 C.ar     1 ZINC000003990028   -0.1200
19     C19    -2.5053    1.2212    0.0206 C.ar     1 ZINC000003990028   -0.0500
20     H20     1.1303    2.8710    0.0067 H        1 ZINC000003990028    0.4000
21     H21     2.8896   -0.2422   -1.5603 H        1 ZINC000003990028    0.0900
22     H22     2.0238    1.2041   -2.1332 H        1 ZINC000003990028    0.0800
23     H23     4.9344    3.3825   -1.9987 H        1 ZINC000003990028    0.0800
24     H24     3.1993    3.2874   -2.3864 H        1 ZINC000003990028    0.0800
25     H25     4.4283    3.9813    0.1210 H        1 ZINC000003990028    0.0700
26     H26     2.6914    3.8840   -0.2664 H        1 ZINC000003990028    0.0600
27     H27     3.2666    2.3445    1.6110 H        1 ZINC000003990028    0.0900
28     H28     5.6444    1.9482    0.9297 H        1 ZINC000003990028    0.0700
29     H29     4.7736    0.4046    1.1178 H        1 ZINC000003990028    0.0700
30     H30     5.2339   -0.1115   -1.0409 H        1 ZINC000003990028    0.0800
31     H31     6.1028    1.4316   -1.2246 H        1 ZINC000003990028    0.0800
32     H32    -0.4004    3.8847    0.0151 H        1 ZINC000003990028    0.1300
33     H33    -2.5512    5.0763    0.0319 H        1 ZINC000003990028    0.1400
34     H34    -4.6353    1.3504    0.0409 H        1 ZINC000003990028    0.1400
35     H35    -2.4943    0.1412    0.0184 H        1 ZINC000003990028    0.1500
@<TRIPOS>BOND
1     1     2     2
2     2     3     am
3     2     13    1
4     3     4     1
5     3     20    1
6     4     5     1
7     4     10    1
8     4     6     1
9     6     7     1
10    6     21    1
11    6     22    1
12    7     12    1
13    7     8     1
14    8     9     1
15    8     23    1
16    8     24    1
17    9     10    1
18    9     25    1
19    9     26    1
20    10    11    1
21    10    27    1
22    11    12    1
23    11    28    1
24    11    29    1
25    12    30    1
26    12    31    1
27    13    19    ar
28    13    14    ar
29    14    15    ar
30    14    32    1
31    15    16    ar
32    15    33    1
33    16    17    1
34    16    18    ar
35    18    19    ar
36    18    34    1
37    19    35    1
@<TRIPOS>SUBSTRUCTURE
1   ZINC000003990028 1     RESIDUE    1   A     ZIN   1
