@<TRIPOS>MOLECULE
ZINC000003938687
68    70    1     0     0
SMALL
USER_CHARGES
@<TRIPOS>ATOM
1      C1     -0.6255    1.7500   -0.0353 C.3      1 ZINC000003938687   -0.1200
2      C2     -1.0046    0.2914   -0.0380 C.2      1 ZINC000003938687   -0.1300
3      C3     -1.0904   -0.4672    1.2613 C.3      1 ZINC000003938687   -0.1200
4      C4     -1.2596   -0.3170   -1.1698 C.2      1 ZINC000003938687   -0.1700
5      C5     -1.0504    0.4038   -2.4765 C.3      1 ZINC000003938687   -0.0900
6      C6     -0.1232   -0.4212   -3.3713 C.3      1 ZINC000003938687   -0.0800
7      C7      0.0861    0.2996   -4.6781 C.2      1 ZINC000003938687   -0.1300
8      C8     -0.9074    0.1317   -5.7988 C.3      1 ZINC000003938687   -0.1200
9      C9      1.1315    1.0722   -4.8399 C.2      1 ZINC000003938687   -0.1600
10     C10     1.2753    1.8922   -6.0960 C.3      1 ZINC000003938687   -0.0800
11     C11     1.4676    3.3641   -5.7251 C.3      1 ZINC000003938687   -0.0800
12     C12     1.6114    4.1840   -6.9813 C.2      1 ZINC000003938687   -0.1100
13     C13     2.9597    4.3235   -7.6399 C.3      1 ZINC000003938687   -0.1300
14     C14     0.5644    4.7756   -7.5008 C.2      1 ZINC000003938687   -0.1800
15     C15     0.6827    5.4958   -8.8193 C.3      1 ZINC000003938687    0.1200
16     N16    -0.3214    4.9767   -9.7511 N.am     1 ZINC000003938687   -0.5300
17     C17     0.0649    3.8930  -10.5387 C.ar     1 ZINC000003938687    0.1700
18     C18     1.3499    3.8709  -11.0717 C.ar     1 ZINC000003938687   -0.1700
19     C19     1.7755    2.7906  -11.8279 C.ar     1 ZINC000003938687    0.1400
20     O20     3.0320    2.7788  -12.3477 O.3      1 ZINC000003938687   -0.4900
21     C21     0.9224    1.7221  -12.0559 C.ar     1 ZINC000003938687   -0.1700
22     C22    -0.3640    1.7435  -11.5392 C.ar     1 ZINC000003938687    0.1400
23     O23    -1.2021    0.6955  -11.7606 O.3      1 ZINC000003938687   -0.4800
24     C24    -0.7993    2.8358  -10.7947 C.ar     1 ZINC000003938687    0.1100
25     N25    -2.1345    2.8757  -10.3548 N.pl3    1 ZINC000003938687   -0.7100
26     C26    -2.9699    3.8859  -10.8197 C.ar     1 ZINC000003938687    0.1800
27     C27    -4.1234    3.5642  -11.5314 C.ar     1 ZINC000003938687    0.0800
28     O28    -4.4518    2.2612  -11.7421 O.3      1 ZINC000003938687   -0.4800
29     C29    -4.9355    4.5714  -12.0237 C.ar     1 ZINC000003938687   -0.1000
30     C30    -4.6043    5.9001  -11.8141 C.ar     1 ZINC000003938687   -0.1200
31     C31    -3.4739    6.2333  -11.1007 C.ar     1 ZINC000003938687   -0.0500
32     C32    -2.6510    5.2284  -10.5798 C.ar     1 ZINC000003938687   -0.1500
33     C33    -1.4965    5.5846   -9.7487 C.2      1 ZINC000003938687    0.5700
34     O34    -1.6291    6.5278   -8.9931 O.2      1 ZINC000003938687   -0.5200
35     H35    -0.5407    2.1014    0.9930 H        1 ZINC000003938687    0.0600
36     H36     0.3305    1.8778   -0.5430 H        1 ZINC000003938687    0.0700
37     H37    -1.3922    2.3256   -0.5540 H        1 ZINC000003938687    0.0600
38     H38    -2.1023   -0.3926    1.6595 H        1 ZINC000003938687    0.0700
39     H39    -0.8447   -1.5148    1.0873 H        1 ZINC000003938687    0.0600
40     H40    -0.3862   -0.0429    1.9769 H        1 ZINC000003938687    0.0600
41     H41    -1.6198   -1.3351   -1.1663 H        1 ZINC000003938687    0.1100
42     H42    -2.0104    0.5390   -2.9747 H        1 ZINC000003938687    0.0700
43     H43    -0.5995    1.3778   -2.2861 H        1 ZINC000003938687    0.0700
44     H44     0.8368   -0.5564   -2.8731 H        1 ZINC000003938687    0.0700
45     H45    -0.5740   -1.3951   -3.5617 H        1 ZINC000003938687    0.0700
46     H46    -1.6530   -0.6110   -5.5150 H        1 ZINC000003938687    0.0600
47     H47    -1.3995    1.0845   -5.9939 H        1 ZINC000003938687    0.0600
48     H48    -0.3881   -0.2000   -6.6979 H        1 ZINC000003938687    0.0600
49     H49     1.8904    1.1216   -4.0730 H        1 ZINC000003938687    0.1100
50     H50     2.1403    1.5437   -6.6604 H        1 ZINC000003938687    0.0700
51     H51     0.3774    1.7852   -6.7046 H        1 ZINC000003938687    0.0700
52     H52     0.6026    3.7125   -5.1608 H        1 ZINC000003938687    0.0700
53     H53     2.3656    3.4711   -5.1166 H        1 ZINC000003938687    0.0700
54     H54     3.6885    3.7110   -7.1090 H        1 ZINC000003938687    0.0700
55     H55     2.8937    3.9930   -8.6765 H        1 ZINC000003938687    0.0700
56     H56     3.2722    5.3673   -7.6105 H        1 ZINC000003938687    0.0700
57     H57    -0.3836    4.7472   -6.9842 H        1 ZINC000003938687    0.1100
58     H58     0.5195    6.5626   -8.6665 H        1 ZINC000003938687    0.1000
59     H59     1.6787    5.3361   -9.2324 H        1 ZINC000003938687    0.0900
60     H60     2.0190    4.7002  -10.8954 H        1 ZINC000003938687    0.1400
61     H61     3.6944    2.3810  -11.7663 H        1 ZINC000003938687    0.4000
62     H62     1.2592    0.8745  -12.6344 H        1 ZINC000003938687    0.1400
63     H63    -1.1543    0.0043  -11.0860 H        1 ZINC000003938687    0.3900
64     H64    -2.4681    2.2080   -9.7353 H        1 ZINC000003938687    0.4100
65     H65    -5.0096    1.8794  -11.0506 H        1 ZINC000003938687    0.3900
66     H66    -5.8305    4.3204  -12.5736 H        1 ZINC000003938687    0.1400
67     H67    -5.2362    6.6799  -12.2129 H        1 ZINC000003938687    0.1400
68     H68    -3.2224    7.2718  -10.9432 H        1 ZINC000003938687    0.1400
@<TRIPOS>BOND
1     1     2     1
2     1     35    1
3     1     36    1
4     1     37    1
5     2     3     1
6     2     4     2
7     3     38    1
8     3     39    1
9     3     40    1
10    4     5     1
11    4     41    1
12    5     6     1
13    5     42    1
14    5     43    1
15    6     7     1
16    6     44    1
17    6     45    1
18    7     8     1
19    7     9     2
20    8     46    1
21    8     47    1
22    8     48    1
23    9     10    1
24    9     49    1
25    10    11    1
26    10    50    1
27    10    51    1
28    11    12    1
29    11    52    1
30    11    53    1
31    12    13    1
32    12    14    2
33    13    54    1
34    13    55    1
35    13    56    1
36    14    15    1
37    14    57    1
38    15    16    1
39    15    58    1
40    15    59    1
41    16    33    am
42    16    17    1
43    17    24    ar
44    17    18    ar
45    18    19    ar
46    18    60    1
47    19    20    1
48    19    21    ar
49    20    61    1
50    21    22    ar
51    21    62    1
52    22    23    1
53    22    24    ar
54    23    63    1
55    24    25    1
56    25    26    1
57    25    64    1
58    26    32    ar
59    26    27    ar
60    27    28    1
61    27    29    ar
62    28    65    1
63    29    30    ar
64    29    66    1
65    30    31    ar
66    30    67    1
67    31    32    ar
68    31    68    1
69    32    33    1
70    33    34    2
@<TRIPOS>SUBSTRUCTURE
1   ZINC000003938687 1     RESIDUE    1   A     ZIN   1
