@<TRIPOS>MOLECULE
ZINC000000579168
  56   59    0    0    0
SMALL
USER_CHARGES
NO_NAME
@<TRIPOS>ATOM
    1 N1        0.0175    -1.1399    -0.0041 N.1    1 <0>      -0.4200
    2 C2        0.0021    -0.0041     0.0021 C.1    1 <0>       0.2500
    3 C3       -0.0173     1.4278     0.0099 C.ar   1 <0>      -0.0900
    4 C4        1.1824     2.1449    -0.0214 C.ar   1 <0>      -0.0200
    5 C5        1.1601     3.5212    -0.0138 C.ar   1 <0>      -0.2000
    6 C6       -0.0549     4.1989     0.0250 C.ar   1 <0>       0.2500
    7 N7       -0.0738     5.5906     0.0326 N.pl3  1 <0>      -0.6200
    8 C8       -1.3460     6.3219    -0.0493 C.3    1 <0>       0.1000
    9 C9       -1.4404     7.2767     1.1472 C.3    1 <0>       0.1000
   10 N10      -0.1886     8.0412     1.2379 N.am   1 <0>      -0.6100
   11 C11      -0.2070     9.3888     1.2462 C.2    1 <0>       0.5200
   12 O12      -1.2630     9.9813     1.1784 O.2    1 <0>      -0.5100
   13 C13       1.0847    10.1594     1.3396 C.3    1 <0>       0.0400
   14 O14       0.8051    11.5608     1.3304 O.3    1 <0>      -0.2900
   15 C15       1.8697    12.4033     1.4089 C.ar   1 <0>       0.1200
   16 C16       3.1596    11.8852     1.4872 C.ar   1 <0>      -0.1800
   17 C17       4.2489    12.7241     1.5668 C.ar   1 <0>      -0.0800
   18 C18       4.0660    14.1026     1.5694 C.ar   1 <0>       0.0600
   19 N19       4.9332    15.1727     1.6369 N.pl3  1 <0>      -0.5900
   20 C20       4.2283    16.3447     1.6035 C.2    1 <0>       0.1000
   21 C21       2.9140    16.0862     1.5154 C.2    1 <0>      -0.2100
   22 C22       1.8030    17.1026     1.4531 C.3    1 <0>      -0.0600
   23 C23       1.2488    17.3390     2.8595 C.3    1 <0>      -0.0100
   24 N24       0.1658    18.3297     2.7988 N.4    1 <0>      -0.6400
   25 H25      -0.1997    18.4857     3.7262 H      1 <0>       0.4400
   26 H26       0.5239    19.1972     2.4281 H      1 <0>       0.4300
   27 H27      -0.5706    17.9868     2.2003 H      1 <0>       0.4400
   28 C28       2.7642    14.6292     1.4903 C.ar   1 <0>      -0.0600
   29 C29       1.6674    13.7692     1.4047 C.ar   1 <0>      -0.1200
   30 C30       1.0836     7.3100     1.3199 C.3    1 <0>       0.0900
   31 C31       1.1776     6.3551     0.1290 C.3    1 <0>       0.1000
   32 C32      -1.2511     3.4881     0.0558 C.ar   1 <0>      -0.2000
   33 C33      -1.2362     2.1117     0.0430 C.ar   1 <0>      -0.0200
   34 H34       2.1256     1.6197    -0.0512 H      1 <0>       0.1300
   35 H35       2.0865     4.0758    -0.0376 H      1 <0>       0.1300
   36 H36      -1.3804     6.8933    -0.9769 H      1 <0>       0.0700
   37 H37      -2.1761     5.6161    -0.0206 H      1 <0>       0.1000
   38 H38      -2.2772     7.9604     1.0045 H      1 <0>       0.1100
   39 H39      -1.5858     6.7029     2.0625 H      1 <0>       0.0800
   40 H40       1.5981     9.8974     2.2647 H      1 <0>       0.1000
   41 H41       1.7190     9.9099     0.4889 H      1 <0>       0.1000
   42 H42       3.3073    10.8153     1.4860 H      1 <0>       0.1400
   43 H43       5.2451    12.3114     1.6275 H      1 <0>       0.1300
   44 H44       5.8988    15.1046     1.6992 H      1 <0>       0.4200
   45 H45       4.6648    17.3319     1.6422 H      1 <0>       0.1800
   46 H46       2.1899    18.0396     1.0527 H      1 <0>       0.0900
   47 H47       1.0075    16.7321     0.8066 H      1 <0>       0.0900
   48 H48       0.8619    16.4019     3.2599 H      1 <0>       0.1300
   49 H49       2.0443    17.7095     3.5060 H      1 <0>       0.1300
   50 H50       0.6667    14.1699     1.3384 H      1 <0>       0.1300
   51 H51       1.9137     8.0158     1.2911 H      1 <0>       0.0900
   52 H52       1.1180     6.7385     2.2474 H      1 <0>       0.0800
   53 H53       2.0147     5.6720     0.2730 H      1 <0>       0.1000
   54 H54       1.3223     6.9268    -0.7877 H      1 <0>       0.0700
   55 H55      -2.1922     4.0171     0.0859 H      1 <0>       0.1300
   56 H56      -2.1649     1.5608     0.0665 H      1 <0>       0.1300
@<TRIPOS>BOND
   1    1    2 3
   2    2    3 1
   3    3   33 ar
   4    3    4 ar
   5    4    5 ar
   6    4   34 1
   7    5    6 ar
   8    5   35 1
   9    6    7 1
  10    6   32 ar
  11    7   31 1
  12    7    8 1
  13    8    9 1
  14    8   36 1
  15    8   37 1
  16    9   10 1
  17    9   38 1
  18    9   39 1
  19   10   11 am
  20   10   30 1
  21   11   12 2
  22   11   13 1
  23   13   14 1
  24   13   40 1
  25   13   41 1
  26   14   15 1
  27   15   29 ar
  28   15   16 ar
  29   16   17 ar
  30   16   42 1
  31   17   18 ar
  32   17   43 1
  33   18   28 ar
  34   18   19 1
  35   19   20 1
  36   19   44 1
  37   20   21 2
  38   20   45 1
  39   21   22 1
  40   21   28 1
  41   22   23 1
  42   22   46 1
  43   22   47 1
  44   23   24 1
  45   23   48 1
  46   23   49 1
  47   24   25 1
  48   24   26 1
  49   24   27 1
  50   28   29 ar
  51   29   50 1
  52   30   31 1
  53   30   51 1
  54   30   52 1
  55   31   53 1
  56   31   54 1
  57   32   33 ar
  58   32   55 1
  59   33   56 1
