@<TRIPOS>MOLECULE
ZINC000022042565
  54   56    0    0    0
SMALL
USER_CHARGES
NO_NAME
@<TRIPOS>ATOM
    1 C1       -0.0464     1.9107     0.2094 C.3    1 <0>      -0.1900
    2 C2       -0.0032     0.3958    -0.0008 C.3    1 <0>       0.0900
    3 H3        0.5003     0.1738    -0.9417 H      1 <0>       0.0800
    4 C4       -1.4303    -0.1540    -0.0439 C.3    1 <0>      -0.0800
    5 C5       -1.3925    -1.6242    -0.3729 C.ar   1 <0>      -0.0700
    6 C6       -1.4342    -2.0388    -1.6909 C.ar   1 <0>      -0.1200
    7 C7       -1.3995    -3.3874    -1.9926 C.ar   1 <0>      -0.1200
    8 C8       -1.3227    -4.3213    -0.9764 C.ar   1 <0>      -0.1300
    9 C9       -1.2801    -3.9066     0.3416 C.ar   1 <0>      -0.1200
   10 C10      -1.3105    -2.5579     0.6432 C.ar   1 <0>      -0.1000
   11 N11       0.7300    -0.2315     1.1068 N.3    1 <0>      -0.5300
   12 C12       0.0302    -0.0291     2.3832 C.3    1 <0>       0.0500
   13 C13       0.7820    -0.7631     3.4961 C.3    1 <0>       0.0500
   14 N14       2.1601    -0.2579     3.5684 N.3    1 <0>      -0.5300
   15 C15       2.8933    -0.8852     4.6761 C.3    1 <0>       0.0900
   16 H16       2.9757    -1.9571     4.4963 H      1 <0>       0.0400
   17 C17       2.1415    -0.6442     5.9866 C.3    1 <0>      -0.1500
   18 C18       4.2931    -0.2750     4.7715 C.3    1 <0>      -0.0800
   19 C19       5.0730    -0.9740     5.8551 C.ar   1 <0>      -0.0800
   20 C20       5.1142    -0.4415     7.1301 C.ar   1 <0>      -0.1100
   21 C21       5.8296    -1.0826     8.1241 C.ar   1 <0>      -0.1200
   22 C22       6.5034    -2.2565     7.8432 C.ar   1 <0>      -0.1200
   23 C23       6.4614    -2.7895     6.5685 C.ar   1 <0>      -0.1200
   24 C24       5.7425    -2.1506     5.5755 C.ar   1 <0>      -0.1200
   25 C25       2.8599    -0.4603     2.2921 C.3    1 <0>       0.0500
   26 C26       2.1081     0.2737     1.1792 C.3    1 <0>       0.0600
   27 H27       0.9703     2.3024     0.2401 H      1 <0>       0.0600
   28 H28      -0.5904     2.3762    -0.6125 H      1 <0>       0.0600
   29 H29      -0.5499     2.1327     1.1503 H      1 <0>       0.0600
   30 H30      -1.9043    -0.0110     0.9272 H      1 <0>       0.0700
   31 H31      -2.0005     0.3747    -0.8078 H      1 <0>       0.0800
   32 H32      -1.4942    -1.3092    -2.4849 H      1 <0>       0.1200
   33 H33      -1.4328    -3.7114    -3.0224 H      1 <0>       0.1200
   34 H34      -1.2963    -5.3749    -1.2121 H      1 <0>       0.1200
   35 H35      -1.2205    -4.6363     1.1356 H      1 <0>       0.1200
   36 H36      -1.2772    -2.2339     1.6729 H      1 <0>       0.1200
   37 H37      -0.0086     1.0360     2.6117 H      1 <0>       0.0500
   38 H38      -0.9836    -0.4225     2.3084 H      1 <0>       0.0800
   39 H39       0.2809    -0.5904     4.4485 H      1 <0>       0.0800
   40 H40       0.7972    -1.8316     3.2812 H      1 <0>       0.0400
   41 H41       1.1442    -1.0789     5.9187 H      1 <0>       0.0600
   42 H42       2.6855    -1.1096     6.8085 H      1 <0>       0.0600
   43 H43       2.0591     0.4278     6.1664 H      1 <0>       0.0600
   44 H44       4.8077    -0.3955     3.8181 H      1 <0>       0.0700
   45 H45       4.2117     0.7857     5.0089 H      1 <0>       0.0800
   46 H46       4.5878     0.4757     7.3495 H      1 <0>       0.1200
   47 H47       5.8624    -0.6662     9.1201 H      1 <0>       0.1200
   48 H48       7.0629    -2.7570     8.6197 H      1 <0>       0.1200
   49 H49       6.9881    -3.7064     6.3489 H      1 <0>       0.1200
   50 H50       5.7097    -2.5670     4.5796 H      1 <0>       0.1200
   51 H51       3.8737    -0.0669     2.3668 H      1 <0>       0.0800
   52 H52       2.8987    -1.5254     2.0636 H      1 <0>       0.0400
   53 H53       2.6092     0.1010     0.2267 H      1 <0>       0.0800
   54 H54       2.0929     1.3422     1.3940 H      1 <0>       0.0500
@<TRIPOS>BOND
   1    1    2 1
   2    1   27 1
   3    1   28 1
   4    1   29 1
   5    2    3 1
   6    2    4 1
   7    2   11 1
   8    4    5 1
   9    4   30 1
  10    4   31 1
  11    5   10 ar
  12    5    6 ar
  13    6    7 ar
  14    6   32 1
  15    7    8 ar
  16    7   33 1
  17    8    9 ar
  18    8   34 1
  19    9   10 ar
  20    9   35 1
  21   10   36 1
  22   11   26 1
  23   11   12 1
  24   12   13 1
  25   12   37 1
  26   12   38 1
  27   13   14 1
  28   13   39 1
  29   13   40 1
  30   14   15 1
  31   14   25 1
  32   15   16 1
  33   15   17 1
  34   15   18 1
  35   17   41 1
  36   17   42 1
  37   17   43 1
  38   18   19 1
  39   18   44 1
  40   18   45 1
  41   19   24 ar
  42   19   20 ar
  43   20   21 ar
  44   20   46 1
  45   21   22 ar
  46   21   47 1
  47   22   23 ar
  48   22   48 1
  49   23   24 ar
  50   23   49 1
  51   24   50 1
  52   25   26 1
  53   25   51 1
  54   25   52 1
  55   26   53 1
  56   26   54 1
