@<TRIPOS>MOLECULE
ZINC000059241036
  48   50    0    0    0
SMALL
USER_CHARGES
NO_NAME
@<TRIPOS>ATOM
    1 C1       -1.0982    -0.9016     0.3875 C.3    1 <0>       0.0200
    2 N2        0.0066    -0.0126     0.0040 N.3    1 <0>      -0.6600
    3 C3        0.7645    -0.5711    -1.1237 C.3    1 <0>       0.0700
    4 H4        0.7280    -1.6597    -1.0824 H      1 <0>       0.1000
    5 C5        2.2198    -0.1061    -1.0402 C.3    1 <0>      -0.1000
    6 C6        2.8709    -0.6913     0.2146 C.3    1 <0>      -0.0800
    7 C7        2.9392    -2.2148     0.0905 C.3    1 <0>      -0.1200
    8 C8        3.5904    -2.8000     1.3453 C.3    1 <0>      -0.1200
    9 C9        5.0049    -2.2366     1.4958 C.3    1 <0>      -0.1200
   10 C10       4.9366    -0.7132     1.6199 C.3    1 <0>      -0.1200
   11 C11       4.2855    -0.1280     0.3651 C.3    1 <0>      -0.1200
   12 C12       0.1592    -0.0969    -2.4197 C.2    1 <0>       0.4900
   13 O13      -0.4711     0.9388    -2.4515 O.2    1 <0>      -0.5200
   14 N14       0.3183    -0.8237    -3.5435 N.am   1 <0>      -0.6700
   15 C15      -0.3186    -0.4329    -4.7244 C.ar   1 <0>       0.1700
   16 C16      -0.4676     0.9289    -5.0128 C.ar   1 <0>      -0.1200
   17 C17      -1.0831     1.3402    -6.1536 C.ar   1 <0>      -0.0700
   18 C18      -1.5786     0.3892    -7.0601 C.ar   1 <0>      -0.1300
   19 C19      -2.2209     0.7629    -8.2510 C.ar   1 <0>       0.1500
   20 N20      -2.6688    -0.1595    -9.0707 N.ar   1 <0>      -0.4900
   21 C21      -2.5442    -1.4576    -8.8286 C.ar   1 <0>       0.0800
   22 C22      -1.9374    -1.9235    -7.7026 C.ar   1 <0>      -0.1600
   23 C23      -1.4308    -0.9940    -6.7745 C.ar   1 <0>       0.0000
   24 C24      -0.7887    -1.3929    -5.5958 C.ar   1 <0>      -0.1500
   25 H25      -1.8192    -0.9578    -0.4281 H      1 <0>       0.0200
   26 H26      -0.7075    -1.8975     0.5963 H      1 <0>       0.0700
   27 H27      -1.5878    -0.5091     1.2788 H      1 <0>       0.0800
   28 H28      -0.3322     0.9131    -0.2111 H      1 <0>       0.3600
   29 H29       2.7612    -0.4465    -1.9229 H      1 <0>       0.0700
   30 H30       2.2512     0.9823    -0.9919 H      1 <0>       0.0700
   31 H31       2.2785    -0.4243     1.0897 H      1 <0>       0.0900
   32 H32       1.9315    -2.6161    -0.0167 H      1 <0>       0.0600
   33 H33       3.5317    -2.4819    -0.7845 H      1 <0>       0.0600
   34 H34       2.9979    -2.5329     2.2204 H      1 <0>       0.0600
   35 H35       3.6390    -3.8853     1.2569 H      1 <0>       0.0600
   36 H36       5.4688    -2.6535     2.3897 H      1 <0>       0.0600
   37 H37       5.5974    -2.5037     0.6208 H      1 <0>       0.0600
   38 H38       4.3442    -0.4461     2.4950 H      1 <0>       0.0600
   39 H39       5.9444    -0.3119     1.7271 H      1 <0>       0.0600
   40 H40       4.8779    -0.3951    -0.5099 H      1 <0>       0.0600
   41 H41       4.2368     0.9573     0.4535 H      1 <0>       0.0600
   42 H42       0.8749    -1.6180    -3.5326 H      1 <0>       0.4100
   43 H43      -0.0881     1.6640    -4.3186 H      1 <0>       0.1400
   44 H44      -1.1909     2.3946    -6.3614 H      1 <0>       0.1400
   45 H45      -2.3468     1.8080    -8.4925 H      1 <0>       0.1600
   46 H46      -2.9355    -2.1649    -9.5448 H      1 <0>       0.1500
   47 H47      -1.8467    -2.9848    -7.5246 H      1 <0>       0.1400
   48 H48      -0.6664    -2.4418    -5.3694 H      1 <0>       0.1300
@<TRIPOS>BOND
   1    1    2 1
   2    1   25 1
   3    1   26 1
   4    1   27 1
   5    2    3 1
   6    2   28 1
   7    3    4 1
   8    3    5 1
   9    3   12 1
  10    5    6 1
  11    5   29 1
  12    5   30 1
  13    6   11 1
  14    6    7 1
  15    6   31 1
  16    7    8 1
  17    7   32 1
  18    7   33 1
  19    8    9 1
  20    8   34 1
  21    8   35 1
  22    9   10 1
  23    9   36 1
  24    9   37 1
  25   10   11 1
  26   10   38 1
  27   10   39 1
  28   11   40 1
  29   11   41 1
  30   12   13 2
  31   12   14 am
  32   14   15 1
  33   14   42 1
  34   15   24 ar
  35   15   16 ar
  36   16   17 ar
  37   16   43 1
  38   17   18 ar
  39   17   44 1
  40   18   23 ar
  41   18   19 ar
  42   19   20 ar
  43   19   45 1
  44   20   21 ar
  45   21   22 ar
  46   21   46 1
  47   22   23 ar
  48   22   47 1
  49   23   24 ar
  50   24   48 1
