@<TRIPOS>MOLECULE
ZINC000003795983
46    50    1     0     0
SMALL
USER_CHARGES
@<TRIPOS>ATOM
1      N1     -4.6530    3.1256    5.0134 N.4      1 ZINC000003795983   -0.6300
2      H2     -5.2641    2.3592    4.7741 H        1 ZINC000003795983    0.4300
3      H3     -4.8167    3.8959    4.3825 H        1 ZINC000003795983    0.4400
4      H4     -4.8388    3.4210    5.9602 H        1 ZINC000003795983    0.4400
5      C5     -3.2545    2.6901    4.9019 C.3      1 ZINC000003795983    0.0600
6      H6     -3.0587    1.8654    5.5872 H        1 ZINC000003795983    0.1600
7      C7     -2.2986    3.8695    5.1918 C.3      1 ZINC000003795983    0.0100
8      N8     -1.1711    3.6815    4.2421 N.3      1 ZINC000003795983   -0.4400
9      C9     -0.4839    4.8768    4.0398 C.ar     1 ZINC000003795983    0.0900
10     C10    -1.1505    5.9748    3.4910 C.ar     1 ZINC000003795983    0.0100
11     F11    -2.4562    5.8719    3.1598 F        1 ZINC000003795983   -0.1400
12     C12    -0.4883    7.1527    3.2880 C.ar     1 ZINC000003795983   -0.0400
13     C13     0.8616    7.2589    3.6309 C.ar     1 ZINC000003795983   -0.1500
14     C14     1.6013    8.5152    3.4244 C.2      1 ZINC000003795983    0.4100
15     O15     1.0614    9.4991    2.9492 O.2      1 ZINC000003795983   -0.4300
16     C16     3.0213    8.5331    3.8165 C.2      1 ZINC000003795983   -0.2700
17     C17     3.8270    9.7459    3.6433 C.2      1 ZINC000003795983    0.5400
18     O18     5.0061    9.7497    3.9725 O.co2    1 ZINC000003795983   -0.6900
19     O19     3.3207   10.7547    3.1694 O.co2    1 ZINC000003795983   -0.6600
20     C20     3.5812    7.3883    4.3506 C.2      1 ZINC000003795983    0.1500
21     N21     2.8760    6.2641    4.5229 N.pl3    1 ZINC000003795983   -0.4600
22     C22     3.5482    5.0955    5.0964 C.3      1 ZINC000003795983    0.0200
23     H23     3.0795    4.6727    5.9851 H        1 ZINC000003795983    0.1600
24     C24     5.0751    5.0466    5.0119 C.3      1 ZINC000003795983   -0.1900
25     C25     4.2294    4.1264    4.1280 C.3      1 ZINC000003795983    0.0300
26     H26     4.2092    3.0661    4.3797 H        1 ZINC000003795983    0.1400
27     F27     4.1635    4.4239    2.7626 F        1 ZINC000003795983   -0.1700
28     C28     1.5426    6.1590    4.1843 C.ar     1 ZINC000003795983    0.2200
29     C29     0.8545    4.9685    4.3900 C.ar     1 ZINC000003795983   -0.0400
30     Cl30    1.6703    3.5990    5.0775 Cl       1 ZINC000003795983   -0.0200
31     C31    -1.8200    3.2205    2.9858 C.3      1 ZINC000003795983    0.0500
32     C32    -2.9378    2.2723    3.4579 C.3      1 ZINC000003795983   -0.1700
33     C33    -2.9765    0.8134    3.0223 C.3      1 ZINC000003795983   -0.1300
34     C34    -4.0301    1.7989    2.5082 C.3      1 ZINC000003795983   -0.1700
35     H35    -2.7993    4.8194    5.0040 H        1 ZINC000003795983    0.0800
36     H36    -1.9407    3.8245    6.2204 H        1 ZINC000003795983    0.1200
37     H37    -1.0072    7.9993    2.8631 H        1 ZINC000003795983    0.1600
38     H38     4.6221    7.4011    4.6382 H        1 ZINC000003795983    0.1800
39     H39     5.5795    5.8839    4.5296 H        1 ZINC000003795983    0.1300
40     H40     5.6109    4.5913    5.8447 H        1 ZINC000003795983    0.1300
41     H41    -2.2410    4.0662    2.4421 H        1 ZINC000003795983    0.0900
42     H42    -1.1047    2.6838    2.3625 H        1 ZINC000003795983    0.1100
43     H43    -2.2151    0.4776    2.3184 H        1 ZINC000003795983    0.1200
44     H44    -3.2940    0.0760    3.7596 H        1 ZINC000003795983    0.1100
45     H45    -5.0405    1.7096    2.9073 H        1 ZINC000003795983    0.1000
46     H46    -3.9615    2.1111    1.4661 H        1 ZINC000003795983    0.1200
@<TRIPOS>BOND
1     1     2     1
2     1     3     1
3     1     4     1
4     1     5     1
5     5     6     1
6     5     32    1
7     5     7     1
8     7     8     1
9     7     35    1
10    7     36    1
11    8     9     1
12    8     31    1
13    9     29    ar
14    9     10    ar
15    10    11    1
16    10    12    ar
17    12    13    ar
18    12    37    1
19    13    28    ar
20    13    14    1
21    14    15    2
22    14    16    1
23    16    17    1
24    16    20    2
25    17    18    ar
26    17    19    ar
27    20    21    1
28    20    38    1
29    21    22    1
30    21    28    1
31    22    23    1
32    22    25    1
33    22    24    1
34    24    25    1
35    24    39    1
36    24    40    1
37    25    26    1
38    25    27    1
39    28    29    ar
40    29    30    1
41    31    32    1
42    31    41    1
43    31    42    1
44    32    34    1
45    32    33    1
46    33    34    1
47    33    43    1
48    33    44    1
49    34    45    1
50    34    46    1
@<TRIPOS>SUBSTRUCTURE
1   ZINC000003795983 1     RESIDUE    1   A     ZIN   1
