@<TRIPOS>MOLECULE
ZINC000000001536
38    39    1     0     0
SMALL
USER_CHARGES
@<TRIPOS>ATOM
1      C1     -0.0157    1.3058    0.0092 C.2      1 ZINC000000001536   -0.1900
2      C2      0.0021   -0.0041    0.0020 C.2      1 ZINC000000001536   -0.1500
3      C3      1.3172   -0.7397   -0.0145 C.3      1 ZINC000000001536   -0.0600
4      C4      1.3689   -1.7024    1.1438 C.ar     1 ZINC000000001536   -0.0800
5      C5      1.8734   -1.2872    2.3631 C.ar     1 ZINC000000001536   -0.1000
6      C6      1.9245   -2.1629    3.4316 C.ar     1 ZINC000000001536   -0.1400
7      C7      1.4695   -3.4631    3.2855 C.ar     1 ZINC000000001536    0.1100
8      O8      1.5187   -4.3245    4.3350 O.3      1 ZINC000000001536   -0.4900
9      C9      0.9589   -3.8858    2.0542 C.ar     1 ZINC000000001536   -0.0700
10     C10     0.4689   -5.2759    1.8885 C.ar     1 ZINC000000001536   -0.0600
11     C11    -0.7837   -5.5123    1.3250 C.ar     1 ZINC000000001536   -0.0900
12     C12    -1.2363   -6.8062    1.1718 C.ar     1 ZINC000000001536   -0.1500
13     C13    -0.4459   -7.8722    1.5786 C.ar     1 ZINC000000001536    0.1100
14     O14    -0.8946   -9.1458    1.4263 O.3      1 ZINC000000001536   -0.4900
15     C15     0.8024   -7.6400    2.1403 C.ar     1 ZINC000000001536   -0.1100
16     C16     1.6576   -8.8002    2.5801 C.3      1 ZINC000000001536   -0.0500
17     C17     1.1853   -9.2911    3.9244 C.2      1 ZINC000000001536   -0.1500
18     C18     0.8606  -10.5501    4.0849 C.2      1 ZINC000000001536   -0.1800
19     C19     1.2629   -6.3489    2.2908 C.ar     1 ZINC000000001536   -0.0700
20     C20     0.9072   -2.9939    0.9859 C.ar     1 ZINC000000001536   -0.0900
21     H21     0.9122    1.8585    0.0033 H        1 ZINC000000001536    0.1000
22     H22    -0.9582    1.8330    0.0166 H        1 ZINC000000001536    0.1000
23     H23    -0.9258   -0.5567    0.0079 H        1 ZINC000000001536    0.1100
24     H24     1.4134   -1.2911   -0.9498 H        1 ZINC000000001536    0.0800
25     H25     2.1349   -0.0241    0.0711 H        1 ZINC000000001536    0.0800
26     H26     2.2294   -0.2744    2.4807 H        1 ZINC000000001536    0.1300
27     H27     2.3198   -1.8331    4.3810 H        1 ZINC000000001536    0.1300
28     H28     0.7243   -4.3187    4.8862 H        1 ZINC000000001536    0.3900
29     H29    -1.3994   -4.6832    1.0090 H        1 ZINC000000001536    0.1300
30     H30    -2.2069   -6.9900    0.7352 H        1 ZINC000000001536    0.1300
31     H31    -0.6568   -9.5481    0.5797 H        1 ZINC000000001536    0.3900
32     H32     1.5790   -9.6065    1.8508 H        1 ZINC000000001536    0.0800
33     H33     2.6962   -8.4782    2.6552 H        1 ZINC000000001536    0.0800
34     H34     1.1147   -8.6050    4.7555 H        1 ZINC000000001536    0.1100
35     H35     0.9313  -11.2361    3.2538 H        1 ZINC000000001536    0.1000
36     H36     0.5222  -10.9019    5.0483 H        1 ZINC000000001536    0.1000
37     H37     2.2341   -6.1689    2.7274 H        1 ZINC000000001536    0.1300
38     H38     0.5139   -3.3146    0.0325 H        1 ZINC000000001536    0.1300
@<TRIPOS>BOND
1     1     2     2
2     1     21    1
3     1     22    1
4     2     3     1
5     2     23    1
6     3     4     1
7     3     24    1
8     3     25    1
9     4     20    ar
10    4     5     ar
11    5     6     ar
12    5     26    1
13    6     7     ar
14    6     27    1
15    7     8     1
16    7     9     ar
17    8     28    1
18    9     10    1
19    9     20    ar
20    10    19    ar
21    10    11    ar
22    11    12    ar
23    11    29    1
24    12    13    ar
25    12    30    1
26    13    14    1
27    13    15    ar
28    14    31    1
29    15    16    1
30    15    19    ar
31    16    17    1
32    16    32    1
33    16    33    1
34    17    18    2
35    17    34    1
36    18    35    1
37    18    36    1
38    19    37    1
39    20    38    1
@<TRIPOS>SUBSTRUCTURE
1   ZINC000000001536 1     RESIDUE    1   A     ZIN   1
