@<TRIPOS>MOLECULE
ZINC000096941868
115   120   1     0     0
SMALL
USER_CHARGES
@<TRIPOS>ATOM
1      C1     -1.9477  -10.4971   -0.8718 C.3      1 ZINC000096941868   -0.1400
2      C2     -1.6698   -8.9995   -1.0166 C.3      1 ZINC000096941868   -0.1300
3      C3     -2.9313   -8.2100   -0.6616 C.3      1 ZINC000096941868    0.1300
4      H4     -3.2650   -8.4886    0.3380 H        1 ZINC000096941868    0.1100
5      N5     -3.9867   -8.5141   -1.6311 N.am     1 ZINC000096941868   -0.7100
6      C6     -4.8728   -9.4972   -1.3765 C.2      1 ZINC000096941868    0.5200
7      O7     -4.8523  -10.0702   -0.3078 O.2      1 ZINC000096941868   -0.5300
8      C8     -5.8890   -9.8844   -2.4197 C.3      1 ZINC000096941868    0.0700
9      H9     -5.3752  -10.2198   -3.3206 H        1 ZINC000096941868    0.0700
10     C10    -6.7646   -8.6746   -2.7525 C.3      1 ZINC000096941868   -0.1400
11     N11    -6.7315  -10.9713   -1.9030 N.3      1 ZINC000096941868   -0.6800
12     C12    -7.2999  -11.7642   -3.0012 C.3      1 ZINC000096941868    0.0300
13     C13    -2.6270   -6.7345   -0.6966 C.2      1 ZINC000096941868    0.5200
14     O14    -3.0841   -6.0418   -1.5809 O.2      1 ZINC000096941868   -0.4900
15     N15    -1.8467   -6.1846    0.2549 N.am     1 ZINC000096941868   -0.6100
16     C16    -1.2230   -6.9074    1.3783 C.3      1 ZINC000096941868    0.0600
17     C17    -0.9904   -5.8276    2.4643 C.3      1 ZINC000096941868    0.0900
18     H18    -1.9044   -5.6354    3.0262 H        1 ZINC000096941868    0.0700
19     O19     0.0760   -6.2021    3.3388 O.3      1 ZINC000096941868   -0.5500
20     C20    -0.5984   -4.5984    1.6025 C.3      1 ZINC000096941868   -0.1200
21     C21    -1.4714   -4.7657    0.3408 C.3      1 ZINC000096941868    0.1500
22     H22    -2.3696   -4.1544    0.4278 H        1 ZINC000096941868    0.0700
23     C23    -0.6779   -4.3507   -0.8997 C.3      1 ZINC000096941868   -0.0600
24     C24    -1.5901   -4.3402   -2.0992 C.2      1 ZINC000096941868   -0.0800
25     C25    -2.4941   -3.3775   -2.4194 C.2      1 ZINC000096941868    0.1200
26     C26    -2.7469   -2.1552   -1.6381 C.2      1 ZINC000096941868    0.1500
27     C27    -1.8647   -1.1355   -1.4696 C.2      1 ZINC000096941868   -0.1000
28     C28    -0.4720   -1.0510   -2.0390 C.3      1 ZINC000096941868   -0.0600
29     C29    -0.5444   -0.5997   -3.4991 C.3      1 ZINC000096941868    0.1500
30     H30    -1.2410   -1.2330   -4.0485 H        1 ZINC000096941868    0.0800
31     C31     0.8559   -0.6781   -4.1428 C.3      1 ZINC000096941868   -0.1200
32     C32     0.8939    0.5823   -5.0468 C.3      1 ZINC000096941868    0.0900
33     H33     0.4003    0.3942   -6.0003 H        1 ZINC000096941868    0.0800
34     O34     2.2366    1.0284   -5.2476 O.3      1 ZINC000096941868   -0.5500
35     C35     0.0914    1.5989   -4.1970 C.3      1 ZINC000096941868    0.0600
36     N36    -0.9822    0.8022   -3.5680 N.am     1 ZINC000096941868   -0.6000
37     C37    -2.1628    1.2823   -3.1298 C.2      1 ZINC000096941868    0.5200
38     O38    -3.0180    0.5194   -2.7330 O.2      1 ZINC000096941868   -0.4900
39     C39    -2.4203    2.7671   -3.1331 C.3      1 ZINC000096941868    0.1300
40     H40    -2.2591    3.1617   -4.1363 H        1 ZINC000096941868    0.1100
41     C41    -1.4636    3.4528   -2.1556 C.3      1 ZINC000096941868   -0.1500
42     C42    -1.6392    4.9698   -2.2496 C.3      1 ZINC000096941868   -0.1400
43     N43    -3.8034    3.0238   -2.7238 N.am     1 ZINC000096941868   -0.6800
44     C44    -4.4224    4.1558   -3.1135 C.2      1 ZINC000096941868    0.5100
45     O45    -3.8345    4.9620   -3.8029 O.2      1 ZINC000096941868   -0.5200
46     C46    -5.8451    4.4198   -2.6925 C.3      1 ZINC000096941868    0.0000
47     H47    -5.9025    4.4495   -1.6044 H        1 ZINC000096941868    0.1700
48     C48    -6.7487    3.3039   -3.2206 C.3      1 ZINC000096941868   -0.1800
49     N49    -6.2870    5.7088   -3.2414 N.4      1 ZINC000096941868   -0.4900
50     H50    -5.6432    6.4328   -2.9598 H        1 ZINC000096941868    0.4400
51     H51    -6.3124    5.6544   -4.2487 H        1 ZINC000096941868    0.4300
52     C52    -7.6294    6.0227   -2.7340 C.3      1 ZINC000096941868   -0.0500
53     C53    -2.5239   -0.1360   -0.6313 C.ar     1 ZINC000096941868   -0.0600
54     C54    -2.1354    1.1067   -0.1222 C.ar     1 ZINC000096941868   -0.0600
55     C55    -3.0019    1.8236    0.6534 C.ar     1 ZINC000096941868   -0.1800
56     C56    -4.2680    1.3270    0.9408 C.ar     1 ZINC000096941868    0.1000
57     F57    -5.1117    2.0502    1.7091 F        1 ZINC000096941868   -0.1400
58     C58    -4.6718    0.1023    0.4482 C.ar     1 ZINC000096941868   -0.1700
59     C59    -3.8057   -0.6439   -0.3432 C.ar     1 ZINC000096941868    0.1400
60     N60    -3.9169   -1.8660   -0.9698 N.pl3    1 ZINC000096941868   -0.5800
61     N61    -3.1378   -3.7219   -3.5882 N.pl3    1 ZINC000096941868   -0.5800
62     C62    -2.6547   -4.9274   -4.0485 C.ar     1 ZINC000096941868    0.1500
63     C63    -2.9517   -5.7106   -5.1583 C.ar     1 ZINC000096941868   -0.1700
64     C64    -2.2819   -6.9011   -5.3569 C.ar     1 ZINC000096941868    0.1200
65     F65    -2.5724   -7.6602   -6.4361 F        1 ZINC000096941868   -0.1400
66     C66    -1.3109   -7.3262   -4.4576 C.ar     1 ZINC000096941868   -0.1800
67     C67    -1.0040   -6.5722   -3.3606 C.ar     1 ZINC000096941868   -0.0500
68     C68    -1.6665   -5.3603   -3.1430 C.ar     1 ZINC000096941868   -0.0600
69     H69    -2.1718  -10.7259    0.1701 H        1 ZINC000096941868    0.0600
70     H70    -2.7990  -10.7706   -1.4951 H        1 ZINC000096941868    0.0500
71     H71    -1.0702  -11.0616   -1.1871 H        1 ZINC000096941868    0.0600
72     H72    -0.8609   -8.7134   -0.3443 H        1 ZINC000096941868    0.0800
73     H73    -1.3819   -8.7812   -2.0450 H        1 ZINC000096941868    0.0800
74     H74    -4.0477   -8.0079   -2.4563 H        1 ZINC000096941868    0.4100
75     H75    -6.1396   -7.8681   -3.1359 H        1 ZINC000096941868    0.0600
76     H76    -7.4997   -8.9547   -3.5070 H        1 ZINC000096941868    0.0700
77     H77    -7.2784   -8.3392   -1.8516 H        1 ZINC000096941868    0.0700
78     H78    -6.2147  -11.5568   -1.2641 H        1 ZINC000096941868    0.3600
79     H79    -6.4930  -12.1980   -3.5917 H        1 ZINC000096941868    0.0200
80     H80    -7.9191  -12.5618   -2.5908 H        1 ZINC000096941868    0.0700
81     H81    -7.9095  -11.1211   -3.6360 H        1 ZINC000096941868    0.0700
82     H82    -1.8941   -7.6815    1.7506 H        1 ZINC000096941868    0.0800
83     H83    -0.2738   -7.3442    1.0681 H        1 ZINC000096941868    0.0800
84     H84    -0.0847   -7.0213    3.8267 H        1 ZINC000096941868    0.3900
85     H85    -0.8402   -3.6708    2.1214 H        1 ZINC000096941868    0.0900
86     H86     0.4595   -4.6315    1.3422 H        1 ZINC000096941868    0.0900
87     H87    -0.2638   -3.3537   -0.7494 H        1 ZINC000096941868    0.0900
88     H88     0.1331   -5.0596   -1.0662 H        1 ZINC000096941868    0.0800
89     H89     0.1123   -0.3318   -1.4649 H        1 ZINC000096941868    0.0800
90     H90     0.0028   -2.0307   -1.9846 H        1 ZINC000096941868    0.0900
91     H91     1.6339   -0.6298   -3.3808 H        1 ZINC000096941868    0.0900
92     H92     0.9556   -1.5844   -4.7402 H        1 ZINC000096941868    0.0900
93     H93     2.3106    1.8140   -5.8065 H        1 ZINC000096941868    0.3900
94     H94     0.7307    2.0447   -3.4351 H        1 ZINC000096941868    0.0900
95     H95    -0.3363    2.3725   -4.8348 H        1 ZINC000096941868    0.0800
96     H96    -1.6842    3.1237   -1.1401 H        1 ZINC000096941868    0.0900
97     H97    -0.4363    3.1896   -2.4077 H        1 ZINC000096941868    0.0900
98     H98    -1.4186    5.2989   -3.2650 H        1 ZINC000096941868    0.0600
99     H99    -2.6665    5.2329   -1.9974 H        1 ZINC000096941868    0.0500
100    H100   -0.9576    5.4583   -1.5532 H        1 ZINC000096941868    0.0600
101    H101   -4.2736    2.3790   -2.1724 H        1 ZINC000096941868    0.4200
102    H102   -6.4208    2.3475   -2.8133 H        1 ZINC000096941868    0.1100
103    H103   -7.7778    3.4948   -2.9161 H        1 ZINC000096941868    0.1000
104    H104   -6.6913    3.2742   -4.3087 H        1 ZINC000096941868    0.0900
105    H105   -8.3249    5.2406   -3.0383 H        1 ZINC000096941868    0.1300
106    H106   -7.6020    6.0814   -1.6459 H        1 ZINC000096941868    0.1300
107    H107   -7.9573    6.9791   -3.1413 H        1 ZINC000096941868    0.1300
108    H108   -1.1531    1.4986   -0.3410 H        1 ZINC000096941868    0.1200
109    H109   -2.7007    2.7833    1.0466 H        1 ZINC000096941868    0.1300
110    H110   -5.6576   -0.2750    0.6766 H        1 ZINC000096941868    0.1300
111    H111   -4.7000   -2.4377   -0.9429 H        1 ZINC000096941868    0.4200
112    H112   -3.8273   -3.1949   -4.0217 H        1 ZINC000096941868    0.4100
113    H113   -3.7045   -5.3887   -5.8625 H        1 ZINC000096941868    0.1300
114    H114   -0.7954   -8.2600   -4.6272 H        1 ZINC000096941868    0.1300
115    H115   -0.2488   -6.9089   -2.6659 H        1 ZINC000096941868    0.1200
@<TRIPOS>BOND
1     1     2     1
2     1     69    1
3     1     70    1
4     1     71    1
5     2     3     1
6     2     72    1
7     2     73    1
8     3     4     1
9     3     5     1
10    3     13    1
11    5     6     am
12    5     74    1
13    6     7     2
14    6     8     1
15    8     9     1
16    8     10    1
17    8     11    1
18    10    75    1
19    10    76    1
20    10    77    1
21    11    12    1
22    11    78    1
23    12    79    1
24    12    80    1
25    12    81    1
26    13    14    2
27    13    15    am
28    15    21    1
29    15    16    1
30    16    17    1
31    16    82    1
32    16    83    1
33    17    18    1
34    17    19    1
35    17    20    1
36    19    84    1
37    20    21    1
38    20    85    1
39    20    86    1
40    21    22    1
41    21    23    1
42    23    24    1
43    23    87    1
44    23    88    1
45    24    68    1
46    24    25    2
47    25    26    1
48    25    61    1
49    26    60    1
50    26    27    2
51    27    28    1
52    27    53    1
53    28    29    1
54    28    89    1
55    28    90    1
56    29    30    1
57    29    36    1
58    29    31    1
59    31    32    1
60    31    91    1
61    31    92    1
62    32    33    1
63    32    34    1
64    32    35    1
65    34    93    1
66    35    36    1
67    35    94    1
68    35    95    1
69    36    37    am
70    37    38    2
71    37    39    1
72    39    40    1
73    39    41    1
74    39    43    1
75    41    42    1
76    41    96    1
77    41    97    1
78    42    98    1
79    42    99    1
80    42    100   1
81    43    44    am
82    43    101   1
83    44    45    2
84    44    46    1
85    46    47    1
86    46    48    1
87    46    49    1
88    48    102   1
89    48    103   1
90    48    104   1
91    49    50    1
92    49    51    1
93    49    52    1
94    52    105   1
95    52    106   1
96    52    107   1
97    53    59    ar
98    53    54    ar
99    54    55    ar
100   54    108   1
101   55    56    ar
102   55    109   1
103   56    57    1
104   56    58    ar
105   58    59    ar
106   58    110   1
107   59    60    1
108   60    111   1
109   61    62    1
110   61    112   1
111   62    68    ar
112   62    63    ar
113   63    64    ar
114   63    113   1
115   64    65    1
116   64    66    ar
117   66    67    ar
118   66    114   1
119   67    68    ar
120   67    115   1
@<TRIPOS>SUBSTRUCTURE
1   ZINC000096941868 1     RESIDUE    1   A     ZIN   1
