@<TRIPOS>MOLECULE
ZINC000002012859
45    46    1     0     0
SMALL
USER_CHARGES
@<TRIPOS>ATOM
1      C1      0.1771    0.9257    0.3753 C.3      1 ZINC000002012859   -0.1800
2      C2      0.1693   -0.5555    0.0980 C.2      1 ZINC000002012859    0.5100
3      O3      1.2145   -1.1454   -0.0763 O.2      1 ZINC000002012859   -0.5400
4      N4     -0.9993   -1.2248    0.0438 N.am     1 ZINC000002012859   -0.7300
5      C5     -1.0069   -2.6648   -0.2257 C.3      1 ZINC000002012859    0.1200
6      C6     -2.4495   -3.1746   -0.2334 C.3      1 ZINC000002012859    0.0600
7      O7     -3.1697   -2.5726   -1.3412 O.3      1 ZINC000002012859   -0.3500
8      C8     -4.4583   -2.9180   -1.4898 C.2      1 ZINC000002012859    0.4700
9      O9     -4.9675   -3.6974   -0.7198 O.2      1 ZINC000002012859   -0.4700
10     C10    -5.2698   -2.3335   -2.6172 C.3      1 ZINC000002012859    0.1400
11     H11    -5.2241   -1.2454   -2.5716 H        1 ZINC000002012859    0.1200
12     O12    -6.6287   -2.7587   -2.4962 O.3      1 ZINC000002012859   -0.2800
13     C13    -7.5752   -1.9710   -3.0711 C.ar     1 ZINC000002012859    0.1300
14     C14    -8.9203   -2.2601   -2.8948 C.ar     1 ZINC000002012859   -0.1100
15     C15    -9.8807   -1.4574   -3.4799 C.ar     1 ZINC000002012859   -0.0800
16     C16    -9.5019   -0.3671   -4.2409 C.ar     1 ZINC000002012859   -0.1000
17     C17    -8.1615   -0.0771   -4.4185 C.ar     1 ZINC000002012859   -0.1400
18     C18    -7.7521    1.1119   -5.2491 C.3      1 ZINC000002012859    0.5100
19     F19    -8.8947    1.7606   -5.7297 F        1 ZINC000002012859   -0.1700
20     F20    -7.0097    1.9979   -4.4610 F        1 ZINC000002012859   -0.1800
21     F21    -6.9720    0.6811   -6.3275 F        1 ZINC000002012859   -0.1700
22     C22    -7.1977   -0.8728   -3.8306 C.ar     1 ZINC000002012859   -0.1600
23     C23    -4.7113   -2.8049   -3.9351 C.ar     1 ZINC000002012859   -0.1300
24     C24    -5.1115   -4.0195   -4.4602 C.ar     1 ZINC000002012859   -0.0700
25     C25    -4.5997   -4.4524   -5.6689 C.ar     1 ZINC000002012859   -0.1100
26     C26    -3.6867   -3.6699   -6.3533 C.ar     1 ZINC000002012859   -0.0200
27     Cl27   -3.0438   -4.2127   -7.8718 Cl       1 ZINC000002012859   -0.0600
28     C28    -3.2866   -2.4545   -5.8272 C.ar     1 ZINC000002012859   -0.1100
29     C29    -3.8034   -2.0200   -4.6212 C.ar     1 ZINC000002012859   -0.0800
30     H30     1.2048    1.2889    0.3807 H        1 ZINC000002012859    0.0900
31     H31    -0.3872    1.4435   -0.4003 H        1 ZINC000002012859    0.0900
32     H32    -0.2807    1.1161    1.3460 H        1 ZINC000002012859    0.0900
33     H33    -1.8353   -0.7530    0.1832 H        1 ZINC000002012859    0.4000
34     H34    -0.5492   -2.8551   -1.1965 H        1 ZINC000002012859    0.0800
35     H35    -0.4427   -3.1826    0.5499 H        1 ZINC000002012859    0.1000
36     H36    -2.4511   -4.2588   -0.3453 H        1 ZINC000002012859    0.0900
37     H37    -2.9349   -2.9054    0.7047 H        1 ZINC000002012859    0.0800
38     H38    -9.2167   -3.1121   -2.3010 H        1 ZINC000002012859    0.1500
39     H39   -10.9281   -1.6820   -3.3430 H        1 ZINC000002012859    0.1500
40     H40   -10.2541    0.2589   -4.6977 H        1 ZINC000002012859    0.1400
41     H41    -6.1510   -0.6457   -3.9693 H        1 ZINC000002012859    0.1400
42     H42    -5.8239   -4.6303   -3.9258 H        1 ZINC000002012859    0.1400
43     H43    -4.9121   -5.4014   -6.0789 H        1 ZINC000002012859    0.1400
44     H44    -2.5737   -1.8434   -6.3608 H        1 ZINC000002012859    0.1400
45     H45    -3.4914   -1.0711   -4.2106 H        1 ZINC000002012859    0.1400
@<TRIPOS>BOND
1     1     2     1
2     1     30    1
3     1     31    1
4     1     32    1
5     2     3     2
6     2     4     am
7     4     5     1
8     4     33    1
9     5     6     1
10    5     34    1
11    5     35    1
12    6     7     1
13    6     36    1
14    6     37    1
15    7     8     1
16    8     9     2
17    8     10    1
18    10    11    1
19    10    12    1
20    10    23    1
21    12    13    1
22    13    22    ar
23    13    14    ar
24    14    15    ar
25    14    38    1
26    15    16    ar
27    15    39    1
28    16    17    ar
29    16    40    1
30    17    18    1
31    17    22    ar
32    18    19    1
33    18    20    1
34    18    21    1
35    22    41    1
36    23    29    ar
37    23    24    ar
38    24    25    ar
39    24    42    1
40    25    26    ar
41    25    43    1
42    26    27    1
43    26    28    ar
44    28    29    ar
45    28    44    1
46    29    45    1
@<TRIPOS>SUBSTRUCTURE
1   ZINC000002012859 1     RESIDUE    1   A     ZIN   1
