@<TRIPOS>MOLECULE
ZINC000000058121
20    21    1     0     0
SMALL
USER_CHARGES
@<TRIPOS>ATOM
1      C1     -0.0184    1.5028    0.0103 C.3      1 ZINC000000058121   -0.1200
2      C2      0.0021   -0.0041    0.0020 C.2      1 ZINC000000058121    0.0700
3      C3      0.0061   -0.6954   -1.1674 C.2      1 ZINC000000058121   -0.3400
4      C4      0.0253   -2.1051   -1.1488 C.2      1 ZINC000000058121    0.5100
5      O5      0.0290   -2.7125   -2.2045 O.2      1 ZINC000000058121   -0.5100
6      O6      0.0399   -2.7950    0.0025 O.3      1 ZINC000000058121   -0.2800
7      C7      0.0370   -2.1693    1.1991 C.ar     1 ZINC000000058121    0.2000
8      C8      0.0528   -2.8969    2.3792 C.ar     1 ZINC000000058121   -0.3000
9      C9      0.0499   -2.2346    3.5962 C.ar     1 ZINC000000058121    0.3200
10     O10     0.0654   -2.9481    4.7509 O.3      1 ZINC000000058121   -0.6900
11     C11     0.0316   -0.8422    3.6445 C.ar     1 ZINC000000058121   -0.2600
12     C12     0.0154   -0.1106    2.4923 C.ar     1 ZINC000000058121   -0.0200
13     C13     0.0243   -0.7629    1.2543 C.ar     1 ZINC000000058121   -0.2900
14     H14     1.0042    1.8801    0.0026 H        1 ZINC000000058121    0.0800
15     H15    -0.5455    1.8639   -0.8728 H        1 ZINC000000058121    0.0700
16     H16    -0.5286    1.8543    0.9071 H        1 ZINC000000058121    0.0800
17     H17    -0.0058   -0.1665   -2.1090 H        1 ZINC000000058121    0.1400
18     H18     0.0670   -3.9764    2.3499 H        1 ZINC000000058121    0.1200
19     H19     0.0299   -0.3386    4.5999 H        1 ZINC000000058121    0.1100
20     H20     0.0010    0.9684    2.5359 H        1 ZINC000000058121    0.1100
@<TRIPOS>BOND
1     1     2     1
2     1     14    1
3     1     15    1
4     1     16    1
5     2     13    1
6     2     3     2
7     3     4     1
8     3     17    1
9     4     5     2
10    4     6     1
11    6     7     1
12    7     13    ar
13    7     8     ar
14    8     9     ar
15    8     18    1
16    9     10    1
17    9     11    ar
18    11    12    ar
19    11    19    1
20    12    13    ar
21    12    20    1
@<TRIPOS>SUBSTRUCTURE
1   ZINC000000058121 1     RESIDUE    1   A     ZIN   1
