@<TRIPOS>MOLECULE
ZINC000256335390
49    52    1     0     0
SMALL
USER_CHARGES
@<TRIPOS>ATOM
1      C1      0.0383    1.5635   -0.0272 C.3      1 ZINC000256335390   -0.1500
2      C2      0.0372    0.0303   -0.0277 C.3      1 ZINC000256335390   -0.0800
3      H3      0.5450   -0.3361   -0.9127 H        1 ZINC000256335390    0.0800
4      C4     -1.4229   -0.4339   -0.0628 C.3      1 ZINC000256335390   -0.0900
5      C5     -1.9200   -0.5926    1.3534 C.2      1 ZINC000256335390   -0.0200
6      C6     -2.9116    0.1503    1.8300 C.2      1 ZINC000256335390   -0.2400
7      C7     -3.3719   -0.0045    3.2086 C.2      1 ZINC000256335390    0.3900
8      O8     -4.3159    0.6455    3.6075 O.2      1 ZINC000256335390   -0.4700
9      C9     -2.6731   -0.9640    4.1381 C.3      1 ZINC000256335390   -0.1700
10     C10    -1.2240   -1.1475    3.6688 C.3      1 ZINC000256335390   -0.1100
11     C11    -1.2464   -1.6320    2.2219 C.3      1 ZINC000256335390   -0.0700
12     H12    -1.7969   -2.5698    2.1512 H        1 ZINC000256335390    0.0900
13     C13     0.1727   -1.8248    1.6806 C.3      1 ZINC000256335390   -0.0700
14     H14     0.1007   -2.5051    0.8304 H        1 ZINC000256335390    0.0800
15     C15     1.0789   -2.4304    2.7475 C.3      1 ZINC000256335390   -0.1100
16     C16     2.4419   -2.8178    2.1628 C.3      1 ZINC000256335390   -0.1000
17     C17     2.7790   -1.9516    0.9750 C.3      1 ZINC000256335390   -0.0500
18     C18     2.3126   -2.6039   -0.3287 C.3      1 ZINC000256335390   -0.1500
19     C19     4.2875   -1.6620    0.8138 C.3      1 ZINC000256335390    0.1000
20     H20     4.7669   -2.4884    0.3006 H        1 ZINC000256335390    0.0600
21     O21     4.8848   -1.4252    2.0842 O.3      1 ZINC000256335390   -0.5600
22     C22     4.3303   -0.3800   -0.0512 C.3      1 ZINC000256335390   -0.1600
23     C23     2.8976    0.2194   -0.0171 C.3      1 ZINC000256335390   -0.1100
24     C24     2.2265   -0.5222    1.1474 C.3      1 ZINC000256335390   -0.0700
25     H25     2.6360   -0.1016    2.0911 H        1 ZINC000256335390    0.0800
26     C26     0.7285   -0.4747    1.2259 C.3      1 ZINC000256335390   -0.0600
27     H27     0.4745    0.2451    2.0341 H        1 ZINC000256335390    0.0600
28     H28     1.0662    1.9262   -0.0295 H        1 ZINC000256335390    0.0600
29     H29    -0.4774    1.9275   -0.9158 H        1 ZINC000256335390    0.0600
30     H30    -0.4732    1.9269    0.8641 H        1 ZINC000256335390    0.0600
31     H31    -2.0252    0.3129   -0.5814 H        1 ZINC000256335390    0.0800
32     H32    -1.4832   -1.3850   -0.5857 H        1 ZINC000256335390    0.0800
33     H33    -3.3861    0.8815    1.1916 H        1 ZINC000256335390    0.1300
34     H34    -2.6835   -0.5676    5.1525 H        1 ZINC000256335390    0.1000
35     H35    -3.1853   -1.9279    4.1185 H        1 ZINC000256335390    0.1000
36     H36    -0.6997   -0.1952    3.7331 H        1 ZINC000256335390    0.0700
37     H37    -0.7260   -1.8833    4.3015 H        1 ZINC000256335390    0.0800
38     H38     1.2286   -1.7050    3.5520 H        1 ZINC000256335390    0.0600
39     H39     0.5964   -3.3139    3.1723 H        1 ZINC000256335390    0.0600
40     H40     3.2117   -2.7095    2.9367 H        1 ZINC000256335390    0.0800
41     H41     2.4172   -3.8688    1.8502 H        1 ZINC000256335390    0.0600
42     H42     1.2522   -2.8452   -0.2552 H        1 ZINC000256335390    0.0700
43     H43     2.4716   -1.9139   -1.1574 H        1 ZINC000256335390    0.0600
44     H44     2.8818   -3.5172   -0.5019 H        1 ZINC000256335390    0.0600
45     H45     5.8326   -1.2376    2.0444 H        1 ZINC000256335390    0.3800
46     H46     5.0409    0.3322    0.3679 H        1 ZINC000256335390    0.0700
47     H47     4.6108   -0.6272   -1.0734 H        1 ZINC000256335390    0.0700
48     H48     2.9505    1.2910    0.1905 H        1 ZINC000256335390    0.0600
49     H49     2.3882    0.0472   -0.9593 H        1 ZINC000256335390    0.0700
@<TRIPOS>BOND
1     1     2     1
2     1     28    1
3     1     29    1
4     1     30    1
5     2     3     1
6     2     26    1
7     2     4     1
8     4     5     1
9     4     31    1
10    4     32    1
11    5     11    1
12    5     6     2
13    6     7     1
14    6     33    1
15    7     8     2
16    7     9     1
17    9     10    1
18    9     34    1
19    9     35    1
20    10    11    1
21    10    36    1
22    10    37    1
23    11    12    1
24    11    13    1
25    13    14    1
26    13    26    1
27    13    15    1
28    15    16    1
29    15    38    1
30    15    39    1
31    16    17    1
32    16    40    1
33    16    41    1
34    17    24    1
35    17    18    1
36    17    19    1
37    18    42    1
38    18    43    1
39    18    44    1
40    19    20    1
41    19    21    1
42    19    22    1
43    21    45    1
44    22    23    1
45    22    46    1
46    22    47    1
47    23    24    1
48    23    48    1
49    23    49    1
50    24    25    1
51    24    26    1
52    26    27    1
@<TRIPOS>SUBSTRUCTURE
1   ZINC000256335390 1     RESIDUE    1   A     ZIN   1
