@<TRIPOS>MOLECULE
ZINC000038192546
15    15    1     0     0
SMALL
USER_CHARGES
@<TRIPOS>ATOM
1      C1     -0.0184    1.5028    0.0103 C.3      1 ZINC000038192546   -0.1500
2      C2      0.0021   -0.0041    0.0020 C.ar     1 ZINC000038192546    0.1700
3      C3      0.0056   -0.6804   -1.2030 C.ar     1 ZINC000038192546   -0.1300
4      C4      0.0249   -2.0669   -1.1996 C.ar     1 ZINC000038192546    0.0100
5      C5      0.0400   -2.7236    0.0212 C.ar     1 ZINC000038192546   -0.1300
6      C6      0.0354   -1.9798    1.1862 C.ar     1 ZINC000038192546    0.1300
7      N7      0.0219   -0.6619    1.1449 N.ar     1 ZINC000038192546   -0.4500
8      H8      0.0188   -0.1633    1.9769 H        1 ZINC000038192546    0.4500
9      H9      1.0042    1.8801    0.0026 H        1 ZINC000038192546    0.1200
10     H10    -0.5455    1.8639   -0.8728 H        1 ZINC000038192546    0.1200
11     H11    -0.5286    1.8543    0.9071 H        1 ZINC000038192546    0.1000
12     H12    -0.0069   -0.1359   -2.1356 H        1 ZINC000038192546    0.1900
13     H13     0.0278   -2.6220   -2.1261 H        1 ZINC000038192546    0.1800
14     H14     0.0549   -3.8028    0.0614 H        1 ZINC000038192546    0.1900
15     H15     0.0467   -2.4838    2.1413 H        1 ZINC000038192546    0.2100
@<TRIPOS>BOND
1     1     2     1
2     1     9     1
3     1     10    1
4     1     11    1
5     2     7     ar
6     2     3     ar
7     3     4     ar
8     3     12    1
9     4     5     ar
10    4     13    1
11    5     6     ar
12    5     14    1
13    6     7     ar
14    6     15    1
15    7     8     1
@<TRIPOS>SUBSTRUCTURE
1   ZINC000038192546 1     RESIDUE    1   A     ZIN   1
