@<TRIPOS>MOLECULE
ZINC000001572556
37    39    1     0     0
SMALL
USER_CHARGES
@<TRIPOS>ATOM
1      O1     -0.0164    1.3557    0.0095 O.3      1 ZINC000001572556   -0.4800
2      C2      0.0021   -0.0041    0.0020 C.ar     1 ZINC000001572556    0.1000
3      C3      0.0059   -0.6929   -1.1970 C.ar     1 ZINC000001572556   -0.1200
4      C4      0.0177   -2.0817   -1.2106 C.ar     1 ZINC000001572556   -0.0900
5      C5      0.0117   -2.7806   -0.0263 C.ar     1 ZINC000001572556   -0.0800
6      C6      0.0244   -2.0930    1.1813 C.ar     1 ZINC000001572556   -0.1100
7      C7      0.0231   -0.7105    1.2013 C.ar     1 ZINC000001572556    0.1000
8      O8      0.0317   -0.0443    2.3868 O.3      1 ZINC000001572556   -0.4800
9      C9     -0.0416   -4.2882    0.0291 C.3      1 ZINC000001572556   -0.0100
10     H10    -1.0825   -4.6079    0.0785 H        1 ZINC000001572556    0.1100
11     C11     0.6810   -4.7638    1.2631 C.ar     1 ZINC000001572556   -0.1100
12     C12     2.0180   -4.4610    1.4409 C.ar     1 ZINC000001572556   -0.1100
13     C13     2.6808   -4.8973    2.5728 C.ar     1 ZINC000001572556   -0.1100
14     C14     2.0065   -5.6360    3.5271 C.ar     1 ZINC000001572556   -0.1000
15     C15     0.6693   -5.9380    3.3496 C.ar     1 ZINC000001572556   -0.1100
16     C16     0.0054   -5.4981    2.2198 C.ar     1 ZINC000001572556   -0.1100
17     C17     0.6150   -4.9057   -1.2050 C.3      1 ZINC000001572556   -0.0100
18     N18    -0.4158   -5.1307   -2.2244 N.4      1 ZINC000001572556   -0.5100
19     H19     0.0026   -5.5684   -3.0315 H        1 ZINC000001572556    0.4300
20     H20    -1.1304   -5.7361   -1.8489 H        1 ZINC000001572556    0.4300
21     C21    -1.0223   -3.8599   -2.6224 C.3      1 ZINC000001572556   -0.0100
22     C22     0.0553   -2.7741   -2.5484 C.3      1 ZINC000001572556   -0.1100
23     H23     0.8616    1.7610    0.0033 H        1 ZINC000001572556    0.4000
24     H24    -0.0007   -0.1474   -2.1291 H        1 ZINC000001572556    0.1400
25     H25     0.0396   -2.6425    2.1109 H        1 ZINC000001572556    0.1400
26     H26     0.9175    0.1494    2.7227 H        1 ZINC000001572556    0.4000
27     H27     2.5448   -3.8839    0.6954 H        1 ZINC000001572556    0.1200
28     H28     3.7256   -4.6614    2.7115 H        1 ZINC000001572556    0.1300
29     H29     2.5246   -5.9775    4.4110 H        1 ZINC000001572556    0.1300
30     H30     0.1426   -6.5155    4.0950 H        1 ZINC000001572556    0.1300
31     H31    -1.0394   -5.7340    2.0811 H        1 ZINC000001572556    0.1300
32     H32     1.3724   -4.2258   -1.5949 H        1 ZINC000001572556    0.1500
33     H33     1.0769   -5.8558   -0.9364 H        1 ZINC000001572556    0.1400
34     H34    -1.3992   -3.9355   -3.6424 H        1 ZINC000001572556    0.1400
35     H35    -1.8397   -3.6139   -1.9446 H        1 ZINC000001572556    0.1400
36     H36    -0.1172   -2.0419   -3.3372 H        1 ZINC000001572556    0.1200
37     H37     1.0353   -3.2299   -2.6898 H        1 ZINC000001572556    0.1000
@<TRIPOS>BOND
1     1     2     1
2     1     23    1
3     2     7     ar
4     2     3     ar
5     3     4     ar
6     3     24    1
7     4     22    1
8     4     5     ar
9     5     6     ar
10    5     9     1
11    6     7     ar
12    6     25    1
13    7     8     1
14    8     26    1
15    9     10    1
16    9     11    1
17    9     17    1
18    11    16    ar
19    11    12    ar
20    12    13    ar
21    12    27    1
22    13    14    ar
23    13    28    1
24    14    15    ar
25    14    29    1
26    15    16    ar
27    15    30    1
28    16    31    1
29    17    18    1
30    17    32    1
31    17    33    1
32    18    19    1
33    18    20    1
34    18    21    1
35    21    22    1
36    21    34    1
37    21    35    1
38    22    36    1
39    22    37    1
@<TRIPOS>SUBSTRUCTURE
1   ZINC000001572556 1     RESIDUE    1   A     ZIN   1
