@<TRIPOS>MOLECULE
ZINC000095092808
54    58    1     0     0
SMALL
USER_CHARGES
@<TRIPOS>ATOM
1      C1      3.0515    8.6319   -3.9306 C.3      1 ZINC000095092808   -0.0700
2      C2      4.4205    9.2071   -3.6736 C.2      1 ZINC000095092808    0.1400
3      C3      5.3068    8.7806   -2.7057 C.2      1 ZINC000095092808   -0.2500
4      N4      5.1126    7.7727   -1.8125 N.2      1 ZINC000095092808   -0.2000
5      N5      4.0044    7.1124   -1.8159 N.2      1 ZINC000095092808   -0.2700
6      C6      3.8094    6.1000   -0.9186 C.ar     1 ZINC000095092808   -0.0600
7      C7      4.8080    5.7783    0.0038 C.ar     1 ZINC000095092808   -0.0800
8      C8      4.6110    4.7563    0.9103 C.ar     1 ZINC000095092808   -0.2600
9      C9      3.4253    4.0468    0.9179 C.ar     1 ZINC000095092808   -0.0500
10     C10     2.4196    4.3497    0.0019 C.ar     1 ZINC000095092808   -0.2200
11     C11     1.1504    3.5817    0.0104 C.ar     1 ZINC000095092808    0.0300
12     C12    -0.0717    4.2527    0.0257 C.ar     1 ZINC000095092808   -0.1000
13     C13    -1.2546    3.5395    0.0336 C.ar     1 ZINC000095092808   -0.1400
14     C14    -1.2350    2.1591    0.0196 C.ar     1 ZINC000095092808   -0.1300
15     C15    -0.0180    1.4763    0.0102 C.ar     1 ZINC000095092808    0.0200
16     C16     0.0021   -0.0041    0.0020 C.2      1 ZINC000095092808    0.1000
17     N17     1.0815   -0.7875   -0.0184 N.2      1 ZINC000095092808   -0.3700
18     N18     0.6728   -2.0102   -0.0159 N.2      1 ZINC000095092808   -0.2100
19     N19    -0.6140   -2.0277   -0.0034 N.2      1 ZINC000095092808   -0.2100
20     N20    -1.0558   -0.8166    0.0078 N.pl3    1 ZINC000095092808   -0.3800
21     C21     1.1774    2.1904    0.0026 C.ar     1 ZINC000095092808   -0.1100
22     C22     2.6070    5.3811   -0.9199 C.ar     1 ZINC000095092808    0.3200
23     O23     1.6301    5.6859   -1.8116 O.3      1 ZINC000095092808   -0.6900
24     C24     6.5058    9.6247   -2.8327 C.2      1 ZINC000095092808    0.5200
25     O25     7.5167    9.5571   -2.1585 O.2      1 ZINC000095092808   -0.5900
26     N26     6.2665   10.4881   -3.8411 N.am     1 ZINC000095092808   -0.4000
27     C27     7.1481   11.4723   -4.2993 C.ar     1 ZINC000095092808    0.2300
28     C28     8.3937   11.6224   -3.7038 C.ar     1 ZINC000095092808   -0.1800
29     C29     9.2623   12.5952   -4.1590 C.ar     1 ZINC000095092808   -0.0900
30     C30     8.8931   13.4185   -5.2066 C.ar     1 ZINC000095092808   -0.1500
31     C31     9.8433   14.4787   -5.7006 C.3      1 ZINC000095092808   -0.1000
32     C32     7.6533   13.2716   -5.8018 C.ar     1 ZINC000095092808   -0.0700
33     C33     7.2552   14.1709   -6.9436 C.3      1 ZINC000095092808   -0.1100
34     C34     6.7821   12.2979   -5.3547 C.ar     1 ZINC000095092808   -0.1500
35     N35     4.9900   10.2344   -4.3522 N.pl3    1 ZINC000095092808   -0.4200
36     H36     2.3154    9.1618   -3.3261 H        1 ZINC000095092808    0.0600
37     H37     2.8029    8.7432   -4.9860 H        1 ZINC000095092808    0.0400
38     H38     3.0461    7.5746   -3.6656 H        1 ZINC000095092808    0.1100
39     H39     5.7363    6.3303    0.0073 H        1 ZINC000095092808    0.1000
40     H40     5.3870    4.5122    1.6206 H        1 ZINC000095092808    0.0800
41     H41     3.2788    3.2517    1.6340 H        1 ZINC000095092808    0.0900
42     H42    -0.0935    5.3324    0.0317 H        1 ZINC000095092808    0.1200
43     H43    -2.1987    4.0639    0.0455 H        1 ZINC000095092808    0.1000
44     H44    -2.1631    1.6068    0.0210 H        1 ZINC000095092808    0.1100
45     H45     2.1218    1.6666   -0.0089 H        1 ZINC000095092808    0.1200
46     H46     8.6827   10.9796   -2.8855 H        1 ZINC000095092808    0.1500
47     H47    10.2311   12.7125   -3.6964 H        1 ZINC000095092808    0.1100
48     H48    10.4730   14.0640   -6.4878 H        1 ZINC000095092808    0.0600
49     H49     9.2748   15.3206   -6.0958 H        1 ZINC000095092808    0.0600
50     H50    10.4695   14.8184   -4.8756 H        1 ZINC000095092808    0.0500
51     H51     7.5594   13.7169   -7.8868 H        1 ZINC000095092808    0.0600
52     H52     6.1738   14.3078   -6.9383 H        1 ZINC000095092808    0.0600
53     H53     7.7445   15.1385   -6.8317 H        1 ZINC000095092808    0.0600
54     H54     5.8158   12.1810   -5.8226 H        1 ZINC000095092808    0.1300
@<TRIPOS>BOND
1     1     2     1
2     1     36    1
3     1     37    1
4     1     38    1
5     2     35    1
6     2     3     2
7     3     4     1
8     3     24    1
9     4     5     2
10    5     6     1
11    6     22    ar
12    6     7     ar
13    7     8     ar
14    7     39    1
15    8     9     ar
16    8     40    1
17    9     10    ar
18    9     41    1
19    10    11    1
20    10    22    ar
21    11    21    ar
22    11    12    ar
23    12    13    ar
24    12    42    1
25    13    14    ar
26    13    43    1
27    14    15    ar
28    14    44    1
29    15    16    1
30    15    21    ar
31    16    20    1
32    16    17    2
33    17    18    1
34    18    19    2
35    19    20    1
36    21    45    1
37    22    23    1
38    24    25    2
39    24    26    am
40    26    27    1
41    26    35    1
42    27    34    ar
43    27    28    ar
44    28    29    ar
45    28    46    1
46    29    30    ar
47    29    47    1
48    30    31    1
49    30    32    ar
50    31    48    1
51    31    49    1
52    31    50    1
53    32    33    1
54    32    34    ar
55    33    51    1
56    33    52    1
57    33    53    1
58    34    54    1
@<TRIPOS>SUBSTRUCTURE
1   ZINC000095092808 1     RESIDUE    1   A     ZIN   1
