@<TRIPOS>MOLECULE
ZINC000018710082
  51   54    0    0    0
SMALL
USER_CHARGES
NO_NAME
@<TRIPOS>ATOM
    1 C1        0.4549     1.1759    -0.6135 C.3    1 <0>      -0.1400
    2 C2       -0.1057    -0.0878     0.0419 C.3    1 <0>      -0.0300
    3 C3       -1.5512     0.1401     0.4885 C.3    1 <0>      -0.1400
    4 C4       -0.0227    -1.2773    -0.9286 C.3    1 <0>       0.1200
    5 N5        0.8462    -2.2538    -0.2663 N.pl3  1 <0>      -0.7400
    6 C6        1.2686    -1.7598     0.9690 C.ar   1 <0>       0.2200
    7 C7        2.0979    -2.3539     1.9206 C.ar   1 <0>      -0.2100
    8 C8        2.3979    -1.6876     3.0973 C.ar   1 <0>       0.1900
    9 N9        3.2295    -2.2885     4.0477 N.am   1 <0>      -0.6700
   10 C10       3.0293    -2.0579     5.3604 C.2    1 <0>       0.5800
   11 O11       2.0703    -1.4041     5.7235 O.2    1 <0>      -0.5300
   12 C12       3.9726    -2.5982     6.3559 C.ar   1 <0>      -0.2700
   13 C13       5.1432    -3.2482     5.9490 C.ar   1 <0>       0.0100
   14 C14       5.9962    -3.7370     6.9228 C.ar   1 <0>      -0.2500
   15 C15       5.6724    -3.5720     8.2575 C.ar   1 <0>       0.1900
   16 N16       4.5642    -2.9564     8.6211 N.ar   1 <0>      -0.5500
   17 C17       3.7157    -2.4649     7.7315 C.ar   1 <0>       0.4600
   18 N18       2.5657    -1.8264     8.1576 N.pl3  1 <0>      -0.7000
   19 C19       2.2371    -1.7843     9.5847 C.3    1 <0>       0.1600
   20 C20       0.9439    -1.0359     9.7806 C.ar   1 <0>      -0.0600
   21 C21       0.9409     0.3367     9.9767 C.ar   1 <0>      -0.1500
   22 C22      -0.2646     0.9892    10.1529 C.ar   1 <0>       0.1000
   23 N23      -1.4017     0.3215    10.1364 N.ar   1 <0>      -0.4800
   24 C24      -1.4368    -0.9838     9.9525 C.ar   1 <0>       0.1000
   25 C25      -0.2716    -1.7027     9.7633 C.ar   1 <0>      -0.1500
   26 C26       1.8741    -0.4230     3.3344 C.ar   1 <0>      -0.1700
   27 C27       1.0531     0.1667     2.3928 C.ar   1 <0>      -0.0400
   28 C28       0.7519    -0.4969     1.2186 C.ar   1 <0>      -0.1700
   29 H29       1.4693     0.9844    -0.9635 H      1 <0>       0.0600
   30 H30      -0.1740     1.4566    -1.4584 H      1 <0>       0.0600
   31 H31       0.4688     1.9871     0.1144 H      1 <0>       0.0600
   32 H32      -2.1609     0.4050    -0.3753 H      1 <0>       0.0600
   33 H33      -1.9396    -0.7720     0.9416 H      1 <0>       0.0600
   34 H34      -1.5828     0.9499     1.2176 H      1 <0>       0.0600
   35 H35      -1.0132    -1.7020    -1.0917 H      1 <0>       0.0700
   36 H36       0.4153    -0.9626    -1.8758 H      1 <0>       0.0700
   37 H37       1.0923    -3.1174    -0.6331 H      1 <0>       0.4100
   38 H38       2.5071    -3.3368     1.7392 H      1 <0>       0.1200
   39 H39       3.9504    -2.8713     3.7621 H      1 <0>       0.4100
   40 H40       5.3751    -3.3656     4.9007 H      1 <0>       0.1400
   41 H41       6.9078    -4.2440     6.6428 H      1 <0>       0.1400
   42 H42       6.3394    -3.9546     9.0159 H      1 <0>       0.1600
   43 H43       1.9764    -1.4063     7.5117 H      1 <0>       0.4300
   44 H44       2.1295    -2.8009     9.9629 H      1 <0>       0.0800
   45 H45       3.0358    -1.2777    10.1266 H      1 <0>       0.0800
   46 H46       1.8689     0.8889     9.9919 H      1 <0>       0.1400
   47 H47      -0.2755     2.0582    10.3063 H      1 <0>       0.1600
   48 H48      -2.3873    -1.4965     9.9456 H      1 <0>       0.1600
   49 H49      -0.3069    -2.7715     9.6128 H      1 <0>       0.1400
   50 H50       2.1081     0.0974     4.2514 H      1 <0>       0.1300
   51 H51       0.6445     1.1496     2.5754 H      1 <0>       0.1200
@<TRIPOS>BOND
   1    1    2 1
   2    1   29 1
   3    1   30 1
   4    1   31 1
   5    2   28 1
   6    2    3 1
   7    2    4 1
   8    3   32 1
   9    3   33 1
  10    3   34 1
  11    4    5 1
  12    4   35 1
  13    4   36 1
  14    5    6 1
  15    5   37 1
  16    6   28 ar
  17    6    7 ar
  18    7    8 ar
  19    7   38 1
  20    8    9 1
  21    8   26 ar
  22    9   10 am
  23    9   39 1
  24   10   11 2
  25   10   12 1
  26   12   17 ar
  27   12   13 ar
  28   13   14 ar
  29   13   40 1
  30   14   15 ar
  31   14   41 1
  32   15   16 ar
  33   15   42 1
  34   16   17 ar
  35   17   18 1
  36   18   19 1
  37   18   43 1
  38   19   20 1
  39   19   44 1
  40   19   45 1
  41   20   25 ar
  42   20   21 ar
  43   21   22 ar
  44   21   46 1
  45   22   23 ar
  46   22   47 1
  47   23   24 ar
  48   24   25 ar
  49   24   48 1
  50   25   49 1
  51   26   27 ar
  52   26   50 1
  53   27   28 ar
  54   27   51 1
