@<TRIPOS>MOLECULE
ZINC000022453679
67    71    1     0     0
SMALL
USER_CHARGES
@<TRIPOS>ATOM
1      C1     -0.0187    1.5258    0.0104 C.3      1 ZINC000022453679   -0.1600
2      C2      0.0021   -0.0041    0.0020 C.3      1 ZINC000022453679    0.0500
3      N3      0.7126   -0.4907    1.1921 N.3      1 ZINC000022453679   -0.5400
4      C4      1.9700    0.2435    1.3918 C.3      1 ZINC000022453679    0.0200
5      C5      2.6484   -0.2512    2.6711 C.3      1 ZINC000022453679    0.0000
6      N6      2.9148   -1.6913    2.5589 N.4      1 ZINC000022453679   -0.3900
7      H7      3.5111   -1.8618    1.7629 H        1 ZINC000022453679    0.4200
8      C8      3.5820   -2.1622    3.7800 C.3      1 ZINC000022453679    0.0400
9      C9      3.9656   -3.6103    3.6163 C.ar     1 ZINC000022453679   -0.1400
10     C10     3.0776   -4.6042    3.9879 C.ar     1 ZINC000022453679   -0.0800
11     C11     3.4225   -5.9319    3.8406 C.ar     1 ZINC000022453679   -0.1000
12     C12     4.6703   -6.2714    3.3154 C.ar     1 ZINC000022453679   -0.0100
13     C13     5.0463   -7.6923    3.1544 C.2      1 ZINC000022453679    0.1200
14     C14     6.2294   -8.1389    2.6621 C.2      1 ZINC000022453679   -0.1100
15     C15     6.1700   -9.5959    2.6825 C.ar     1 ZINC000022453679   -0.2400
16     C16     7.0475  -10.6298    2.3153 C.ar     1 ZINC000022453679    0.5400
17     N17     8.2983  -10.3476    1.7975 N.pl3    1 ZINC000022453679   -0.6600
18     C18     9.1986  -11.4402    1.4207 C.3      1 ZINC000022453679    0.1600
19     H19     8.6155  -12.2702    1.0217 H        1 ZINC000022453679    0.1000
20     C20     9.9757  -11.9086    2.6526 C.3      1 ZINC000022453679   -0.1700
21     C21    10.1653  -10.9552    0.3713 C.ar     1 ZINC000022453679   -0.1200
22     C22    10.7147   -9.6905    0.4694 C.ar     1 ZINC000022453679   -0.1200
23     C23    11.6015   -9.2457   -0.4932 C.ar     1 ZINC000022453679   -0.1100
24     C24    11.9393  -10.0656   -1.5536 C.ar     1 ZINC000022453679   -0.1000
25     C25    11.3906  -11.3307   -1.6512 C.ar     1 ZINC000022453679   -0.1100
26     C26    10.5071  -11.7771   -0.6863 C.ar     1 ZINC000022453679   -0.1000
27     N27     6.6450  -11.8866    2.4787 N.ar     1 ZINC000022453679   -0.5600
28     H28     7.2373  -12.6136    2.2307 H        1 ZINC000022453679    0.4500
29     C29     5.4516  -12.1605    2.9736 C.ar     1 ZINC000022453679    0.4000
30     N30     4.5972  -11.2256    3.3305 N.ar     1 ZINC000022453679   -0.4900
31     C31     4.9072   -9.9364    3.2056 C.ar     1 ZINC000022453679    0.3700
32     N32     4.2519   -8.7687    3.4866 N.pl3    1 ZINC000022453679   -0.5300
33     C33     5.5613   -5.2640    2.9426 C.ar     1 ZINC000022453679   -0.0900
34     C34     5.2018   -3.9402    3.0898 C.ar     1 ZINC000022453679   -0.0800
35     C35     1.6476   -2.4133    2.3846 C.3      1 ZINC000022453679   -0.0100
36     C36     0.9609   -1.9366    1.1028 C.3      1 ZINC000022453679    0.0300
37     H37     1.0039    1.9031    0.0027 H        1 ZINC000022453679    0.0600
38     H38    -0.5459    1.8868   -0.8726 H        1 ZINC000022453679    0.0800
39     H39    -0.5289    1.8773    0.9072 H        1 ZINC000022453679    0.0700
40     H40    -1.0205   -0.3814    0.0098 H        1 ZINC000022453679    0.0900
41     H41     0.5123   -0.3556   -0.8948 H        1 ZINC000022453679    0.0500
42     H42     2.6297    0.0730    0.5410 H        1 ZINC000022453679    0.0600
43     H43     1.7588    1.3091    1.4808 H        1 ZINC000022453679    0.1300
44     H44     3.5883    0.2821    2.8135 H        1 ZINC000022453679    0.1400
45     H45     1.9941   -0.0681    3.5235 H        1 ZINC000022453679    0.1400
46     H46     4.4778   -1.5669    3.9572 H        1 ZINC000022453679    0.1400
47     H47     2.9040   -2.0594    4.6272 H        1 ZINC000022453679    0.1400
48     H48     2.1126   -4.3401    4.3944 H        1 ZINC000022453679    0.1400
49     H49     2.7287   -6.7067    4.1314 H        1 ZINC000022453679    0.1300
50     H50     7.0553   -7.5324    2.3207 H        1 ZINC000022453679    0.1800
51     H51     8.5796   -9.4263    1.6839 H        1 ZINC000022453679    0.4400
52     H52    10.5588  -11.0785    3.0516 H        1 ZINC000022453679    0.0800
53     H53     9.2764  -12.2593    3.4116 H        1 ZINC000022453679    0.0600
54     H54    10.6455  -12.7215    2.3723 H        1 ZINC000022453679    0.1000
55     H55    10.4509   -9.0499    1.2979 H        1 ZINC000022453679    0.1200
56     H56    12.0303   -8.2573   -0.4169 H        1 ZINC000022453679    0.1300
57     H57    12.6316   -9.7178   -2.3060 H        1 ZINC000022453679    0.1300
58     H58    11.6542  -11.9712   -2.4798 H        1 ZINC000022453679    0.1400
59     H59    10.0784  -12.7655   -0.7625 H        1 ZINC000022453679    0.1300
60     H60     5.1647  -13.1952    3.0900 H        1 ZINC000022453679    0.2500
61     H61     3.3598   -8.7073    3.8625 H        1 ZINC000022453679    0.4400
62     H62     6.5285   -5.5201    2.5359 H        1 ZINC000022453679    0.1400
63     H63     5.8902   -3.1596    2.8013 H        1 ZINC000022453679    0.1400
64     H64     1.8455   -3.4829    2.3145 H        1 ZINC000022453679    0.1300
65     H65     0.9984   -2.2191    3.2384 H        1 ZINC000022453679    0.1400
66     H66     0.0134   -2.4614    0.9811 H        1 ZINC000022453679    0.1200
67     H67     1.6039   -2.1430    0.2473 H        1 ZINC000022453679    0.0600
@<TRIPOS>BOND
1     1     2     1
2     1     37    1
3     1     38    1
4     1     39    1
5     2     3     1
6     2     40    1
7     2     41    1
8     3     36    1
9     3     4     1
10    4     5     1
11    4     42    1
12    4     43    1
13    5     6     1
14    5     44    1
15    5     45    1
16    6     7     1
17    6     8     1
18    6     35    1
19    8     9     1
20    8     46    1
21    8     47    1
22    9     34    ar
23    9     10    ar
24    10    11    ar
25    10    48    1
26    11    12    ar
27    11    49    1
28    12    13    1
29    12    33    ar
30    13    32    1
31    13    14    2
32    14    15    1
33    14    50    1
34    15    31    ar
35    15    16    ar
36    16    17    1
37    16    27    ar
38    17    18    1
39    17    51    1
40    18    19    1
41    18    20    1
42    18    21    1
43    20    52    1
44    20    53    1
45    20    54    1
46    21    26    ar
47    21    22    ar
48    22    23    ar
49    22    55    1
50    23    24    ar
51    23    56    1
52    24    25    ar
53    24    57    1
54    25    26    ar
55    25    58    1
56    26    59    1
57    27    28    1
58    27    29    ar
59    29    30    ar
60    29    60    1
61    30    31    ar
62    31    32    1
63    32    61    1
64    33    34    ar
65    33    62    1
66    34    63    1
67    35    36    1
68    35    64    1
69    35    65    1
70    36    66    1
71    36    67    1
@<TRIPOS>SUBSTRUCTURE
1   ZINC000022453679 1     RESIDUE    1   A     ZIN   1
