@<TRIPOS>MOLECULE
ZINC000003780941
52    55    1     0     0
SMALL
USER_CHARGES
@<TRIPOS>ATOM
1      C1     -5.9185    2.7316    4.6502 C.3      1 ZINC000003780941   -0.1500
2      C2     -6.3872    2.6621    3.1954 C.3      1 ZINC000003780941   -0.1200
3      C3     -5.5264    3.5914    2.3373 C.3      1 ZINC000003780941    0.0500
4      N4     -5.9763    3.5247    0.9405 N.3      1 ZINC000003780941   -0.4500
5      C5     -5.0330    4.2141    0.0500 C.3      1 ZINC000003780941    0.1000
6      C6     -3.7201    3.4743    0.0395 C.ar     1 ZINC000003780941   -0.0900
7      C7     -3.5027    2.4699   -0.8866 C.ar     1 ZINC000003780941   -0.0900
8      C8     -2.3025    1.7890   -0.9011 C.ar     1 ZINC000003780941   -0.1000
9      C9     -1.3079    2.1155    0.0197 C.ar     1 ZINC000003780941   -0.0400
10     C10    -0.0168    1.3876    0.0097 C.ar     1 ZINC000003780941   -0.0400
11     C11     0.0021   -0.0041    0.0020 C.ar     1 ZINC000003780941   -0.1100
12     C12     1.2069   -0.6782   -0.0136 C.ar     1 ZINC000003780941   -0.1300
13     C13     2.4014    0.0216   -0.0208 C.ar     1 ZINC000003780941   -0.1200
14     C14     2.4020    1.4018   -0.0129 C.ar     1 ZINC000003780941   -0.1100
15     C15     1.1954    2.0986    0.0019 C.ar     1 ZINC000003780941    0.0500
16     C16     1.1905    3.5772    0.0094 C.2      1 ZINC000003780941    0.0700
17     N17     0.1186    4.3723    0.0176 N.2      1 ZINC000003780941   -0.3500
18     N18     0.5403    5.5906    0.0244 N.2      1 ZINC000003780941   -0.2000
19     N19     1.8272    5.5949    0.0128 N.2      1 ZINC000003780941   -0.1900
20     N20     2.2570    4.3795    0.0035 N.pl3    1 ZINC000003780941   -0.3700
21     C21    -1.5346    3.1254    0.9538 C.ar     1 ZINC000003780941    0.0000
22     C22    -2.7370    3.8026    0.9555 C.ar     1 ZINC000003780941   -0.1300
23     C23    -7.2508    4.0399    0.8059 C.ar     1 ZINC000003780941    0.3500
24     N24    -7.4922    5.2973    1.1438 N.ar     1 ZINC000003780941   -0.4900
25     H25    -6.7655    5.8424    1.4838 H        1 ZINC000003780941    0.4300
26     C26    -8.6926    5.8300    1.0258 C.ar     1 ZINC000003780941    0.1100
27     C27    -9.7627    5.0914    0.5516 C.ar     1 ZINC000003780941   -0.1400
28     C28    -9.5718    3.7707    0.1884 C.ar     1 ZINC000003780941    0.0200
29     C29    -8.2876    3.2245    0.3157 C.ar     1 ZINC000003780941   -0.1000
30     C30    -8.0283    1.8258   -0.0563 C.2      1 ZINC000003780941    0.5200
31     O31    -8.9383    1.1270   -0.4813 O.co2    1 ZINC000003780941   -0.6700
32     O32    -6.9025    1.3607    0.0591 O.co2    1 ZINC000003780941   -0.6000
33     H33    -4.8757    2.4203    4.7112 H        1 ZINC000003780941    0.0600
34     H34    -6.0141    3.7546    5.0142 H        1 ZINC000003780941    0.0500
35     H35    -6.5318    2.0696    5.2615 H        1 ZINC000003780941    0.0600
36     H36    -7.4300    2.9735    3.1343 H        1 ZINC000003780941    0.0500
37     H37    -6.2915    1.6392    2.8313 H        1 ZINC000003780941    0.1000
38     H38    -4.4836    3.2800    2.3983 H        1 ZINC000003780941    0.1200
39     H39    -5.6220    4.6144    2.7014 H        1 ZINC000003780941    0.0300
40     H40    -4.8739    5.2316    0.4069 H        1 ZINC000003780941    0.0400
41     H41    -5.4419    4.2431   -0.9600 H        1 ZINC000003780941    0.0900
42     H42    -4.2740    2.2179   -1.5994 H        1 ZINC000003780941    0.1200
43     H43    -2.1339    1.0051   -1.6245 H        1 ZINC000003780941    0.1100
44     H44    -0.9258   -0.5567    0.0079 H        1 ZINC000003780941    0.1200
45     H45     1.2176   -1.7582   -0.0198 H        1 ZINC000003780941    0.1200
46     H46     3.3382   -0.5156   -0.0322 H        1 ZINC000003780941    0.1200
47     H47     3.3375    1.9416   -0.0182 H        1 ZINC000003780941    0.1300
48     H48    -0.7694    3.3796    1.6723 H        1 ZINC000003780941    0.1100
49     H49    -2.9123    4.5877    1.6762 H        1 ZINC000003780941    0.1100
50     H50    -8.8448    6.8610    1.3090 H        1 ZINC000003780941    0.1900
51     H51   -10.7398    5.5432    0.4655 H        1 ZINC000003780941    0.1700
52     H52   -10.3921    3.1750   -0.1838 H        1 ZINC000003780941    0.1800
@<TRIPOS>BOND
1     1     2     1
2     1     33    1
3     1     34    1
4     1     35    1
5     2     3     1
6     2     36    1
7     2     37    1
8     3     4     1
9     3     38    1
10    3     39    1
11    4     5     1
12    4     23    1
13    5     6     1
14    5     40    1
15    5     41    1
16    6     22    ar
17    6     7     ar
18    7     8     ar
19    7     42    1
20    8     9     ar
21    8     43    1
22    9     10    1
23    9     21    ar
24    10    15    ar
25    10    11    ar
26    11    12    ar
27    11    44    1
28    12    13    ar
29    12    45    1
30    13    14    ar
31    13    46    1
32    14    15    ar
33    14    47    1
34    15    16    1
35    16    20    1
36    16    17    2
37    17    18    1
38    18    19    2
39    19    20    1
40    21    22    ar
41    21    48    1
42    22    49    1
43    23    29    ar
44    23    24    ar
45    24    25    1
46    24    26    ar
47    26    27    ar
48    26    50    1
49    27    28    ar
50    27    51    1
51    28    29    ar
52    28    52    1
53    29    30    1
54    30    31    ar
55    30    32    ar
@<TRIPOS>SUBSTRUCTURE
1   ZINC000003780941 1     RESIDUE    1   A     ZIN   1
