@<TRIPOS>MOLECULE
ZINC000003778885
49    52    1     0     0
SMALL
USER_CHARGES
@<TRIPOS>ATOM
1      C1     -0.0173    1.4248    0.0099 C.3      1 ZINC000003778885    0.0200
2      O2      0.0021   -0.0041    0.0020 O.3      1 ZINC000003778885   -0.3100
3      C3      0.6028   -0.6042   -1.0506 C.ar     1 ZINC000003778885    0.1200
4      C4      1.1682    0.1746   -2.0544 C.ar     1 ZINC000003778885   -0.1500
5      C5      1.7887   -0.3954   -3.1403 C.ar     1 ZINC000003778885   -0.0600
6      C6      1.8632   -1.8069   -3.2557 C.ar     1 ZINC000003778885    0.1800
7      N7      2.4681   -2.3474   -4.3113 N.ar     1 ZINC000003778885   -0.4800
8      C8      2.5650   -3.6633   -4.4679 C.ar     1 ZINC000003778885    0.2800
9      C9      1.9970   -4.5334   -3.4646 C.ar     1 ZINC000003778885   -0.2500
10     C10     1.3376   -4.0860   -2.3112 C.ar     1 ZINC000003778885    0.2700
11     N11     0.9662   -5.1927   -1.6510 N.pl3    1 ZINC000003778885   -0.4500
12     N12     1.3852   -6.3303   -2.3772 N.pl3    1 ZINC000003778885   -0.3800
13     C13     1.1639   -7.7232   -1.9806 C.3      1 ZINC000003778885    0.1400
14     C14     2.3397   -8.2036   -1.1277 C.3      1 ZINC000003778885   -0.1800
15     C15     2.1086   -9.6582   -0.7135 C.3      1 ZINC000003778885   -0.0100
16     N16     3.2376  -10.1194    0.1054 N.4      1 ZINC000003778885   -0.3900
17     H17     4.0995   -9.9769   -0.3993 H        1 ZINC000003778885    0.4300
18     C18     3.2743   -9.3588    1.3617 C.3      1 ZINC000003778885   -0.0500
19     C19     3.0749  -11.5487    0.4030 C.3      1 ZINC000003778885   -0.0500
20     C20     2.0294   -5.9197   -3.5096 C.ar     1 ZINC000003778885    0.2800
21     C21     2.6716   -6.4973   -4.6287 C.ar     1 ZINC000003778885   -0.2300
22     C22     3.2193   -5.6994   -5.5942 C.ar     1 ZINC000003778885    0.0800
23     C23     3.1914   -4.3034   -5.5595 C.ar     1 ZINC000003778885   -0.1000
24     N24     3.8078   -3.5091   -6.6477 N.pl3    1 ZINC000003778885    0.0100
25     O25     4.3889   -4.1189   -7.6601 O.2      1 ZINC000003778885   -0.2400
26     O26     3.7745   -2.1933   -6.6027 O.2      1 ZINC000003778885   -0.1500
27     C27     1.2611   -2.6242   -2.1896 C.ar     1 ZINC000003778885   -0.1000
28     C28     0.6533   -2.0100   -1.1139 C.ar     1 ZINC000003778885   -0.1200
29     H29     1.0053    1.8021    0.0021 H        1 ZINC000003778885    0.0600
30     H30    -0.5445    1.7859   -0.8732 H        1 ZINC000003778885    0.0600
31     H31    -0.5275    1.7763    0.9067 H        1 ZINC000003778885    0.1100
32     H32     1.1184    1.2508   -1.9792 H        1 ZINC000003778885    0.1500
33     H33     2.2196    0.2321   -3.9064 H        1 ZINC000003778885    0.1600
34     H34     0.4859   -5.2096   -0.8084 H        1 ZINC000003778885    0.4600
35     H35     0.2426   -7.7943   -1.4024 H        1 ZINC000003778885    0.1100
36     H36     1.0827   -8.3461   -2.8714 H        1 ZINC000003778885    0.1300
37     H37     3.2610   -8.1324   -1.7059 H        1 ZINC000003778885    0.1000
38     H38     2.4208   -7.5806   -0.2369 H        1 ZINC000003778885    0.1000
39     H39     1.1873   -9.7293   -0.1352 H        1 ZINC000003778885    0.1400
40     H40     2.0275  -10.2811   -1.6043 H        1 ZINC000003778885    0.1400
41     H41     2.3431   -9.5127    1.9069 H        1 ZINC000003778885    0.1200
42     H42     4.1120   -9.7010    1.9693 H        1 ZINC000003778885    0.1300
43     H43     3.3949   -8.2982    1.1408 H        1 ZINC000003778885    0.1200
44     H44     3.0477  -12.1131   -0.5291 H        1 ZINC000003778885    0.1300
45     H45     3.9126  -11.8910    1.0107 H        1 ZINC000003778885    0.1300
46     H46     2.1437  -11.7027    0.9483 H        1 ZINC000003778885    0.1200
47     H47     2.7301   -7.5717   -4.7208 H        1 ZINC000003778885    0.1500
48     H48     3.7017   -6.1770   -6.4342 H        1 ZINC000003778885    0.1600
49     H49     0.2149   -2.6047   -0.3262 H        1 ZINC000003778885    0.1300
@<TRIPOS>BOND
1     1     2     1
2     1     29    1
3     1     30    1
4     1     31    1
5     2     3     1
6     3     28    ar
7     3     4     ar
8     4     5     ar
9     4     32    1
10    5     6     ar
11    5     33    1
12    6     27    ar
13    6     7     ar
14    7     8     ar
15    8     23    ar
16    8     9     ar
17    9     20    ar
18    9     10    ar
19    10    11    1
20    10    27    ar
21    11    12    1
22    11    34    1
23    12    13    1
24    12    20    1
25    13    14    1
26    13    35    1
27    13    36    1
28    14    15    1
29    14    37    1
30    14    38    1
31    15    16    1
32    15    39    1
33    15    40    1
34    16    17    1
35    16    18    1
36    16    19    1
37    18    41    1
38    18    42    1
39    18    43    1
40    19    44    1
41    19    45    1
42    19    46    1
43    20    21    ar
44    21    22    ar
45    21    47    1
46    22    23    ar
47    22    48    1
48    23    24    1
49    24    25    2
50    24    26    2
51    27    28    ar
52    28    49    1
@<TRIPOS>SUBSTRUCTURE
1   ZINC000003778885 1     RESIDUE    1   A     ZIN   1
