@<TRIPOS>MOLECULE
ZINC000001530830
36    37    1     0     0
SMALL
USER_CHARGES
@<TRIPOS>ATOM
1      C1     -0.0091    1.8974    0.0078 C.3      1 ZINC000001530830   -0.0600
2      N2     -0.0323    0.4327   -0.1025 N.4      1 ZINC000001530830   -0.3900
3      H3     -0.9875    0.1161   -0.1763 H        1 ZINC000001530830    0.4200
4      C4      0.7142    0.0198   -1.2983 C.3      1 ZINC000001530830   -0.0400
5      C5      0.5886   -0.1581    1.0906 C.3      1 ZINC000001530830   -0.0100
6      C6     -0.2592    0.1686    2.3216 C.3      1 ZINC000001530830   -0.0700
7      C7      0.3044   -0.5446    3.5235 C.2      1 ZINC000001530830   -0.1700
8      C8     -0.0889   -1.7350    4.0026 C.2      1 ZINC000001530830    0.0600
9      N9      0.6530   -2.0613    5.1064 N.pl3    1 ZINC000001530830   -0.5900
10     C10     1.5640   -1.0629    5.3696 C.ar     1 ZINC000001530830    0.1100
11     C11     2.5377   -0.8912    6.3492 C.ar     1 ZINC000001530830   -0.1500
12     C12     3.3175    0.2444    6.3545 C.ar     1 ZINC000001530830   -0.0700
13     C13     3.1448    1.2272    5.3904 C.ar     1 ZINC000001530830   -0.1600
14     C14     2.1848    1.0794    4.4079 C.ar     1 ZINC000001530830    0.1800
15     O15     2.0173    2.0430    3.4647 O.3      1 ZINC000001530830   -0.6600
16     P16     1.2501    3.3544    3.9974 P.3      1 ZINC000001530830    2.1500
17     O17     2.0052    3.9342    5.2142 O.2      1 ZINC000001530830   -1.0800
18     O18    -0.1878    2.9752    4.4165 O.3      1 ZINC000001530830   -1.0700
19     O19     1.1944    4.4568    2.8254 O.3      1 ZINC000001530830   -0.9000
20     C20     1.3900   -0.0732    4.3868 C.ar     1 ZINC000001530830   -0.1100
21     H21     1.0228    2.2394    0.0875 H        1 ZINC000001530830    0.1200
22     H22    -0.4698    2.3357   -0.8774 H        1 ZINC000001530830    0.1200
23     H23    -0.5630    2.2037    0.8952 H        1 ZINC000001530830    0.1300
24     H24     1.7461    0.3618   -1.2186 H        1 ZINC000001530830    0.1200
25     H25     0.6970   -1.0670   -1.3802 H        1 ZINC000001530830    0.1200
26     H26     0.2535    0.4581   -2.1836 H        1 ZINC000001530830    0.1200
27     H27     0.6518   -1.2395    0.9696 H        1 ZINC000001530830    0.1300
28     H28     1.5901    0.2522    1.2199 H        1 ZINC000001530830    0.1300
29     H29    -0.2449    1.2442    2.4976 H        1 ZINC000001530830    0.1000
30     H30    -1.2853   -0.1583    2.1532 H        1 ZINC000001530830    0.0900
31     H31    -0.8741   -2.3447    3.5806 H        1 ZINC000001530830    0.1700
32     H32     0.5516   -2.8743    5.6256 H        1 ZINC000001530830    0.4200
33     H33     2.6817   -1.6484    7.1057 H        1 ZINC000001530830    0.1200
34     H34     4.0712    0.3713    7.1175 H        1 ZINC000001530830    0.1300
35     H35     3.7636    2.1123    5.4084 H        1 ZINC000001530830    0.1400
36     H36     0.7451    5.2754    3.0764 H        1 ZINC000001530830    0.4200
@<TRIPOS>BOND
1     1     2     1
2     1     21    1
3     1     22    1
4     1     23    1
5     2     3     1
6     2     4     1
7     2     5     1
8     4     24    1
9     4     25    1
10    4     26    1
11    5     6     1
12    5     27    1
13    5     28    1
14    6     7     1
15    6     29    1
16    6     30    1
17    7     20    1
18    7     8     2
19    8     9     1
20    8     31    1
21    9     10    1
22    9     32    1
23    10    20    ar
24    10    11    ar
25    11    12    ar
26    11    33    1
27    12    13    ar
28    12    34    1
29    13    14    ar
30    13    35    1
31    14    15    1
32    14    20    ar
33    15    16    1
34    16    17    2
35    16    18    1
36    16    19    1
37    19    36    1
@<TRIPOS>SUBSTRUCTURE
1   ZINC000001530830 1     RESIDUE    1   A     ZIN   1
