@<TRIPOS>MOLECULE
ZINC000008214682
67    68    1     0     0
SMALL
USER_CHARGES
@<TRIPOS>ATOM
1      C1     13.9584    1.9160   -2.5850 C.3      1 ZINC000008214682   -0.1500
2      C2     12.5441    2.4618   -2.7918 C.3      1 ZINC000008214682   -0.1300
3      C3     11.6231    1.9200   -1.6969 C.3      1 ZINC000008214682   -0.1200
4      C4     10.2088    2.4658   -1.9037 C.3      1 ZINC000008214682   -0.1200
5      C5      9.2878    1.9239   -0.8088 C.3      1 ZINC000008214682   -0.1200
6      C6      7.8735    2.4697   -1.0156 C.3      1 ZINC000008214682   -0.1200
7      C7      6.9525    1.9279    0.0793 C.3      1 ZINC000008214682   -0.1200
8      C8      5.5382    2.4737   -0.1275 C.3      1 ZINC000008214682   -0.1200
9      C9      4.6172    1.9318    0.9674 C.3      1 ZINC000008214682   -0.0900
10     C10     3.2242    2.4694    0.7637 C.2      1 ZINC000008214682   -0.1500
11     C11     2.1970    1.6325    0.6644 C.2      1 ZINC000008214682   -0.1200
12     C12     0.8371    2.1573    0.4655 C.2      1 ZINC000008214682   -0.1300
13     C13    -0.1901    1.3204    0.3662 C.2      1 ZINC000008214682   -0.1300
14     C14    -1.5823    1.8577    0.1562 C.3      1 ZINC000008214682   -0.0600
15     H15    -2.1984    1.6193    1.0232 H        1 ZINC000008214682    0.1100
16     S16    -1.5099    3.6576   -0.0576 S.3      1 ZINC000008214682   -0.2700
17     C17    -3.2589    4.1389   -0.0608 C.3      1 ZINC000008214682   -0.0500
18     C18    -3.3680    5.6643   -0.1074 C.3      1 ZINC000008214682   -0.1600
19     C19    -4.8210    6.0641   -0.1101 C.2      1 ZINC000008214682    0.5000
20     O20    -5.6888    5.2083   -0.0777 O.co2    1 ZINC000008214682   -0.6900
21     O21    -5.1287    7.2434   -0.1446 O.co2    1 ZINC000008214682   -0.7100
22     C22    -2.1921    1.2198   -1.0937 C.3      1 ZINC000008214682    0.1600
23     H23    -3.1580    1.6799   -1.3020 H        1 ZINC000008214682    0.1100
24     O24    -1.3183    1.4220   -2.2062 O.3      1 ZINC000008214682   -0.5400
25     C25    -2.3786   -0.2578   -0.8634 C.ar     1 ZINC000008214682   -0.1100
26     C26    -1.3473   -1.1356   -1.1441 C.ar     1 ZINC000008214682   -0.1300
27     C27    -1.5092   -2.4930   -0.9308 C.ar     1 ZINC000008214682   -0.1200
28     C28    -2.7057   -2.9801   -0.4462 C.ar     1 ZINC000008214682   -0.1100
29     C29    -3.7514   -2.1004   -0.1663 C.ar     1 ZINC000008214682    0.0500
30     C30    -5.0375   -2.6165    0.3543 C.2      1 ZINC000008214682    0.0800
31     N31    -6.1162   -1.8984    0.6706 N.2      1 ZINC000008214682   -0.3600
32     N32    -7.0210   -2.7194    1.0823 N.2      1 ZINC000008214682   -0.1900
33     N33    -6.5548   -3.9184    1.0454 N.2      1 ZINC000008214682   -0.2000
34     N34    -5.3436   -3.8905    0.6047 N.pl3    1 ZINC000008214682   -0.3700
35     C35    -3.5802   -0.7328   -0.3784 C.ar     1 ZINC000008214682   -0.0900
36     H36    13.9383    0.8273   -2.6330 H        1 ZINC000008214682    0.0500
37     H37    14.6146    2.3020   -3.3650 H        1 ZINC000008214682    0.0500
38     H38    14.3299    2.2299   -1.6095 H        1 ZINC000008214682    0.0500
39     H39    12.1726    2.1480   -3.7673 H        1 ZINC000008214682    0.0600
40     H40    12.5642    3.5506   -2.7438 H        1 ZINC000008214682    0.0600
41     H41    11.9946    2.2338   -0.7214 H        1 ZINC000008214682    0.0600
42     H42    11.6030    0.8312   -1.7449 H        1 ZINC000008214682    0.0600
43     H43     9.8373    2.1519   -2.8792 H        1 ZINC000008214682    0.0600
44     H44    10.2289    3.5545   -1.8557 H        1 ZINC000008214682    0.0600
45     H45     9.6593    2.2378    0.1667 H        1 ZINC000008214682    0.0600
46     H46     9.2677    0.8351   -0.8568 H        1 ZINC000008214682    0.0600
47     H47     7.5020    2.1559   -1.9911 H        1 ZINC000008214682    0.0600
48     H48     7.8936    3.5585   -0.9676 H        1 ZINC000008214682    0.0600
49     H49     7.3240    2.2417    1.0548 H        1 ZINC000008214682    0.0600
50     H50     6.9324    0.8391    0.0313 H        1 ZINC000008214682    0.0600
51     H51     5.1667    2.1598   -1.1030 H        1 ZINC000008214682    0.0600
52     H52     5.5583    3.5624   -0.0795 H        1 ZINC000008214682    0.0600
53     H53     4.9887    2.2457    1.9429 H        1 ZINC000008214682    0.0700
54     H54     4.5971    0.8430    0.9194 H        1 ZINC000008214682    0.0600
55     H55     3.0608    3.5350    0.6983 H        1 ZINC000008214682    0.1100
56     H56     2.3604    0.5669    0.7297 H        1 ZINC000008214682    0.1100
57     H57     0.6737    3.2229    0.4001 H        1 ZINC000008214682    0.1300
58     H58    -0.0267    0.2548    0.4315 H        1 ZINC000008214682    0.1200
59     H59    -3.7514    3.7125   -0.9347 H        1 ZINC000008214682    0.0800
60     H60    -3.7395    3.7677    0.8444 H        1 ZINC000008214682    0.0800
61     H61    -2.8754    6.0907    0.7665 H        1 ZINC000008214682    0.0600
62     H62    -2.8874    6.0355   -1.0126 H        1 ZINC000008214682    0.0600
63     H63    -0.4385    1.0380   -2.0902 H        1 ZINC000008214682    0.3600
64     H64    -0.4102   -0.7595   -1.5274 H        1 ZINC000008214682    0.1100
65     H65    -0.6989   -3.1732   -1.1479 H        1 ZINC000008214682    0.1200
66     H66    -2.8322   -4.0403   -0.2837 H        1 ZINC000008214682    0.1300
67     H67    -4.3860   -0.0468   -0.1631 H        1 ZINC000008214682    0.1300
@<TRIPOS>BOND
1     1     2     1
2     1     36    1
3     1     37    1
4     1     38    1
5     2     3     1
6     2     39    1
7     2     40    1
8     3     4     1
9     3     41    1
10    3     42    1
11    4     5     1
12    4     43    1
13    4     44    1
14    5     6     1
15    5     45    1
16    5     46    1
17    6     7     1
18    6     47    1
19    6     48    1
20    7     8     1
21    7     49    1
22    7     50    1
23    8     9     1
24    8     51    1
25    8     52    1
26    9     10    1
27    9     53    1
28    9     54    1
29    10    11    2
30    10    55    1
31    11    12    1
32    11    56    1
33    12    13    2
34    12    57    1
35    13    14    1
36    13    58    1
37    14    15    1
38    14    16    1
39    14    22    1
40    16    17    1
41    17    18    1
42    17    59    1
43    17    60    1
44    18    19    1
45    18    61    1
46    18    62    1
47    19    20    ar
48    19    21    ar
49    22    23    1
50    22    24    1
51    22    25    1
52    24    63    1
53    25    35    ar
54    25    26    ar
55    26    27    ar
56    26    64    1
57    27    28    ar
58    27    65    1
59    28    29    ar
60    28    66    1
61    29    30    1
62    29    35    ar
63    30    34    1
64    30    31    2
65    31    32    1
66    32    33    2
67    33    34    1
68    35    67    1
@<TRIPOS>SUBSTRUCTURE
1   ZINC000008214682 1     RESIDUE    1   A     ZIN   1
