@<TRIPOS>MOLECULE
ZINC000003816429
87    89    1     0     0
SMALL
USER_CHARGES
@<TRIPOS>ATOM
1      C1      2.9221   -4.4827    0.4002 C.3      1 ZINC000003816429   -0.1600
2      C2      3.0616   -4.5646    1.9217 C.3      1 ZINC000003816429   -0.1200
3      C3      3.3127   -3.1651    2.4868 C.3      1 ZINC000003816429   -0.1200
4      C4      3.4521   -3.2469    4.0082 C.3      1 ZINC000003816429   -0.0500
5      C5      3.6995   -1.8685    4.5648 C.2      1 ZINC000003816429    0.1000
6      C6      2.7290   -1.0013    4.9680 C.2      1 ZINC000003816429   -0.2400
7      C7      1.2764   -1.2218    4.9459 C.2      1 ZINC000003816429    0.4700
8      O8      0.6212   -0.8632    3.9855 O.2      1 ZINC000003816429   -0.4200
9      C9      0.6109   -1.8795    6.0908 C.ar     1 ZINC000003816429   -0.1500
10     C10     1.3327   -2.1666    7.2509 C.ar     1 ZINC000003816429   -0.0600
11     C11     0.7057   -2.7799    8.3155 C.ar     1 ZINC000003816429   -0.1300
12     C12    -0.6355   -3.1110    8.2353 C.ar     1 ZINC000003816429   -0.0700
13     C13    -1.3138   -3.7809    9.4024 C.3      1 ZINC000003816429   -0.0800
14     C14    -1.8944   -2.7158   10.3348 C.3      1 ZINC000003816429   -0.1400
15     C15    -2.5831   -3.3959   11.5198 C.3      1 ZINC000003816429   -0.0100
16     N16    -3.0217   -2.3765   12.4822 N.4      1 ZINC000003816429   -0.3900
17     H17    -2.2357   -1.8002   12.7434 H        1 ZINC000003816429    0.4200
18     C18    -4.0607   -1.5386   11.8687 C.3      1 ZINC000003816429   -0.0200
19     C19    -4.4287   -0.4014   12.8237 C.3      1 ZINC000003816429   -0.1500
20     C20    -5.5109    0.4713   12.1847 C.3      1 ZINC000003816429   -0.1200
21     C21    -5.8789    1.6085   13.1398 C.3      1 ZINC000003816429   -0.1600
22     C22    -3.5657   -3.0339   13.6780 C.3      1 ZINC000003816429   -0.0200
23     C23    -2.4495   -3.7997   14.3912 C.3      1 ZINC000003816429   -0.1500
24     C24    -2.9843   -4.3752   15.7041 C.3      1 ZINC000003816429   -0.1200
25     C25    -1.8681   -5.1411   16.4173 C.3      1 ZINC000003816429   -0.1600
26     C26    -1.3567   -2.8293    7.0885 C.ar     1 ZINC000003816429   -0.1300
27     C27    -0.7434   -2.2111    6.0187 C.ar     1 ZINC000003816429   -0.0500
28     C28     3.4415    0.2067    5.4324 C.ar     1 ZINC000003816429   -0.1100
29     C29     3.0381    1.4268    5.9544 C.ar     1 ZINC000003816429    0.0000
30     C30     4.0008    2.3748    6.2999 C.ar     1 ZINC000003816429   -0.1300
31     C31     3.5890    3.6778    6.8569 C.2      1 ZINC000003816429    0.5100
32     O32     2.4102    3.9256    7.0150 O.2      1 ZINC000003816429   -0.5100
33     O33     4.5203    4.5926    7.1902 O.3      1 ZINC000003816429   -0.3500
34     C34     4.0427    5.8521    7.7324 C.3      1 ZINC000003816429    0.0800
35     C35     3.9380    5.7449    9.2551 C.3      1 ZINC000003816429   -0.1700
36     C36     5.0219    6.9691    7.3659 C.3      1 ZINC000003816429   -0.1500
37     C37     5.3592    2.0874    6.1175 C.ar     1 ZINC000003816429   -0.0400
38     C38     5.7531    0.8859    5.6037 C.ar     1 ZINC000003816429   -0.1100
39     C39     4.8066   -0.0722    5.2533 C.ar     1 ZINC000003816429    0.0900
40     O40     4.9049   -1.3161    4.7421 O.3      1 ZINC000003816429   -0.1700
41     H41     3.8391   -4.0774   -0.0274 H        1 ZINC000003816429    0.0600
42     H42     2.7432   -5.4797   -0.0024 H        1 ZINC000003816429    0.0600
43     H43     2.0846   -3.8328    0.1466 H        1 ZINC000003816429    0.0600
44     H44     2.1446   -4.9699    2.3493 H        1 ZINC000003816429    0.0600
45     H45     3.8990   -5.2145    2.1753 H        1 ZINC000003816429    0.0700
46     H46     4.2297   -2.7597    2.0591 H        1 ZINC000003816429    0.0700
47     H47     2.4752   -2.5152    2.2331 H        1 ZINC000003816429    0.0700
48     H48     2.5351   -3.6523    4.4359 H        1 ZINC000003816429    0.1000
49     H49     4.2896   -3.8968    4.2619 H        1 ZINC000003816429    0.1000
50     H50     2.3797   -1.9093    7.3145 H        1 ZINC000003816429    0.1300
51     H51     1.2628   -3.0025    9.2135 H        1 ZINC000003816429    0.1300
52     H52    -2.1170   -4.4210    9.0374 H        1 ZINC000003816429    0.0900
53     H53    -0.5877   -4.3840    9.9474 H        1 ZINC000003816429    0.0900
54     H54    -1.0913   -2.0756   10.6999 H        1 ZINC000003816429    0.0900
55     H55    -2.6206   -2.1126    9.7899 H        1 ZINC000003816429    0.0900
56     H56    -3.4479   -3.9563   11.1646 H        1 ZINC000003816429    0.1300
57     H57    -1.8834   -4.0765   12.0049 H        1 ZINC000003816429    0.1300
58     H58    -3.6860   -1.1213   10.9341 H        1 ZINC000003816429    0.1300
59     H59    -4.9443   -2.1445   11.6676 H        1 ZINC000003816429    0.1300
60     H60    -4.8035   -0.8187   13.7584 H        1 ZINC000003816429    0.0900
61     H61    -3.5452    0.2045   13.0248 H        1 ZINC000003816429    0.0900
62     H62    -5.1361    0.8886   11.2501 H        1 ZINC000003816429    0.0700
63     H63    -6.3944   -0.1346   11.9837 H        1 ZINC000003816429    0.0700
64     H64    -6.6498    2.2302   12.6845 H        1 ZINC000003816429    0.0700
65     H65    -6.2536    1.1912   14.0744 H        1 ZINC000003816429    0.0600
66     H66    -4.9953    2.2144   13.3408 H        1 ZINC000003816429    0.0600
67     H67    -3.9773   -2.2815   14.3508 H        1 ZINC000003816429    0.1300
68     H68    -4.3528   -3.7284   13.3845 H        1 ZINC000003816429    0.1300
69     H69    -2.1015   -4.6123   13.7534 H        1 ZINC000003816429    0.0900
70     H70    -1.6215   -3.1229   14.6017 H        1 ZINC000003816429    0.0900
71     H71    -3.3323   -3.5627   16.3419 H        1 ZINC000003816429    0.0700
72     H72    -3.8123   -5.0521   15.4936 H        1 ZINC000003816429    0.0700
73     H73    -1.5201   -5.9536   15.7795 H        1 ZINC000003816429    0.0600
74     H74    -1.0401   -4.4642   16.6278 H        1 ZINC000003816429    0.0600
75     H75    -2.2491   -5.5511   17.3527 H        1 ZINC000003816429    0.0700
76     H76    -2.4032   -3.0903    7.0324 H        1 ZINC000003816429    0.1300
77     H77    -1.3074   -1.9918    5.1242 H        1 ZINC000003816429    0.1400
78     H78     1.9885    1.6408    6.0916 H        1 ZINC000003816429    0.1400
79     H79     3.0612    6.0782    7.3158 H        1 ZINC000003816429    0.0900
80     H80     3.5795    6.6904    9.6621 H        1 ZINC000003816429    0.0800
81     H81     3.2404    4.9491    9.5162 H        1 ZINC000003816429    0.0600
82     H82     4.9196    5.5188    9.6717 H        1 ZINC000003816429    0.0700
83     H83     5.0964    7.0455    6.2812 H        1 ZINC000003816429    0.0700
84     H84     4.6634    7.9146    7.7730 H        1 ZINC000003816429    0.0800
85     H85     6.0034    6.7431    7.7826 H        1 ZINC000003816429    0.0700
86     H86     6.1022    2.8238    6.3857 H        1 ZINC000003816429    0.1600
87     H87     6.8042    0.6779    5.4681 H        1 ZINC000003816429    0.1500
@<TRIPOS>BOND
1     1     2     1
2     1     41    1
3     1     42    1
4     1     43    1
5     2     3     1
6     2     44    1
7     2     45    1
8     3     4     1
9     3     46    1
10    3     47    1
11    4     5     1
12    4     48    1
13    4     49    1
14    5     40    1
15    5     6     2
16    6     7     1
17    6     28    1
18    7     8     2
19    7     9     1
20    9     27    ar
21    9     10    ar
22    10    11    ar
23    10    50    1
24    11    12    ar
25    11    51    1
26    12    13    1
27    12    26    ar
28    13    14    1
29    13    52    1
30    13    53    1
31    14    15    1
32    14    54    1
33    14    55    1
34    15    16    1
35    15    56    1
36    15    57    1
37    16    17    1
38    16    18    1
39    16    22    1
40    18    19    1
41    18    58    1
42    18    59    1
43    19    20    1
44    19    60    1
45    19    61    1
46    20    21    1
47    20    62    1
48    20    63    1
49    21    64    1
50    21    65    1
51    21    66    1
52    22    23    1
53    22    67    1
54    22    68    1
55    23    24    1
56    23    69    1
57    23    70    1
58    24    25    1
59    24    71    1
60    24    72    1
61    25    73    1
62    25    74    1
63    25    75    1
64    26    27    ar
65    26    76    1
66    27    77    1
67    28    39    ar
68    28    29    ar
69    29    30    ar
70    29    78    1
71    30    31    1
72    30    37    ar
73    31    32    2
74    31    33    1
75    33    34    1
76    34    35    1
77    34    36    1
78    34    79    1
79    35    80    1
80    35    81    1
81    35    82    1
82    36    83    1
83    36    84    1
84    36    85    1
85    37    38    ar
86    37    86    1
87    38    39    ar
88    38    87    1
89    39    40    1
@<TRIPOS>SUBSTRUCTURE
1   ZINC000003816429 1     RESIDUE    1   A     ZIN   1
