@<TRIPOS>MOLECULE
ZINC000003976476
62    63    1     0     0
SMALL
USER_CHARGES
@<TRIPOS>ATOM
1      C1     -1.0872    2.0342    1.9544 C.3      1 ZINC000003976476   -0.1500
2      C2     -1.2648    0.5149    1.9869 C.3      1 ZINC000003976476   -0.1500
3      C3     -0.6662   -0.0959    0.7182 C.3      1 ZINC000003976476   -0.0900
4      C4      0.8312    0.2130    0.6609 C.3      1 ZINC000003976476   -0.1200
5      C5      1.4079   -0.3014   -0.6596 C.3      1 ZINC000003976476   -0.1500
6      C6     -0.8740   -1.6116    0.7348 C.3      1 ZINC000003976476   -0.1100
7      C7     -2.3568   -1.9254    0.5255 C.3      1 ZINC000003976476   -0.0700
8      C8     -3.1439   -1.4520    1.7203 C.2      1 ZINC000003976476    0.5400
9      O9     -3.9942   -0.5974    1.5865 O.2      1 ZINC000003976476   -0.5100
10     N10    -2.9031   -1.9783    2.9374 N.am     1 ZINC000003976476   -0.6700
11     C11    -3.7165   -1.6318    4.0236 C.ar     1 ZINC000003976476    0.2200
12     C12    -4.9827   -1.1104    3.8056 C.ar     1 ZINC000003976476   -0.1500
13     C13    -5.7842   -0.7695    4.8793 C.ar     1 ZINC000003976476   -0.0600
14     C14    -5.3271   -0.9464    6.1722 C.ar     1 ZINC000003976476   -0.1500
15     C15    -4.0662   -1.4655    6.3991 C.ar     1 ZINC000003976476   -0.0400
16     C16    -3.2575   -1.8157    5.3280 C.ar     1 ZINC000003976476   -0.1700
17     S17    -1.6499   -2.4776    5.6140 S.3      1 ZINC000003976476   -0.0300
18     C18    -1.9538   -4.1359    5.3159 C.2      1 ZINC000003976476    0.3100
19     O19    -3.0451   -4.4914    4.9226 O.2      1 ZINC000003976476   -0.4300
20     C20    -0.8658   -5.1538    5.5419 C.3      1 ZINC000003976476   -0.1200
21     C21    -1.3946   -6.5491    5.2034 C.3      1 ZINC000003976476   -0.1400
22     C22     0.3301   -4.8300    4.6443 C.3      1 ZINC000003976476   -0.1500
23     C23    -2.8572   -1.2098   -0.7309 C.3      1 ZINC000003976476   -0.1000
24     C24    -4.3399   -1.5236   -0.9401 C.3      1 ZINC000003976476   -0.1300
25     C25    -4.5232   -3.0335   -1.1060 C.3      1 ZINC000003976476   -0.1200
26     C26    -4.0229   -3.7491    0.1504 C.3      1 ZINC000003976476   -0.1200
27     C27    -2.5401   -3.4353    0.3597 C.3      1 ZINC000003976476   -0.1100
28     H28    -1.5136    2.4693    2.8582 H        1 ZINC000003976476    0.0500
29     H29    -0.0254    2.2748    1.9013 H        1 ZINC000003976476    0.0500
30     H30    -1.5960    2.4408    1.0804 H        1 ZINC000003976476    0.0500
31     H31    -0.7559    0.1082    2.8609 H        1 ZINC000003976476    0.0600
32     H32    -2.3265    0.2742    2.0400 H        1 ZINC000003976476    0.0800
33     H33    -1.1585    0.3288   -0.1566 H        1 ZINC000003976476    0.0800
34     H34     0.9828    1.2903    0.7285 H        1 ZINC000003976476    0.0700
35     H35     1.3355   -0.2778    1.4933 H        1 ZINC000003976476    0.0600
36     H36     1.3497   -1.3896   -0.6820 H        1 ZINC000003976476    0.0500
37     H37     0.8355    0.1103   -1.4909 H        1 ZINC000003976476    0.0500
38     H38     2.4492    0.0087   -0.7466 H        1 ZINC000003976476    0.0500
39     H39    -0.2899   -2.0672   -0.0648 H        1 ZINC000003976476    0.0800
40     H40    -0.5499   -2.0123    1.6952 H        1 ZINC000003976476    0.0600
41     H41    -2.1664   -2.5971    3.0612 H        1 ZINC000003976476    0.4100
42     H42    -5.3428   -0.9703    2.7971 H        1 ZINC000003976476    0.1600
43     H43    -6.7701   -0.3635    4.7077 H        1 ZINC000003976476    0.1300
44     H44    -5.9569   -0.6778    7.0074 H        1 ZINC000003976476    0.1300
45     H45    -3.7123   -1.6020    7.4102 H        1 ZINC000003976476    0.1300
46     H46    -0.5542   -5.1268    6.5861 H        1 ZINC000003976476    0.1100
47     H47    -1.7062   -6.5761    4.1593 H        1 ZINC000003976476    0.0600
48     H48    -0.6077   -7.2854    5.3670 H        1 ZINC000003976476    0.0700
49     H49    -2.2466   -6.7798    5.8429 H        1 ZINC000003976476    0.0600
50     H50     0.7068   -3.8360    4.8854 H        1 ZINC000003976476    0.0700
51     H51     1.1170   -5.5664    4.8078 H        1 ZINC000003976476    0.0800
52     H52     0.0185   -4.8571    3.6001 H        1 ZINC000003976476    0.0600
53     H53    -2.7266   -0.1342   -0.6127 H        1 ZINC000003976476    0.0800
54     H54    -2.2878   -1.5522   -1.5950 H        1 ZINC000003976476    0.0700
55     H55    -4.9093   -1.1813   -0.0760 H        1 ZINC000003976476    0.0900
56     H56    -4.6964   -1.0139   -1.8352 H        1 ZINC000003976476    0.0600
57     H57    -5.5796   -3.2571   -1.2551 H        1 ZINC000003976476    0.0600
58     H58    -3.9539   -3.3759   -1.9702 H        1 ZINC000003976476    0.0600
59     H59    -4.5922   -3.4067    1.0146 H        1 ZINC000003976476    0.0600
60     H60    -4.1535   -4.8248    0.0323 H        1 ZINC000003976476    0.0700
61     H61    -1.9708   -3.7776   -0.5045 H        1 ZINC000003976476    0.0800
62     H62    -2.1836   -3.9450    1.2548 H        1 ZINC000003976476    0.0600
@<TRIPOS>BOND
1     1     2     1
2     1     28    1
3     1     29    1
4     1     30    1
5     2     3     1
6     2     31    1
7     2     32    1
8     3     4     1
9     3     6     1
10    3     33    1
11    4     5     1
12    4     34    1
13    4     35    1
14    5     36    1
15    5     37    1
16    5     38    1
17    6     7     1
18    6     39    1
19    6     40    1
20    7     27    1
21    7     8     1
22    7     23    1
23    8     9     2
24    8     10    am
25    10    11    1
26    10    41    1
27    11    16    ar
28    11    12    ar
29    12    13    ar
30    12    42    1
31    13    14    ar
32    13    43    1
33    14    15    ar
34    14    44    1
35    15    16    ar
36    15    45    1
37    16    17    1
38    17    18    1
39    18    19    2
40    18    20    1
41    20    21    1
42    20    22    1
43    20    46    1
44    21    47    1
45    21    48    1
46    21    49    1
47    22    50    1
48    22    51    1
49    22    52    1
50    23    24    1
51    23    53    1
52    23    54    1
53    24    25    1
54    24    55    1
55    24    56    1
56    25    26    1
57    25    57    1
58    25    58    1
59    26    27    1
60    26    59    1
61    26    60    1
62    27    61    1
63    27    62    1
@<TRIPOS>SUBSTRUCTURE
1   ZINC000003976476 1     RESIDUE    1   A     ZIN   1
