@<TRIPOS>MOLECULE
ZINC000003775973
63    65    1     0     0
SMALL
USER_CHARGES
@<TRIPOS>ATOM
1      C1     -1.3687    1.3625   -2.5054 C.3      1 ZINC000003775973   -0.1100
2      C2     -0.9238    0.0944   -1.8234 C.ar     1 ZINC000003775973   -0.1300
3      C3     -0.9585   -1.1060   -2.5081 C.ar     1 ZINC000003775973   -0.0300
4      C4     -0.5516   -2.2701   -1.8849 C.ar     1 ZINC000003775973   -0.2200
5      C5     -0.1076   -2.2335   -0.5713 C.ar     1 ZINC000003775973    0.2100
6      O6      0.2936   -3.3770    0.0437 O.3      1 ZINC000003775973   -0.2600
7      C7      0.1243   -4.5970   -0.6808 C.3      1 ZINC000003775973    0.1300
8      C8     -1.3435   -4.7511   -1.0842 C.3      1 ZINC000003775973   -0.2000
9      C9      0.9982   -4.5701   -1.9363 C.3      1 ZINC000003775973   -0.1800
10     C10     0.5369   -5.7762    0.2025 C.3      1 ZINC000003775973    0.2700
11     H11    -0.0857   -5.7954    1.0970 H        1 ZINC000003775973    0.0600
12     O12     0.3675   -6.9968   -0.5223 O.3      1 ZINC000003775973   -0.3700
13     C13     0.7543   -8.1622    0.2123 C.3      1 ZINC000003775973    0.0700
14     C14     2.2229   -8.0237    0.6280 C.3      1 ZINC000003775973   -0.1400
15     H15     2.5002   -8.8575    1.2729 H        1 ZINC000003775973    0.0900
16     C16     3.1105   -8.0224   -0.6183 C.3      1 ZINC000003775973   -0.0900
17     C17     3.0160   -9.3612   -1.3036 C.2      1 ZINC000003775973   -0.1900
18     C18     2.6898   -9.4269   -2.5707 C.2      1 ZINC000003775973   -0.1300
19     C19     2.6067   -8.1671   -3.3936 C.3      1 ZINC000003775973   -0.0700
20     C20     3.5006   -8.3042   -4.6277 C.3      1 ZINC000003775973   -0.1800
21     C21     3.4175   -7.0444   -5.4506 C.2      1 ZINC000003775973    0.4900
22     O22     2.7089   -6.1225   -5.0840 O.co2    1 ZINC000003775973   -0.7000
23     O23     4.0588   -6.9472   -6.4830 O.co2    1 ZINC000003775973   -0.7100
24     C24     2.3997   -6.7051    1.3889 C.3      1 ZINC000003775973    0.1400
25     H25     1.8386   -6.7445    2.3225 H        1 ZINC000003775973    0.0700
26     C26     3.8607   -6.4868    1.6872 C.ar     1 ZINC000003775973   -0.1300
27     C27     4.3949   -6.8800    2.9045 C.ar     1 ZINC000003775973   -0.0700
28     C28     5.7444   -6.6597    3.1351 C.ar     1 ZINC000003775973   -0.1800
29     C29     6.5065   -6.0597    2.1508 C.ar     1 ZINC000003775973    0.1000
30     N30     5.9644   -5.6985    1.0041 N.ar     1 ZINC000003775973   -0.4800
31     C31     4.6862   -5.8972    0.7484 C.ar     1 ZINC000003775973    0.1400
32     O32     1.9084   -5.6322    0.5795 O.3      1 ZINC000003775973   -0.3600
33     C33    -0.0733   -1.0272    0.1136 C.ar     1 ZINC000003775973   -0.0800
34     N34     0.3999   -0.9846    1.5153 N.pl3    1 ZINC000003775973    0.0400
35     O35     0.4298    0.0745    2.1160 O.2      1 ZINC000003775973   -0.1900
36     O36     0.7594   -2.0086    2.0681 O.2      1 ZINC000003775973   -0.1300
37     C37    -0.4762    0.1345   -0.5155 C.ar     1 ZINC000003775973   -0.0300
38     H38    -0.5166    1.8256   -3.0029 H        1 ZINC000003775973    0.0800
39     H39    -2.1367    1.1284   -3.2426 H        1 ZINC000003775973    0.0700
40     H40    -1.7745    2.0507   -1.7639 H        1 ZINC000003775973    0.0700
41     H41    -1.3043   -1.1340   -3.5308 H        1 ZINC000003775973    0.1500
42     H42    -0.5796   -3.2078   -2.4200 H        1 ZINC000003775973    0.1800
43     H43    -1.6794   -3.8439   -1.5865 H        1 ZINC000003775973    0.0900
44     H44    -1.4474   -5.6002   -1.7598 H        1 ZINC000003775973    0.1000
45     H45    -1.9494   -4.9190   -0.1938 H        1 ZINC000003775973    0.0700
46     H46     2.0242   -4.8247   -1.6705 H        1 ZINC000003775973    0.0800
47     H47     0.6196   -5.2938   -2.6581 H        1 ZINC000003775973    0.0900
48     H48     0.9734   -3.5725   -2.3749 H        1 ZINC000003775973    0.0700
49     H49     0.1308   -8.2568    1.1013 H        1 ZINC000003775973    0.0500
50     H50     0.6344   -9.0455   -0.4151 H        1 ZINC000003775973    0.1100
51     H51     2.7773   -7.2405   -1.3008 H        1 ZINC000003775973    0.1000
52     H52     4.1442   -7.8350   -0.3279 H        1 ZINC000003775973    0.0700
53     H53     3.2172  -10.2665   -0.7502 H        1 ZINC000003775973    0.1000
54     H54     2.4805  -10.3838   -3.0255 H        1 ZINC000003775973    0.1000
55     H55     1.5755   -8.0059   -3.7080 H        1 ZINC000003775973    0.0700
56     H56     2.9408   -7.3195   -2.7952 H        1 ZINC000003775973    0.0700
57     H57     4.5318   -8.4654   -4.3133 H        1 ZINC000003775973    0.0500
58     H58     3.1665   -9.1518   -5.2261 H        1 ZINC000003775973    0.0500
59     H59     3.7747   -7.3466    3.6556 H        1 ZINC000003775973    0.1300
60     H60     6.1941   -6.9529    4.0722 H        1 ZINC000003775973    0.1300
61     H61     7.5582   -5.8843    2.3227 H        1 ZINC000003775973    0.1500
62     H62     4.2777   -5.5878   -0.2023 H        1 ZINC000003775973    0.1600
63     H63    -0.4497    1.0736    0.0171 H        1 ZINC000003775973    0.1600
@<TRIPOS>BOND
1     1     2     1
2     1     38    1
3     1     39    1
4     1     40    1
5     2     37    ar
6     2     3     ar
7     3     4     ar
8     3     41    1
9     4     5     ar
10    4     42    1
11    5     6     1
12    5     33    ar
13    6     7     1
14    7     8     1
15    7     9     1
16    7     10    1
17    8     43    1
18    8     44    1
19    8     45    1
20    9     46    1
21    9     47    1
22    9     48    1
23    10    11    1
24    10    32    1
25    10    12    1
26    12    13    1
27    13    14    1
28    13    49    1
29    13    50    1
30    14    15    1
31    14    16    1
32    14    24    1
33    16    17    1
34    16    51    1
35    16    52    1
36    17    18    2
37    17    53    1
38    18    19    1
39    18    54    1
40    19    20    1
41    19    55    1
42    19    56    1
43    20    21    1
44    20    57    1
45    20    58    1
46    21    22    ar
47    21    23    ar
48    24    25    1
49    24    26    1
50    24    32    1
51    26    31    ar
52    26    27    ar
53    27    28    ar
54    27    59    1
55    28    29    ar
56    28    60    1
57    29    30    ar
58    29    61    1
59    30    31    ar
60    31    62    1
61    33    34    1
62    33    37    ar
63    34    35    2
64    34    36    2
65    37    63    1
@<TRIPOS>SUBSTRUCTURE
1   ZINC000003775973 1     RESIDUE    1   A     ZIN   1
