@<TRIPOS>MOLECULE
ZINC000003643214
  53   55    0    0    0
SMALL
USER_CHARGES
NO_NAME
@<TRIPOS>ATOM
    1 O1        0.0021    -0.0041     0.0020 O.co2  1 <0>      -0.6900
    2 C2       -0.0145     1.2196     0.0087 C.2    1 <0>       0.5200
    3 O3        1.0368     1.8458     0.0021 O.co2  1 <0>      -0.7000
    4 C4       -1.2948     1.9357     0.0187 C.2    1 <0>      -0.1800
    5 C5       -2.4127     1.2301     0.0256 C.2    1 <0>      -0.1400
    6 C6       -3.7736     1.8691     0.0293 C.3    1 <0>      -0.0800
    7 C7       -3.6516     3.3402     0.4346 C.3    1 <0>       0.0500
    8 N8       -2.5898     3.9621    -0.3733 N.3    1 <0>      -0.5200
    9 C9       -2.6286     5.4260    -0.2566 C.3    1 <0>       0.0600
   10 C10      -1.6859     6.0452    -1.2904 C.3    1 <0>       0.0600
   11 O11      -2.1661     5.7579    -2.6053 O.3    1 <0>      -0.3500
   12 C12      -1.3532     6.2943    -3.6511 C.3    1 <0>       0.1600
   13 C13      -1.4487     5.4081    -4.8663 C.ar   1 <0>      -0.0500
   14 C14      -2.6658     4.8629    -5.2301 C.ar   1 <0>      -0.0800
   15 C15      -2.7534     4.0500    -6.3448 C.ar   1 <0>      -0.0700
   16 C16      -1.6241     3.7829    -7.0959 C.ar   1 <0>      -0.1800
   17 C17      -1.7196     2.8963    -8.3108 C.3    1 <0>       0.5100
   18 F18      -1.9987     3.6775    -9.4373 F      1 <0>      -0.1800
   19 F19      -0.5051     2.2273    -8.4965 F      1 <0>      -0.1800
   20 F20      -2.7437     1.9612    -8.1264 F      1 <0>      -0.1800
   21 C21      -0.4074     4.3292    -6.7328 C.ar   1 <0>      -0.0700
   22 C22      -0.3204     5.1451    -5.6204 C.ar   1 <0>      -0.1100
   23 C23      -1.8333     7.6794    -4.0004 C.ar   1 <0>      -0.0700
   24 C24      -3.1816     7.9787    -3.9422 C.ar   1 <0>      -0.0900
   25 C25      -3.6220     9.2492    -4.2626 C.ar   1 <0>      -0.0700
   26 C26      -2.7140    10.2206    -4.6407 C.ar   1 <0>      -0.1800
   27 C27      -3.1942    11.6055    -4.9905 C.3    1 <0>       0.5100
   28 F28      -3.2083    12.3990    -3.8384 F      1 <0>      -0.1800
   29 F29      -2.3336    12.1724    -5.9367 F      1 <0>      -0.1800
   30 F30      -4.4865    11.5309    -5.5212 F      1 <0>      -0.1800
   31 C31      -1.3656     9.9216    -4.6976 C.ar   1 <0>      -0.0700
   32 C32      -0.9248     8.6522    -4.3735 C.ar   1 <0>      -0.1100
   33 C33      -1.2764     3.4374     0.0268 C.3    1 <0>       0.1100
   34 H34      -2.3458     0.1522     0.0283 H      1 <0>       0.1100
   35 H35      -4.2082     1.8026    -0.9680 H      1 <0>       0.0700
   36 H36      -4.4164     1.3493     0.7398 H      1 <0>       0.0700
   37 H37      -4.5974     3.8501     0.2512 H      1 <0>       0.0700
   38 H38      -3.3948     3.4086     1.4917 H      1 <0>       0.0300
   39 H39      -3.6448     5.7779    -0.4347 H      1 <0>       0.0800
   40 H40      -2.3129     5.7191     0.7446 H      1 <0>       0.0500
   41 H41      -1.6467     7.1248    -1.1458 H      1 <0>       0.0500
   42 H42      -0.6872     5.6258    -1.1687 H      1 <0>       0.0600
   43 H43      -0.3167     6.3424    -3.3171 H      1 <0>       0.0900
   44 H44      -3.5481     5.0716    -4.6432 H      1 <0>       0.1400
   45 H45      -3.7042     3.6235    -6.6286 H      1 <0>       0.1400
   46 H46       0.4749     4.1208    -7.3199 H      1 <0>       0.1400
   47 H47       0.6302     5.5720    -5.3367 H      1 <0>       0.1400
   48 H48      -3.8909     7.2198    -3.6468 H      1 <0>       0.1400
   49 H49      -4.6755     9.4828    -4.2179 H      1 <0>       0.1400
   50 H50      -0.6562    10.6807    -4.9926 H      1 <0>       0.1400
   51 H51       0.1287     8.4186    -4.4178 H      1 <0>       0.1400
   52 H52      -1.0338     3.7960     1.0271 H      1 <0>       0.0400
   53 H53      -0.5187     3.7886    -0.6737 H      1 <0>       0.0900
@<TRIPOS>BOND
   1    1    2 ar
   2    2    3 ar
   3    2    4 1
   4    4   33 1
   5    4    5 2
   6    5    6 1
   7    5   34 1
   8    6    7 1
   9    6   35 1
  10    6   36 1
  11    7    8 1
  12    7   37 1
  13    7   38 1
  14    8    9 1
  15    8   33 1
  16    9   10 1
  17    9   39 1
  18    9   40 1
  19   10   11 1
  20   10   41 1
  21   10   42 1
  22   11   12 1
  23   12   13 1
  24   12   23 1
  25   12   43 1
  26   13   22 ar
  27   13   14 ar
  28   14   15 ar
  29   14   44 1
  30   15   16 ar
  31   15   45 1
  32   16   17 1
  33   16   21 ar
  34   17   18 1
  35   17   19 1
  36   17   20 1
  37   21   22 ar
  38   21   46 1
  39   22   47 1
  40   23   32 ar
  41   23   24 ar
  42   24   25 ar
  43   24   48 1
  44   25   26 ar
  45   25   49 1
  46   26   27 1
  47   26   31 ar
  48   27   28 1
  49   27   29 1
  50   27   30 1
  51   31   32 ar
  52   31   50 1
  53   32   51 1
  54   33   52 1
  55   33   53 1
