@<TRIPOS>MOLECULE
ZINC000011726215
46    48    1     0     0
SMALL
USER_CHARGES
@<TRIPOS>ATOM
1      C1     -4.7411   -4.2264    2.9750 C.3      1 ZINC000011726215    0.0500
2      O2     -3.5065   -4.2147    2.2108 O.3      1 ZINC000011726215   -0.3500
3      C3     -2.3558   -4.1876    2.9091 C.2      1 ZINC000011726215    0.6600
4      O4     -2.3824   -4.1742    4.1237 O.2      1 ZINC000011726215   -0.5600
5      N5     -1.1743   -4.1755    2.2608 N.am     1 ZINC000011726215   -0.6100
6      C6      0.0097   -4.1476    2.9793 C.2      1 ZINC000011726215    0.5300
7      N7      1.2071   -4.1281    2.4534 N.2      1 ZINC000011726215   -0.5100
8      C8      2.1402   -4.1024    3.4425 C.ar     1 ZINC000011726215    0.1000
9      C9      3.5370   -4.0750    3.4425 C.ar     1 ZINC000011726215   -0.0800
10     C10     4.2197   -4.0528    4.6255 C.ar     1 ZINC000011726215   -0.0700
11     C11     3.5351   -4.0576    5.8389 C.ar     1 ZINC000011726215   -0.1300
12     S12     4.4343   -4.0286    7.3539 S.3      1 ZINC000011726215    0.0100
13     C13     4.5424   -5.7341    7.7833 C.ar     1 ZINC000011726215   -0.1100
14     C14     4.0707   -6.7029    6.9060 C.ar     1 ZINC000011726215   -0.1000
15     C15     4.1560   -8.0388    7.2426 C.ar     1 ZINC000011726215   -0.1300
16     C16     4.7128   -8.4147    8.4580 C.ar     1 ZINC000011726215    0.1400
17     N17     4.7988   -9.7710    8.7995 N.am     1 ZINC000011726215   -0.6700
18     C18     4.6432  -10.1541   10.0823 C.2      1 ZINC000011726215    0.5200
19     O19     4.5123   -9.3197   10.9528 O.2      1 ZINC000011726215   -0.5100
20     C20     4.6319  -11.6192   10.4350 C.3      1 ZINC000011726215    0.0700
21     H21     5.3857  -12.1408    9.8452 H        1 ZINC000011726215    0.1100
22     C22     3.2517  -12.2060   10.1324 C.3      1 ZINC000011726215   -0.1800
23     N23     4.9301  -11.7811   11.8643 N.3      1 ZINC000011726215   -0.8300
24     C24     5.1848   -7.4468    9.3350 C.ar     1 ZINC000011726215   -0.1000
25     C25     5.1047   -6.1109    8.9969 C.ar     1 ZINC000011726215   -0.0800
26     C26     2.1488   -4.0846    5.8590 C.ar     1 ZINC000011726215   -0.0400
27     C27     1.4461   -4.1069    4.6643 C.ar     1 ZINC000011726215    0.0400
28     N28     0.1000   -4.1305    4.3423 N.pl3    1 ZINC000011726215   -0.5900
29     H29    -4.7945   -3.3301    3.5929 H        1 ZINC000011726215    0.0700
30     H30    -5.5907   -4.2483    2.2924 H        1 ZINC000011726215    0.1100
31     H31    -4.7650   -5.1097    3.6132 H        1 ZINC000011726215    0.0700
32     H32    -1.1530   -4.1862    1.2911 H        1 ZINC000011726215    0.4400
33     H33     4.0770   -4.0718    2.5072 H        1 ZINC000011726215    0.1400
34     H34     5.2995   -4.0317    4.6202 H        1 ZINC000011726215    0.1400
35     H35     3.6370   -6.4107    5.9611 H        1 ZINC000011726215    0.1300
36     H36     3.7893   -8.7919    6.5608 H        1 ZINC000011726215    0.1300
37     H37     4.9703  -10.4341    8.1127 H        1 ZINC000011726215    0.4100
38     H38     3.0304  -12.0859    9.0718 H        1 ZINC000011726215    0.0700
39     H39     3.2435  -13.2657   10.3875 H        1 ZINC000011726215    0.0700
40     H40     2.4979  -11.6845   10.7222 H        1 ZINC000011726215    0.0600
41     H41     4.2449  -11.3062   12.4327 H        1 ZINC000011726215    0.3500
42     H42     4.9920  -12.7571   12.1125 H        1 ZINC000011726215    0.3500
43     H43     5.6178   -7.7395   10.2801 H        1 ZINC000011726215    0.1400
44     H44     5.4721   -5.3583    9.6788 H        1 ZINC000011726215    0.1300
45     H45     1.6195   -4.0879    6.8003 H        1 ZINC000011726215    0.1400
46     H46    -0.6411   -4.1354    4.9680 H        1 ZINC000011726215    0.4400
@<TRIPOS>BOND
1     1     2     1
2     1     29    1
3     1     30    1
4     1     31    1
5     2     3     1
6     3     4     2
7     3     5     am
8     5     6     1
9     5     32    1
10    6     28    1
11    6     7     2
12    7     8     1
13    8     27    ar
14    8     9     ar
15    9     10    ar
16    9     33    1
17    10    11    ar
18    10    34    1
19    11    12    1
20    11    26    ar
21    12    13    1
22    13    25    ar
23    13    14    ar
24    14    15    ar
25    14    35    1
26    15    16    ar
27    15    36    1
28    16    17    1
29    16    24    ar
30    17    18    am
31    17    37    1
32    18    19    2
33    18    20    1
34    20    21    1
35    20    22    1
36    20    23    1
37    22    38    1
38    22    39    1
39    22    40    1
40    23    41    1
41    23    42    1
42    24    25    ar
43    24    43    1
44    25    44    1
45    26    27    ar
46    26    45    1
47    27    28    1
48    28    46    1
@<TRIPOS>SUBSTRUCTURE
1   ZINC000011726215 1     RESIDUE    1   A     ZIN   1
