@<TRIPOS>MOLECULE
ZINC000001847308
  35   37    0    0    0
SMALL
USER_CHARGES
NO_NAME
@<TRIPOS>ATOM
    1 N1       -1.4136     1.0436    -2.1523 N.1    1 <0>      -0.4000
    2 C2       -0.8059     1.2282    -1.2105 C.1    1 <0>       0.2100
    3 C3       -0.0183     1.4674     0.0099 C.3    1 <0>       0.1000
    4 H4        0.3898     0.5230     0.3699 H      1 <0>       0.1500
    5 C5        1.1102     2.4173    -0.2986 C.ar   1 <0>      -0.0900
    6 C6        0.8347     3.7227    -0.6610 C.ar   1 <0>      -0.0700
    7 C7        1.8688     4.5946    -0.9442 C.ar   1 <0>      -0.1400
    8 C8        3.1812     4.1606    -0.8644 C.ar   1 <0>       0.1100
    9 F9        4.1929     5.0123    -1.1406 F      1 <0>      -0.1400
   10 C10       3.4559     2.8531    -0.5009 C.ar   1 <0>      -0.1500
   11 C11       2.4203     1.9843    -0.2135 C.ar   1 <0>      -0.0700
   12 C12      -0.9049     2.0682     1.0702 C.ar   1 <0>      -0.0600
   13 C13      -2.2631     1.8027     1.0666 C.ar   1 <0>      -0.0100
   14 Cl14     -2.9433     0.7784    -0.1589 Cl     1 <0>      -0.0200
   15 C15      -3.0785     2.3521     2.0382 C.ar   1 <0>      -0.0800
   16 C16      -2.5337     3.1715     3.0183 C.ar   1 <0>       0.1900
   17 N17      -3.3569     3.7287     4.0035 N.am   1 <0>      -0.4000
   18 N18      -3.2774     5.0996     4.2759 N.2    1 <0>      -0.1700
   19 C19      -4.0423     5.6252     5.1928 C.2    1 <0>       0.0700
   20 C20      -4.9749     4.7618     5.9224 C.2    1 <0>       0.5200
   21 O21      -5.7003     5.2262     6.7824 O.2    1 <0>      -0.4700
   22 N22      -5.0197     3.4458     5.6286 N.am   1 <0>      -0.6500
   23 C23      -4.2179     2.9411     4.6721 C.2    1 <0>       0.6800
   24 O24      -4.2664     1.7537     4.4153 O.2    1 <0>      -0.5100
   25 C25      -1.1704     3.4367     3.0192 C.ar   1 <0>      -0.0800
   26 C26      -0.3586     2.8798     2.0489 C.ar   1 <0>       0.0000
   27 Cl27      1.3457     3.2102     2.0497 Cl     1 <0>      -0.0200
   28 H28      -0.1890     4.0610    -0.7232 H      1 <0>       0.1300
   29 H29       1.6533     5.6142    -1.2280 H      1 <0>       0.1400
   30 H30       4.4791     2.5133    -0.4386 H      1 <0>       0.1400
   31 H31       2.6343     0.9645     0.0704 H      1 <0>       0.1400
   32 H32      -4.1384     2.1446     2.0349 H      1 <0>       0.1500
   33 H33      -3.9888     6.6815     5.4112 H      1 <0>       0.2300
   34 H34      -5.6324     2.8635     6.1045 H      1 <0>       0.4400
   35 H35      -0.7442     4.0738     3.7800 H      1 <0>       0.1600
@<TRIPOS>BOND
   1    1    2 3
   2    2    3 1
   3    3    4 1
   4    3    5 1
   5    3   12 1
   6    5   11 ar
   7    5    6 ar
   8    6    7 ar
   9    6   28 1
  10    7    8 ar
  11    7   29 1
  12    8    9 1
  13    8   10 ar
  14   10   11 ar
  15   10   30 1
  16   11   31 1
  17   12   26 ar
  18   12   13 ar
  19   13   14 1
  20   13   15 ar
  21   15   16 ar
  22   15   32 1
  23   16   17 1
  24   16   25 ar
  25   17   23 am
  26   17   18 1
  27   18   19 2
  28   19   20 1
  29   19   33 1
  30   20   21 2
  31   20   22 am
  32   22   23 am
  33   22   34 1
  34   23   24 2
  35   25   26 ar
  36   25   35 1
  37   26   27 1
