@<TRIPOS>MOLECULE
ZINC000068199948
  32   33    0    0    0
SMALL
USER_CHARGES
NO_NAME
@<TRIPOS>ATOM
    1 C1       -0.0173     1.4248     0.0099 C.3    1 <0>       0.0300
    2 O2        0.0021    -0.0041     0.0020 O.3    1 <0>      -0.3400
    3 C3        0.6518    -0.5703    -1.1379 C.3    1 <0>       0.0600
    4 C4        0.6131    -2.0967    -1.0411 C.3    1 <0>       0.0000
    5 C5        1.2995    -2.5577     0.2463 C.3    1 <0>       0.0800
    6 O6        0.6228    -1.9982     1.3736 O.3    1 <0>      -0.5200
    7 C7       -0.8277    -2.5849    -1.0702 C.2    1 <0>       0.3500
    8 O8       -1.6439    -2.2710    -0.2373 O.2    1 <0>      -0.3400
    9 C9       -1.1517    -3.5061    -2.2430 C.3    1 <0>      -0.1400
   10 C10      -0.8119    -2.7223    -3.5221 C.3    1 <0>      -0.1300
   11 C11       0.6383    -2.2455    -3.4469 C.3    1 <0>      -0.0200
   12 N12       1.2797    -2.6938    -2.2103 N.4    1 <0>      -0.3600
   13 H13       2.2440    -2.3968    -2.2198 H      1 <0>       0.4300
   14 C14       1.2388    -4.1531    -2.1086 C.3    1 <0>      -0.0200
   15 C15      -0.1732    -4.6894    -2.1535 C.3    1 <0>      -0.1300
   16 H16       1.0053     1.8021     0.0021 H      1 <0>       0.0500
   17 H17      -0.5445     1.7859    -0.8732 H      1 <0>       0.0500
   18 H18      -0.5275     1.7763     0.9067 H      1 <0>       0.1000
   19 H19       0.1385    -0.2506    -2.0447 H      1 <0>       0.0700
   20 H20       1.6883    -0.2344    -1.1694 H      1 <0>       0.0800
   21 H21       1.2668    -3.6456     0.3060 H      1 <0>       0.0700
   22 H22       2.3375    -2.2251     0.2437 H      1 <0>       0.0800
   23 H23       1.0048    -2.2488     2.2259 H      1 <0>       0.4000
   24 H24      -2.1902    -3.8368    -2.2241 H      1 <0>       0.1500
   25 H25      -0.9383    -3.3692    -4.3902 H      1 <0>       0.1200
   26 H26      -1.4746    -1.8611    -3.6085 H      1 <0>       0.1100
   27 H27       1.1894    -2.6425    -4.2994 H      1 <0>       0.1500
   28 H28       0.6587    -1.1564    -3.4855 H      1 <0>       0.1300
   29 H29       1.7871    -4.5850    -2.9458 H      1 <0>       0.1400
   30 H30       1.7129    -4.4596    -1.1762 H      1 <0>       0.1400
   31 H31      -0.3785    -5.2517    -1.2426 H      1 <0>       0.1100
   32 H32      -0.2878    -5.3417    -3.0192 H      1 <0>       0.1200
@<TRIPOS>BOND
   1    1    2 1
   2    1   16 1
   3    1   17 1
   4    1   18 1
   5    2    3 1
   6    3    4 1
   7    3   19 1
   8    3   20 1
   9    4   12 1
  10    4    5 1
  11    4    7 1
  12    5    6 1
  13    5   21 1
  14    5   22 1
  15    6   23 1
  16    7    8 2
  17    7    9 1
  18    9   15 1
  19    9   10 1
  20    9   24 1
  21   10   11 1
  22   10   25 1
  23   10   26 1
  24   11   12 1
  25   11   27 1
  26   11   28 1
  27   12   13 1
  28   12   14 1
  29   14   15 1
  30   14   29 1
  31   14   30 1
  32   15   31 1
  33   15   32 1
