@<TRIPOS>MOLECULE
ZINC000014208575
80    81    1     0     0
SMALL
USER_CHARGES
@<TRIPOS>ATOM
1      C1     -0.0187    1.5258    0.0104 C.3      1 ZINC000014208575   -0.1500
2      C2      0.0021   -0.0041    0.0020 C.3      1 ZINC000014208575   -0.1300
3      C3     -1.4333   -0.5336    0.0129 C.3      1 ZINC000014208575   -0.1200
4      C4     -1.4126   -2.0635    0.0045 C.3      1 ZINC000014208575   -0.1200
5      C5     -2.8479   -2.5931    0.0153 C.3      1 ZINC000014208575   -0.1200
6      C6     -2.8272   -4.1229    0.0069 C.3      1 ZINC000014208575   -0.1200
7      C7     -4.2626   -4.6525    0.0178 C.3      1 ZINC000014208575   -0.1100
8      C8     -4.2418   -6.1823    0.0094 C.3      1 ZINC000014208575   -0.0900
9      C9     -5.6556   -6.7039    0.0201 C.2      1 ZINC000014208575   -0.1600
10     C10    -6.0538   -7.5362   -0.9100 C.2      1 ZINC000014208575   -0.1600
11     C11    -7.4676   -8.0578   -0.8993 C.3      1 ZINC000014208575   -0.0900
12     C12    -8.1298   -7.7642   -2.2470 C.3      1 ZINC000014208575   -0.1200
13     C13    -9.5651   -8.2937   -2.2361 C.3      1 ZINC000014208575   -0.1200
14     C14   -10.2273   -8.0001   -3.5838 C.3      1 ZINC000014208575   -0.1200
15     C15   -11.6627   -8.5297   -3.5729 C.3      1 ZINC000014208575   -0.1200
16     C16   -12.3248   -8.2361   -4.9206 C.3      1 ZINC000014208575   -0.1100
17     C17   -13.7602   -8.7657   -4.9098 C.3      1 ZINC000014208575   -0.1100
18     C18   -14.4124   -8.4765   -6.2372 C.2      1 ZINC000014208575    0.4600
19     O19   -13.7927   -7.9054   -7.1031 O.2      1 ZINC000014208575   -0.5000
20     O20   -15.6817   -8.8533   -6.4576 O.3      1 ZINC000014208575   -0.3500
21     C21   -16.2452   -8.5420   -7.7591 C.3      1 ZINC000014208575    0.0800
22     C22   -17.6888   -9.0448   -7.8232 C.3      1 ZINC000014208575    0.0900
23     H23   -17.7324  -10.1044   -7.5713 H        1 ZINC000014208575    0.1100
24     O24   -18.5275   -8.2806   -6.9297 O.3      1 ZINC000014208575   -0.3200
25     C25   -19.8744   -8.4736   -7.4139 C.3      1 ZINC000014208575    0.2600
26     H26   -20.2547   -9.4458   -7.1004 H        1 ZINC000014208575    0.1400
27     N27   -20.7494   -7.4038   -6.9276 N.am     1 ZINC000014208575   -0.5400
28     C28   -21.8976   -7.7165   -6.2639 C.2      1 ZINC000014208575    0.1900
29     C29   -22.6979   -6.7189   -5.8189 C.2      1 ZINC000014208575   -0.3000
30     C30   -22.3185   -5.3817   -6.0559 C.2      1 ZINC000014208575    0.5000
31     N31   -23.1126   -4.3488   -5.6145 N.pl3    1 ZINC000014208575   -0.8100
32     N32   -21.1913   -5.1255   -6.7068 N.2      1 ZINC000014208575   -0.6100
33     C33   -20.4121   -6.1176   -7.1339 C.2      1 ZINC000014208575    0.6600
34     O34   -19.3803   -5.8561   -7.7297 O.2      1 ZINC000014208575   -0.5100
35     C35   -19.7529   -8.4144   -8.9527 C.3      1 ZINC000014208575    0.2200
36     F36   -20.6204   -9.3361   -9.5488 F        1 ZINC000014208575   -0.1800
37     F37   -20.0196   -7.1216   -9.4162 F        1 ZINC000014208575   -0.1500
38     C38   -18.2810   -8.8015   -9.2291 C.3      1 ZINC000014208575    0.0500
39     H39   -17.7581   -7.9844   -9.7262 H        1 ZINC000014208575    0.1100
40     O40   -18.2159   -9.9903  -10.0194 O.3      1 ZINC000014208575   -0.5300
41     H41     1.0039    1.9031    0.0027 H        1 ZINC000014208575    0.0500
42     H42    -0.5459    1.8868   -0.8726 H        1 ZINC000014208575    0.0500
43     H43    -0.5289    1.8773    0.9072 H        1 ZINC000014208575    0.0500
44     H44     0.5123   -0.3556   -0.8948 H        1 ZINC000014208575    0.0600
45     H45     0.5293   -0.3651    0.8851 H        1 ZINC000014208575    0.0600
46     H46    -1.9435   -0.1821    0.9097 H        1 ZINC000014208575    0.0600
47     H47    -1.9605   -0.1726   -0.8702 H        1 ZINC000014208575    0.0600
48     H48    -0.9024   -2.4150   -0.8923 H        1 ZINC000014208575    0.0600
49     H49    -0.8854   -2.4246    0.8875 H        1 ZINC000014208575    0.0600
50     H50    -3.3581   -2.2415    0.9121 H        1 ZINC000014208575    0.0600
51     H51    -3.3751   -2.2320   -0.8677 H        1 ZINC000014208575    0.0600
52     H52    -2.3170   -4.4744   -0.8899 H        1 ZINC000014208575    0.0600
53     H53    -2.3000   -4.4840    0.8900 H        1 ZINC000014208575    0.0600
54     H54    -4.7728   -4.3010    0.9146 H        1 ZINC000014208575    0.0600
55     H55    -4.7898   -4.2914   -0.8653 H        1 ZINC000014208575    0.0600
56     H56    -3.7316   -6.5338   -0.8874 H        1 ZINC000014208575    0.0600
57     H57    -3.7146   -6.5434    0.8924 H        1 ZINC000014208575    0.0700
58     H58    -6.3406   -6.3917    0.7945 H        1 ZINC000014208575    0.1100
59     H59    -5.3689   -7.8484   -1.6844 H        1 ZINC000014208575    0.1100
60     H60    -7.4565   -9.1340   -0.7267 H        1 ZINC000014208575    0.0700
61     H61    -8.0296   -7.5680   -0.1040 H        1 ZINC000014208575    0.0600
62     H62    -8.1408   -6.6880   -2.4196 H        1 ZINC000014208575    0.0600
63     H63    -7.5678   -8.2539   -3.0423 H        1 ZINC000014208575    0.0600
64     H64    -9.5541   -9.3699   -2.0635 H        1 ZINC000014208575    0.0600
65     H65   -10.1271   -7.8040   -1.4408 H        1 ZINC000014208575    0.0600
66     H66   -10.2384   -6.9239   -3.7564 H        1 ZINC000014208575    0.0600
67     H67    -9.6653   -8.4899   -4.3791 H        1 ZINC000014208575    0.0600
68     H68   -11.6516   -9.6059   -3.4004 H        1 ZINC000014208575    0.0600
69     H69   -12.2246   -8.0400   -2.7777 H        1 ZINC000014208575    0.0600
70     H70   -12.3359   -7.1599   -5.0932 H        1 ZINC000014208575    0.0700
71     H71   -11.7629   -8.7258   -5.7159 H        1 ZINC000014208575    0.0700
72     H72   -13.7491   -9.8419   -4.7372 H        1 ZINC000014208575    0.1100
73     H73   -14.3221   -8.2759   -4.1145 H        1 ZINC000014208575    0.1100
74     H74   -16.2290   -7.4631   -7.9134 H        1 ZINC000014208575    0.0900
75     H75   -15.6560   -9.0290   -8.5361 H        1 ZINC000014208575    0.1000
76     H76   -22.1667   -8.7487   -6.0949 H        1 ZINC000014208575    0.1800
77     H77   -23.6127   -6.9440   -5.2908 H        1 ZINC000014208575    0.1600
78     H78   -23.9361   -4.5393   -5.1386 H        1 ZINC000014208575    0.4200
79     H79   -22.8490   -3.4299   -5.7791 H        1 ZINC000014208575    0.4100
80     H80   -18.6281   -9.9068  -10.8902 H        1 ZINC000014208575    0.4000
@<TRIPOS>BOND
1     1     2     1
2     1     41    1
3     1     42    1
4     1     43    1
5     2     3     1
6     2     44    1
7     2     45    1
8     3     4     1
9     3     46    1
10    3     47    1
11    4     5     1
12    4     48    1
13    4     49    1
14    5     6     1
15    5     50    1
16    5     51    1
17    6     7     1
18    6     52    1
19    6     53    1
20    7     8     1
21    7     54    1
22    7     55    1
23    8     9     1
24    8     56    1
25    8     57    1
26    9     10    2
27    9     58    1
28    10    11    1
29    10    59    1
30    11    12    1
31    11    60    1
32    11    61    1
33    12    13    1
34    12    62    1
35    12    63    1
36    13    14    1
37    13    64    1
38    13    65    1
39    14    15    1
40    14    66    1
41    14    67    1
42    15    16    1
43    15    68    1
44    15    69    1
45    16    17    1
46    16    70    1
47    16    71    1
48    17    18    1
49    17    72    1
50    17    73    1
51    18    19    2
52    18    20    1
53    20    21    1
54    21    22    1
55    21    74    1
56    21    75    1
57    22    23    1
58    22    38    1
59    22    24    1
60    24    25    1
61    25    26    1
62    25    27    1
63    25    35    1
64    27    33    am
65    27    28    1
66    28    29    2
67    28    76    1
68    29    30    1
69    29    77    1
70    30    31    1
71    30    32    2
72    31    78    1
73    31    79    1
74    32    33    1
75    33    34    2
76    35    36    1
77    35    37    1
78    35    38    1
79    38    39    1
80    38    40    1
81    40    80    1
@<TRIPOS>SUBSTRUCTURE
1   ZINC000014208575 1     RESIDUE    1   A     ZIN   1
