@<TRIPOS>MOLECULE
ZINC000004262096
29    29    1     0     0
SMALL
USER_CHARGES
@<TRIPOS>ATOM
1      C1     -0.0184    1.5028    0.0103 C.3      1 ZINC000004262096   -0.1200
2      C2      0.0021   -0.0041    0.0020 C.2      1 ZINC000004262096   -0.1300
3      C3      0.0046   -0.6047   -1.1446 C.2      1 ZINC000004262096   -0.1600
4      C4      0.0337   -2.0957   -1.3127 C.3      1 ZINC000004262096   -0.1200
5      C5     -0.3638   -2.7815   -0.0038 C.3      1 ZINC000004262096    0.1400
6      O6     -1.7556   -2.5734    0.2441 O.3      1 ZINC000004262096   -0.5600
7      C7     -0.0774   -4.2813   -0.1014 C.3      1 ZINC000004262096   -0.0800
8      C8     -0.7864   -4.8570   -1.3290 C.3      1 ZINC000004262096   -0.1500
9      C9      1.4305   -4.5052   -0.2316 C.3      1 ZINC000004262096   -0.1500
10     C10     0.4602   -2.1678    1.1352 C.3      1 ZINC000004262096   -0.1500
11     C11     0.0243   -0.7148    1.3236 C.3      1 ZINC000004262096   -0.0900
12     H12     1.0042    1.8801    0.0026 H        1 ZINC000004262096    0.0700
13     H13    -0.5455    1.8639   -0.8728 H        1 ZINC000004262096    0.0600
14     H14    -0.5286    1.8543    0.9071 H        1 ZINC000004262096    0.0600
15     H15    -0.0159    0.0050   -2.0358 H        1 ZINC000004262096    0.1100
16     H16    -0.6644   -2.3844   -2.0984 H        1 ZINC000004262096    0.0800
17     H17     1.0396   -2.4081   -1.5933 H        1 ZINC000004262096    0.0900
18     H18    -2.0061   -1.6428    0.3239 H        1 ZINC000004262096    0.3700
19     H19    -0.4427   -4.7801    0.7963 H        1 ZINC000004262096    0.0800
20     H20    -0.4211   -4.3582   -2.2267 H        1 ZINC000004262096    0.0600
21     H21    -0.5824   -5.9255   -1.3985 H        1 ZINC000004262096    0.0500
22     H22    -1.8606   -4.6975   -1.2362 H        1 ZINC000004262096    0.0600
23     H23     1.7957   -4.0064   -1.1293 H        1 ZINC000004262096    0.0600
24     H24     1.9355   -4.0951    0.6429 H        1 ZINC000004262096    0.0600
25     H25     1.6345   -5.5737   -0.3011 H        1 ZINC000004262096    0.0600
26     H26     0.2862   -2.7259    2.0552 H        1 ZINC000004262096    0.0700
27     H27     1.5193   -2.1987    0.8791 H        1 ZINC000004262096    0.0800
28     H28     0.7195   -0.2133    1.9968 H        1 ZINC000004262096    0.0800
29     H29    -0.9757   -0.6908    1.7567 H        1 ZINC000004262096    0.0800
@<TRIPOS>BOND
1     1     2     1
2     1     12    1
3     1     13    1
4     1     14    1
5     2     11    1
6     2     3     2
7     3     4     1
8     3     15    1
9     4     5     1
10    4     16    1
11    4     17    1
12    5     6     1
13    5     7     1
14    5     10    1
15    6     18    1
16    7     8     1
17    7     9     1
18    7     19    1
19    8     20    1
20    8     21    1
21    8     22    1
22    9     23    1
23    9     24    1
24    9     25    1
25    10    11    1
26    10    26    1
27    10    27    1
28    11    28    1
29    11    29    1
@<TRIPOS>SUBSTRUCTURE
1   ZINC000004262096 1     RESIDUE    1   A     ZIN   1
