@<TRIPOS>MOLECULE
ZINC000003921098
69    73    1     0     0
SMALL
USER_CHARGES
@<TRIPOS>ATOM
1      C1      2.3313    1.8348    1.0049 C.3      1 ZINC000003921098    0.0200
2      O2      1.9842    0.4554    0.8677 O.3      1 ZINC000003921098   -0.2800
3      C3      0.6644    0.1462    0.9033 C.ar     1 ZINC000003921098    0.1600
4      C4     -0.2857    1.1509    1.0618 C.ar     1 ZINC000003921098   -0.2000
5      C5     -1.6301    0.8411    1.0997 C.ar     1 ZINC000003921098   -0.0700
6      C6     -2.0544   -0.4727    0.9806 C.ar     1 ZINC000003921098   -0.1100
7      C7     -1.1225   -1.4913    0.8208 C.ar     1 ZINC000003921098   -0.0900
8      C8      0.2505   -1.1821    0.7755 C.ar     1 ZINC000003921098   -0.1400
9      C9      1.2389   -2.2643    0.6048 C.2      1 ZINC000003921098    0.4300
10     O10     2.4194   -2.0583    0.8132 O.2      1 ZINC000003921098   -0.4200
11     C11     0.7781   -3.5992    0.1788 C.ar     1 ZINC000003921098   -0.2800
12     C12     1.6821   -4.5583   -0.2679 C.ar     1 ZINC000003921098    0.3100
13     O13     3.0061   -4.2675   -0.3104 O.3      1 ZINC000003921098   -0.6600
14     C14     1.2338   -5.8232   -0.6740 C.ar     1 ZINC000003921098   -0.1800
15     C15    -0.1038   -6.1250   -0.6335 C.ar     1 ZINC000003921098   -0.0200
16     C16    -0.6469   -7.4626   -1.0664 C.3      1 ZINC000003921098   -0.1000
17     C17     0.4659   -8.5071   -1.1138 C.3      1 ZINC000003921098    0.1500
18     O18     0.9132   -8.7946    0.2126 O.3      1 ZINC000003921098   -0.5400
19     C19    -0.0556   -9.7867   -1.7706 C.3      1 ZINC000003921098   -0.1400
20     C20    -1.3069  -10.2657   -1.0318 C.3      1 ZINC000003921098    0.0700
21     O21    -1.7940  -11.4609   -1.6453 O.3      1 ZINC000003921098   -0.5700
22     C22     1.6266   -7.9380   -1.9385 C.3      1 ZINC000003921098   -0.1300
23     C23     2.2744   -6.8091   -1.1399 C.3      1 ZINC000003921098    0.1800
24     H24     3.0005   -6.2945   -1.7692 H        1 ZINC000003921098    0.0700
25     O25     2.9429   -7.3597   -0.0033 O.3      1 ZINC000003921098   -0.3500
26     C26     4.3573   -7.4837   -0.1645 C.3      1 ZINC000003921098    0.2500
27     H27     4.7585   -6.5585   -0.5783 H        1 ZINC000003921098    0.1300
28     C28     5.0042   -7.7572    1.1958 C.3      1 ZINC000003921098   -0.1500
29     C29     4.4804   -9.0885    1.7432 C.3      1 ZINC000003921098    0.0400
30     H30     3.4049   -9.0179    1.9058 H        1 ZINC000003921098    0.1700
31     N31     5.1505   -9.3951    3.0139 N.4      1 ZINC000003921098   -0.6300
32     H32     4.9615   -8.6608    3.6796 H        1 ZINC000003921098    0.4400
33     H33     4.8046  -10.2721    3.3735 H        1 ZINC000003921098    0.4300
34     H34     6.1456   -9.4630    2.8616 H        1 ZINC000003921098    0.4400
35     C35     4.7733  -10.1964    0.7269 C.3      1 ZINC000003921098    0.0600
36     H36     4.3548  -11.1377    1.0834 H        1 ZINC000003921098    0.0800
37     O37     6.1863  -10.3334    0.5637 O.3      1 ZINC000003921098   -0.5700
38     C38     4.1353   -9.8287   -0.6153 C.3      1 ZINC000003921098    0.0600
39     H39     3.0535   -9.7649   -0.4982 H        1 ZINC000003921098    0.1000
40     C40     4.4738  -10.9017   -1.6522 C.3      1 ZINC000003921098   -0.1500
41     O41     4.6427   -8.5662   -1.0527 O.3      1 ZINC000003921098   -0.3700
42     C42    -1.0267   -5.1714   -0.1811 C.ar     1 ZINC000003921098    0.0100
43     O43    -2.3466   -5.4794   -0.1375 O.3      1 ZINC000003921098   -0.4800
44     C44    -0.5971   -3.9108    0.2242 C.ar     1 ZINC000003921098   -0.0900
45     C45    -1.5600   -2.8984    0.6912 C.2      1 ZINC000003921098    0.4400
46     O46    -2.6998   -3.2157    0.9716 O.2      1 ZINC000003921098   -0.4400
47     H47     3.4149    1.9432    0.9591 H        1 ZINC000003921098    0.1000
48     H48     1.8746    2.4065    0.1969 H        1 ZINC000003921098    0.0600
49     H49     1.9690    2.2071    1.9632 H        1 ZINC000003921098    0.0500
50     H50     0.0310    2.1791    1.1560 H        1 ZINC000003921098    0.1400
51     H51    -2.3578    1.6294    1.2236 H        1 ZINC000003921098    0.1300
52     H52    -3.1087   -0.7050    1.0124 H        1 ZINC000003921098    0.1400
53     H53    -1.4121   -7.7850   -0.3603 H        1 ZINC000003921098    0.0700
54     H54    -1.0912   -7.3661   -2.0571 H        1 ZINC000003921098    0.0800
55     H55     0.2230   -9.1421    0.7938 H        1 ZINC000003921098    0.3600
56     H56    -0.3038   -9.5851   -2.8127 H        1 ZINC000003921098    0.0800
57     H57     0.7124  -10.5587   -1.7228 H        1 ZINC000003921098    0.0700
58     H58    -1.0587  -10.4674    0.0102 H        1 ZINC000003921098    0.0400
59     H59    -2.0749   -9.4938   -1.0796 H        1 ZINC000003921098    0.0500
60     H60    -2.5878  -11.8220   -1.2277 H        1 ZINC000003921098    0.3800
61     H61     2.3604   -8.7211   -2.1292 H        1 ZINC000003921098    0.0800
62     H62     1.2492   -7.5492   -2.8844 H        1 ZINC000003921098    0.0900
63     H63     6.0867   -7.8116    1.0800 H        1 ZINC000003921098    0.1100
64     H64     4.7509   -6.9539    1.8877 H        1 ZINC000003921098    0.1100
65     H65     6.4448  -11.0191   -0.0673 H        1 ZINC000003921098    0.4000
66     H66     4.0875  -11.8646   -1.3180 H        1 ZINC000003921098    0.0700
67     H67     4.0195  -10.6397   -2.6077 H        1 ZINC000003921098    0.0800
68     H68     5.5556  -10.9652   -1.7695 H        1 ZINC000003921098    0.0700
69     H69    -2.6326   -5.8668    0.7011 H        1 ZINC000003921098    0.3700
@<TRIPOS>BOND
1     1     2     1
2     1     47    1
3     1     48    1
4     1     49    1
5     2     3     1
6     3     8     ar
7     3     4     ar
8     4     5     ar
9     4     50    1
10    5     6     ar
11    5     51    1
12    6     7     ar
13    6     52    1
14    7     45    1
15    7     8     ar
16    8     9     1
17    9     10    2
18    9     11    1
19    11    44    ar
20    11    12    ar
21    12    13    1
22    12    14    ar
23    14    23    1
24    14    15    ar
25    15    16    1
26    15    42    ar
27    16    17    1
28    16    53    1
29    16    54    1
30    17    18    1
31    17    19    1
32    17    22    1
33    18    55    1
34    19    20    1
35    19    56    1
36    19    57    1
37    20    21    1
38    20    58    1
39    20    59    1
40    21    60    1
41    22    23    1
42    22    61    1
43    22    62    1
44    23    24    1
45    23    25    1
46    25    26    1
47    26    27    1
48    26    41    1
49    26    28    1
50    28    29    1
51    28    63    1
52    28    64    1
53    29    30    1
54    29    31    1
55    29    35    1
56    31    32    1
57    31    33    1
58    31    34    1
59    35    36    1
60    35    37    1
61    35    38    1
62    37    65    1
63    38    39    1
64    38    40    1
65    38    41    1
66    40    66    1
67    40    67    1
68    40    68    1
69    42    43    1
70    42    44    ar
71    43    69    1
72    44    45    1
73    45    46    2
@<TRIPOS>SUBSTRUCTURE
1   ZINC000003921098 1     RESIDUE    1   A     ZIN   1
