@<TRIPOS>MOLECULE
ZINC000072284489
58    60    1     0     0
SMALL
USER_CHARGES
@<TRIPOS>ATOM
1      C1     -0.0173    1.4248    0.0099 C.3      1 ZINC000072284489    0.0200
2      O2      0.0021   -0.0041    0.0020 O.3      1 ZINC000072284489   -0.3000
3      C3      0.6062   -0.6075   -1.0564 C.ar     1 ZINC000072284489    0.1300
4      C4      1.1726    0.1589   -2.0617 C.ar     1 ZINC000072284489   -0.1900
5      C5      1.7874   -0.4569   -3.1378 C.ar     1 ZINC000072284489    0.0100
6      Cl6     2.4974    0.5048   -4.3967 Cl       1 ZINC000072284489   -0.0500
7      C7      1.8376   -1.8371   -3.2119 C.ar     1 ZINC000072284489   -0.1300
8      C8      1.2737   -2.6070   -2.2111 C.ar     1 ZINC000072284489   -0.0600
9      C9      1.3306   -4.1106   -2.2948 C.3      1 ZINC000072284489    0.1900
10     H10     1.4422   -4.5263   -1.2933 H        1 ZINC000072284489    0.1000
11     C11     0.0386   -4.6357   -2.9239 C.3      1 ZINC000072284489   -0.1600
12     N12     2.4733   -4.5109   -3.1197 N.pl3    1 ZINC000072284489   -0.7400
13     C13     3.0559   -5.7679   -2.9429 C.ar     1 ZINC000072284489    0.3300
14     C14     2.5496   -6.6403   -1.9902 C.ar     1 ZINC000072284489   -0.2400
15     C15     3.1313   -7.8887   -1.8180 C.ar     1 ZINC000072284489    0.2100
16     N16     2.6244   -8.7701   -0.8604 N.3      1 ZINC000072284489   -0.4900
17     C17     1.1947   -9.0256   -1.0843 C.3      1 ZINC000072284489    0.0600
18     C18     0.6605   -9.9301    0.0288 C.3      1 ZINC000072284489    0.0600
19     N19     1.4214  -11.1872    0.0426 N.3      1 ZINC000072284489   -0.6900
20     C20     2.8511  -10.9316    0.2664 C.3      1 ZINC000072284489    0.0600
21     C21     3.3854  -10.0272   -0.8467 C.3      1 ZINC000072284489    0.0500
22     C22     4.2181   -8.2607   -2.5997 C.ar     1 ZINC000072284489   -0.2400
23     C23     4.7202   -7.3893   -3.5473 C.ar     1 ZINC000072284489    0.0500
24     C24     4.1400   -6.1484   -3.7251 C.ar     1 ZINC000072284489   -0.7500
25     S25     4.7838   -5.0412   -4.9352 S.o2     1 ZINC000072284489    2.4900
26     C26     3.4477   -4.8724   -6.1506 C.3      1 ZINC000072284489   -0.6600
27     O27     4.9730   -3.8224   -4.2297 O.2      1 ZINC000072284489   -0.9400
28     O28     5.8852   -5.7400   -5.4989 O.2      1 ZINC000072284489   -0.9400
29     C29     0.6617   -1.9964   -1.1289 C.ar     1 ZINC000072284489    0.0800
30     O30     0.1067   -2.7527   -0.1440 O.3      1 ZINC000072284489   -0.3200
31     C31     0.9508   -3.1116    0.9519 C.3      1 ZINC000072284489    0.0300
32     H32     1.0053    1.8021    0.0021 H        1 ZINC000072284489    0.0600
33     H33    -0.5445    1.7859   -0.8732 H        1 ZINC000072284489    0.0600
34     H34    -0.5275    1.7763    0.9067 H        1 ZINC000072284489    0.1100
35     H35     1.1342    1.2367   -2.0059 H        1 ZINC000072284489    0.1500
36     H36     2.3178   -2.3145   -4.0532 H        1 ZINC000072284489    0.1400
37     H37    -0.0729   -4.2200   -3.9254 H        1 ZINC000072284489    0.0600
38     H38     0.0798   -5.7232   -2.9844 H        1 ZINC000072284489    0.0700
39     H39    -0.8115   -4.3379   -2.3102 H        1 ZINC000072284489    0.0800
40     H40     2.8251   -3.9030   -3.7886 H        1 ZINC000072284489    0.4000
41     H41     1.7050   -6.3485   -1.3836 H        1 ZINC000072284489    0.1300
42     H42     0.6510   -8.0809   -1.0777 H        1 ZINC000072284489    0.0900
43     H43     1.0596   -9.5166   -2.0481 H        1 ZINC000072284489    0.0600
44     H44     0.7707   -9.4277    0.9899 H        1 ZINC000072284489    0.0400
45     H45    -0.3930  -10.1446   -0.1511 H        1 ZINC000072284489    0.0900
46     H46     1.0552  -11.8240    0.7343 H        1 ZINC000072284489    0.3500
47     H47     2.9862  -10.4407    1.2302 H        1 ZINC000072284489    0.0400
48     H48     3.3948  -11.8763    0.2598 H        1 ZINC000072284489    0.0900
49     H49     3.2752  -10.5295   -1.8077 H        1 ZINC000072284489    0.0600
50     H50     4.4388   -9.8127   -0.6668 H        1 ZINC000072284489    0.0900
51     H51     4.6712   -9.2320   -2.4663 H        1 ZINC000072284489    0.1300
52     H52     5.5655   -7.6807   -4.1531 H        1 ZINC000072284489    0.1500
53     H53     2.5606   -4.4699   -5.6617 H        1 ZINC000072284489    0.1200
54     H54     3.7629   -4.1964   -6.9454 H        1 ZINC000072284489    0.1400
55     H55     3.2169   -5.8496   -6.5749 H        1 ZINC000072284489    0.1400
56     H56     1.7995   -3.6877    0.5832 H        1 ZINC000072284489    0.0500
57     H57     1.3110   -2.2083    1.4441 H        1 ZINC000072284489    0.0500
58     H58     0.3855   -3.7127    1.6641 H        1 ZINC000072284489    0.1000
@<TRIPOS>BOND
1     1     2     1
2     1     32    1
3     1     33    1
4     1     34    1
5     2     3     1
6     3     29    ar
7     3     4     ar
8     4     5     ar
9     4     35    1
10    5     6     1
11    5     7     ar
12    7     8     ar
13    7     36    1
14    8     9     1
15    8     29    ar
16    9     10    1
17    9     11    1
18    9     12    1
19    11    37    1
20    11    38    1
21    11    39    1
22    12    13    1
23    12    40    1
24    13    24    ar
25    13    14    ar
26    14    15    ar
27    14    41    1
28    15    16    1
29    15    22    ar
30    16    21    1
31    16    17    1
32    17    18    1
33    17    42    1
34    17    43    1
35    18    19    1
36    18    44    1
37    18    45    1
38    19    20    1
39    19    46    1
40    20    21    1
41    20    47    1
42    20    48    1
43    21    49    1
44    21    50    1
45    22    23    ar
46    22    51    1
47    23    24    ar
48    23    52    1
49    24    25    1
50    25    26    1
51    25    27    2
52    25    28    2
53    26    53    1
54    26    54    1
55    26    55    1
56    29    30    1
57    30    31    1
58    31    56    1
59    31    57    1
60    31    58    1
@<TRIPOS>SUBSTRUCTURE
1   ZINC000072284489 1     RESIDUE    1   A     ZIN   1
