@<TRIPOS>MOLECULE
ZINC000096209981
62    65    1     0     0
SMALL
USER_CHARGES
@<TRIPOS>ATOM
1      C1      0.0543    1.3088   -0.0927 C.3      1 ZINC000096209981   -0.1200
2      C2      0.4692   -0.1331    0.0489 C.ar     1 ZINC000096209981    0.1500
3      N3      0.8482   -0.8099   -1.0174 N.ar     1 ZINC000096209981   -0.4800
4      C4      1.2198   -2.0730   -0.9412 C.ar     1 ZINC000096209981    0.1200
5      C5      1.2242   -2.7366    0.2709 C.ar     1 ZINC000096209981   -0.1800
6      C6      0.8319   -2.0575    1.4145 C.ar     1 ZINC000096209981   -0.0400
7      C7      0.4534   -0.7291    1.2960 C.ar     1 ZINC000096209981   -0.1500
8      C8      0.0196    0.0519    2.5095 C.3      1 ZINC000096209981    0.2300
9      H9     -0.7401    0.7785    2.2215 H        1 ZINC000096209981    0.1000
10     C10     1.1796    0.7552    3.0809 C.1      1 ZINC000096209981    0.2100
11     N11     2.0749    1.2980    3.5219 N.1      1 ZINC000096209981   -0.4000
12     N12    -0.5372   -0.8679    3.5105 N.3      1 ZINC000096209981   -0.5300
13     C13    -1.6798   -1.6119    2.9639 C.3      1 ZINC000096209981    0.0400
14     C14    -2.1155   -2.6833    3.9692 C.3      1 ZINC000096209981    0.1200
15     N15    -2.3588   -2.0351    5.2668 N.am     1 ZINC000096209981   -0.6200
16     C16    -3.5114   -2.2369    5.9356 C.2      1 ZINC000096209981    0.5200
17     O17    -4.3647   -2.9612    5.4685 O.2      1 ZINC000096209981   -0.5200
18     C18    -3.7398   -1.5627    7.2638 C.3      1 ZINC000096209981    0.0400
19     N19    -5.0605   -1.9409    7.7842 N.3      1 ZINC000096209981   -0.6600
20     C20    -5.3184   -1.3007    9.0810 C.3      1 ZINC000096209981    0.1700
21     C21    -6.8053   -1.1819    9.2957 C.ar     1 ZINC000096209981   -0.0900
22     C22    -7.6420   -2.2185    8.9264 C.ar     1 ZINC000096209981   -0.1000
23     C23    -9.0059   -2.1095    9.1233 C.ar     1 ZINC000096209981   -0.1200
24     C24    -9.5330   -0.9640    9.6899 C.ar     1 ZINC000096209981   -0.1200
25     C25    -8.6963    0.0722   10.0600 C.ar     1 ZINC000096209981   -0.1200
26     C26    -7.3319   -0.0386    9.8670 C.ar     1 ZINC000096209981   -0.1100
27     C27    -4.7171   -2.1359   10.1819 C.ar     1 ZINC000096209981   -0.0800
28     C28    -4.7954   -3.5149   10.1246 C.ar     1 ZINC000096209981   -0.0800
29     C29    -4.2438   -4.2810   11.1345 C.ar     1 ZINC000096209981   -0.1300
30     C30    -3.6136   -3.6682   12.2013 C.ar     1 ZINC000096209981   -0.1200
31     C31    -3.5345   -2.2892   12.2581 C.ar     1 ZINC000096209981   -0.1200
32     C32    -4.0823   -1.5233   11.2461 C.ar     1 ZINC000096209981   -0.1200
33     C33    -1.3107   -1.1612    5.8155 C.3      1 ZINC000096209981    0.1100
34     C34    -0.9067   -0.1497    4.7375 C.3      1 ZINC000096209981    0.0300
35     H35     0.9268    1.9512    0.0264 H        1 ZINC000096209981    0.0800
36     H36    -0.3810    1.4664   -1.0795 H        1 ZINC000096209981    0.0900
37     H37    -0.6829    1.5516    0.6726 H        1 ZINC000096209981    0.0800
38     H38     1.5239   -2.5948   -1.8365 H        1 ZINC000096209981    0.1600
39     H39     1.5289   -3.7712    0.3267 H        1 ZINC000096209981    0.1400
40     H40     0.8254   -2.5505    2.3754 H        1 ZINC000096209981    0.1500
41     H41    -2.5071   -0.9260    2.7820 H        1 ZINC000096209981    0.0500
42     H42    -1.3892   -2.0884    2.0276 H        1 ZINC000096209981    0.1000
43     H43    -3.0312   -3.1612    3.6212 H        1 ZINC000096209981    0.1000
44     H44    -1.3273   -3.4289    4.0744 H        1 ZINC000096209981    0.0800
45     H45    -2.9687   -1.8758    7.9677 H        1 ZINC000096209981    0.1000
46     H46    -3.6963   -0.4813    7.1346 H        1 ZINC000096209981    0.0600
47     H47    -5.7876   -1.7193    7.1206 H        1 ZINC000096209981    0.3600
48     H48    -4.8692   -0.3077    9.0917 H        1 ZINC000096209981    0.0600
49     H49    -7.2301   -3.1134    8.4838 H        1 ZINC000096209981    0.1300
50     H50    -9.6596   -2.9190    8.8342 H        1 ZINC000096209981    0.1200
51     H51   -10.5987   -0.8786    9.8431 H        1 ZINC000096209981    0.1200
52     H52    -9.1082    0.9672   10.5023 H        1 ZINC000096209981    0.1200
53     H53    -6.6782    0.7710   10.1561 H        1 ZINC000096209981    0.1200
54     H54    -5.2877   -3.9937    9.2911 H        1 ZINC000096209981    0.1300
55     H55    -4.3056   -5.3583   11.0901 H        1 ZINC000096209981    0.1200
56     H56    -3.1833   -4.2667   12.9906 H        1 ZINC000096209981    0.1200
57     H57    -3.0424   -1.8104   13.0918 H        1 ZINC000096209981    0.1200
58     H58    -4.0205   -0.4459   11.2905 H        1 ZINC000096209981    0.1200
59     H59    -1.6945   -0.6326    6.6881 H        1 ZINC000096209981    0.0900
60     H60    -0.4452   -1.7604    6.0981 H        1 ZINC000096209981    0.0800
61     H61    -0.0555    0.4344    5.0875 H        1 ZINC000096209981    0.0900
62     H62    -1.7448    0.5159    4.5309 H        1 ZINC000096209981    0.0500
@<TRIPOS>BOND
1     1     2     1
2     1     35    1
3     1     36    1
4     1     37    1
5     2     7     ar
6     2     3     ar
7     3     4     ar
8     4     5     ar
9     4     38    1
10    5     6     ar
11    5     39    1
12    6     7     ar
13    6     40    1
14    7     8     1
15    8     9     1
16    8     10    1
17    8     12    1
18    10    11    3
19    12    34    1
20    12    13    1
21    13    14    1
22    13    41    1
23    13    42    1
24    14    15    1
25    14    43    1
26    14    44    1
27    15    16    am
28    15    33    1
29    16    17    2
30    16    18    1
31    18    19    1
32    18    45    1
33    18    46    1
34    19    20    1
35    19    47    1
36    20    21    1
37    20    27    1
38    20    48    1
39    21    26    ar
40    21    22    ar
41    22    23    ar
42    22    49    1
43    23    24    ar
44    23    50    1
45    24    25    ar
46    24    51    1
47    25    26    ar
48    25    52    1
49    26    53    1
50    27    32    ar
51    27    28    ar
52    28    29    ar
53    28    54    1
54    29    30    ar
55    29    55    1
56    30    31    ar
57    30    56    1
58    31    32    ar
59    31    57    1
60    32    58    1
61    33    34    1
62    33    59    1
63    33    60    1
64    34    61    1
65    34    62    1
@<TRIPOS>SUBSTRUCTURE
1   ZINC000096209981 1     RESIDUE    1   A     ZIN   1
