@<TRIPOS>MOLECULE
ZINC000003777350
69    73    1     0     0
SMALL
USER_CHARGES
@<TRIPOS>ATOM
1      C1     -0.0169    1.3957    0.0097 C.ar     1 ZINC000003777350   -0.2000
2      C2      1.1307    2.1201    0.0026 C.ar     1 ZINC000003777350   -0.0300
3      C3      2.3737    1.4545   -0.0128 C.ar     1 ZINC000003777350   -0.1500
4      C4      3.5758    2.1656   -0.0199 C.ar     1 ZINC000003777350    0.0100
5      C5      4.7665    1.4358   -0.0348 C.ar     1 ZINC000003777350   -0.1500
6      C6      6.0199    2.0819   -0.0422 C.ar     1 ZINC000003777350   -0.0300
7      C7      7.1560    1.3396   -0.0563 C.ar     1 ZINC000003777350   -0.2000
8      C8      7.1150   -0.0597   -0.0638 C.ar     1 ZINC000003777350    0.1500
9      O9      8.2808   -0.7556   -0.0780 O.3      1 ZINC000003777350   -0.3200
10     C10     9.4904    0.0051   -0.0844 C.3      1 ZINC000003777350    0.0200
11     C11    10.6900   -0.9444   -0.1003 C.3      1 ZINC000003777350    0.0000
12     N12    10.6996   -1.7002   -1.3599 N.4      1 ZINC000003777350   -0.3800
13     H13     9.8135   -2.1686   -1.4767 H        1 ZINC000003777350    0.4300
14     C14    11.7768   -2.6966   -1.3227 C.3      1 ZINC000003777350   -0.0100
15     C15    11.7401   -3.5408   -2.5984 C.3      1 ZINC000003777350   -0.1500
16     C16    11.9286   -2.6281   -3.8136 C.3      1 ZINC000003777350   -0.1400
17     C17    10.8434   -1.5476   -3.8013 C.3      1 ZINC000003777350   -0.1500
18     C18    10.9151   -0.7775   -2.4808 C.3      1 ZINC000003777350   -0.0100
19     C19     5.9341   -0.7416   -0.0568 C.ar     1 ZINC000003777350   -0.1400
20     C20     4.7184   -0.0299   -0.0425 C.ar     1 ZINC000003777350    0.2100
21     N21     3.5535   -0.6713   -0.0349 N.ar     1 ZINC000003777350   -0.4800
22     C22     2.3988   -0.0118   -0.0210 C.ar     1 ZINC000003777350    0.2100
23     C23     1.1720   -0.7044   -0.0125 C.ar     1 ZINC000003777350   -0.1400
24     C24     0.0021   -0.0041    0.0020 C.ar     1 ZINC000003777350    0.1500
25     O25    -1.1746   -0.6817    0.0106 O.3      1 ZINC000003777350   -0.3200
26     C26    -2.3721    0.0979    0.0257 C.3      1 ZINC000003777350    0.0200
27     C27    -3.5864   -0.8328    0.0335 C.3      1 ZINC000003777350    0.0000
28     N28    -3.6068   -1.6008    1.2856 N.4      1 ZINC000003777350   -0.3800
29     H29    -2.7281   -2.0841    1.3969 H        1 ZINC000003777350    0.4300
30     C30    -4.6995   -2.5797    1.2398 C.3      1 ZINC000003777350   -0.0100
31     C31    -4.6750   -3.4369    2.5071 C.3      1 ZINC000003777350   -0.1500
32     C32    -4.8480   -2.5334    3.7314 C.3      1 ZINC000003777350   -0.1400
33     C33    -3.7460   -1.4700    3.7286 C.3      1 ZINC000003777350   -0.1500
34     C34    -3.8067   -0.6858    2.4159 C.3      1 ZINC000003777350   -0.0100
35     H35    -0.9661    1.9106    0.0261 H        1 ZINC000003777350    0.1400
36     H36     1.0921    3.1994    0.0085 H        1 ZINC000003777350    0.1500
37     H37     3.5843    3.2456   -0.0144 H        1 ZINC000003777350    0.1500
38     H38     6.0754    3.1604   -0.0371 H        1 ZINC000003777350    0.1500
39     H39     8.1132    1.8396   -0.0623 H        1 ZINC000003777350    0.1400
40     H40     9.5166    0.6385   -0.9711 H        1 ZINC000003777350    0.0900
41     H41     9.5323    0.6285    0.8088 H        1 ZINC000003777350    0.1100
42     H42    11.6111   -0.3677   -0.0156 H        1 ZINC000003777350    0.1500
43     H43    10.6165   -1.6368    0.7384 H        1 ZINC000003777350    0.1400
44     H44    12.7386   -2.1887   -1.2512 H        1 ZINC000003777350    0.1300
45     H45    11.6431   -3.3434   -0.4556 H        1 ZINC000003777350    0.1300
46     H46    12.5418   -4.2788   -2.5697 H        1 ZINC000003777350    0.1100
47     H47    10.7787   -4.0494   -2.6708 H        1 ZINC000003777350    0.0900
48     H48    12.9111   -2.1585   -3.7678 H        1 ZINC000003777350    0.0800
49     H49    11.8468   -3.2164   -4.7275 H        1 ZINC000003777350    0.1000
50     H50    11.0041   -0.8609   -4.6323 H        1 ZINC000003777350    0.1100
51     H51     9.8635   -2.0148   -3.8986 H        1 ZINC000003777350    0.0900
52     H52    10.1443   -0.0069   -2.4679 H        1 ZINC000003777350    0.1300
53     H53    11.8956   -0.3109   -2.3856 H        1 ZINC000003777350    0.1300
54     H54     5.9309   -1.8216   -0.0628 H        1 ZINC000003777350    0.1500
55     H55     1.1582   -1.7843   -0.0175 H        1 ZINC000003777350    0.1500
56     H56    -2.3875    0.7228    0.9187 H        1 ZINC000003777350    0.0900
57     H57    -2.4050    0.7306   -0.8612 H        1 ZINC000003777350    0.1100
58     H58    -4.4984   -0.2409   -0.0445 H        1 ZINC000003777350    0.1500
59     H59    -3.5245   -1.5180   -0.8120 H        1 ZINC000003777350    0.1400
60     H60    -5.6533   -2.0561    1.1743 H        1 ZINC000003777350    0.1300
61     H61    -4.5768   -3.2199    0.3662 H        1 ZINC000003777350    0.1300
62     H62    -5.4882   -4.1619    2.4719 H        1 ZINC000003777350    0.1100
63     H63    -3.7217   -3.9612    2.5735 H        1 ZINC000003777350    0.0900
64     H64    -5.8231   -2.0479    3.6912 H        1 ZINC000003777350    0.0800
65     H65    -4.7746   -3.1319    4.6394 H        1 ZINC000003777350    0.1000
66     H66    -3.8952   -0.7890    4.5665 H        1 ZINC000003777350    0.1100
67     H67    -2.7734   -1.9535    3.8203 H        1 ZINC000003777350    0.0900
68     H68    -3.0239    0.0726    2.4096 H        1 ZINC000003777350    0.1300
69     H69    -4.7798   -0.2030    2.3262 H        1 ZINC000003777350    0.1300
@<TRIPOS>BOND
1     1     24    ar
2     1     2     ar
3     1     35    1
4     2     3     ar
5     2     36    1
6     3     22    ar
7     3     4     ar
8     4     5     ar
9     4     37    1
10    5     20    ar
11    5     6     ar
12    6     7     ar
13    6     38    1
14    7     8     ar
15    7     39    1
16    8     9     1
17    8     19    ar
18    9     10    1
19    10    11    1
20    10    40    1
21    10    41    1
22    11    12    1
23    11    42    1
24    11    43    1
25    12    13    1
26    12    18    1
27    12    14    1
28    14    15    1
29    14    44    1
30    14    45    1
31    15    16    1
32    15    46    1
33    15    47    1
34    16    17    1
35    16    48    1
36    16    49    1
37    17    18    1
38    17    50    1
39    17    51    1
40    18    52    1
41    18    53    1
42    19    20    ar
43    19    54    1
44    20    21    ar
45    21    22    ar
46    22    23    ar
47    23    24    ar
48    23    55    1
49    24    25    1
50    25    26    1
51    26    27    1
52    26    56    1
53    26    57    1
54    27    28    1
55    27    58    1
56    27    59    1
57    28    29    1
58    28    34    1
59    28    30    1
60    30    31    1
61    30    60    1
62    30    61    1
63    31    32    1
64    31    62    1
65    31    63    1
66    32    33    1
67    32    64    1
68    32    65    1
69    33    34    1
70    33    66    1
71    33    67    1
72    34    68    1
73    34    69    1
@<TRIPOS>SUBSTRUCTURE
1   ZINC000003777350 1     RESIDUE    1   A     ZIN   1
