@<TRIPOS>MOLECULE
ZINC000146905479
79    83    1     0     0
SMALL
USER_CHARGES
@<TRIPOS>ATOM
1      C1     -3.6484   -1.3984    1.3826 C.3      1 ZINC000146905479    0.0900
2      N2     -2.4065   -2.0088    0.9017 N.am     1 ZINC000146905479   -0.7300
3      C3     -1.3480   -2.1237    1.7280 C.2      1 ZINC000146905479    0.5600
4      O4     -1.4238   -1.7207    2.8728 O.2      1 ZINC000146905479   -0.5400
5      C5     -0.0980   -2.7382    1.2439 C.ar     1 ZINC000146905479   -0.1800
6      C6     -0.0366   -3.2898   -0.0379 C.ar     1 ZINC000146905479   -0.0600
7      C7      1.1347   -3.8622   -0.4846 C.ar     1 ZINC000146905479   -0.1400
8      C8      2.2540   -3.8939    0.3314 C.ar     1 ZINC000146905479   -0.0700
9      C9      2.2092   -3.3530    1.6004 C.ar     1 ZINC000146905479   -0.1300
10     C10     1.0393   -2.7671    2.0661 C.ar     1 ZINC000146905479    0.2200
11     N11     0.9917   -2.2212    3.3440 N.pl3    1 ZINC000146905479   -0.6200
12     C12     1.7346   -2.7890    4.3691 C.ar     1 ZINC000146905479    0.4800
13     N13     2.4417   -3.8939    4.1571 N.ar     1 ZINC000146905479   -0.5900
14     C14     3.1519   -4.4385    5.1339 C.ar     1 ZINC000146905479    0.6000
15     N15     3.8780   -5.5906    4.8794 N.pl3    1 ZINC000146905479   -0.6200
16     C16     4.7230   -6.1176    5.8641 C.ar     1 ZINC000146905479    0.1500
17     C17     5.2288   -5.2944    6.8592 C.ar     1 ZINC000146905479   -0.1200
18     C18     6.0625   -5.8157    7.8319 C.ar     1 ZINC000146905479   -0.0900
19     C19     6.3903   -7.1600    7.8090 C.ar     1 ZINC000146905479   -0.0900
20     C20     7.3037   -7.7218    8.8789 C.3      1 ZINC000146905479   -0.0700
21     C21     8.6524   -8.0572    8.2376 C.3      1 ZINC000146905479    0.0900
22     H22     8.8711   -7.3252    7.4601 H        1 ZINC000146905479    0.0800
23     N23     9.7022   -7.9999    9.2634 N.3      1 ZINC000146905479   -0.5300
24     C24    11.0307   -8.2053    8.6695 C.3      1 ZINC000146905479    0.0500
25     C25    12.0999   -8.0595    9.7549 C.3      1 ZINC000146905479    0.0600
26     N26    11.8467   -9.0369   10.8227 N.3      1 ZINC000146905479   -0.5300
27     C27    12.8966   -8.9796   11.8486 C.3      1 ZINC000146905479    0.0500
28     C28    12.7415  -10.1646   12.8038 C.3      1 ZINC000146905479    0.0800
29     O29    12.9732  -11.3827   12.0933 O.3      1 ZINC000146905479   -0.5600
30     C30    10.5183   -8.8315   11.4166 C.3      1 ZINC000146905479    0.0500
31     C31     9.4491   -8.9773   10.3312 C.3      1 ZINC000146905479    0.0500
32     C32     8.6312   -9.4435    7.6248 C.3      1 ZINC000146905479   -0.1500
33     C33     7.7306   -9.5798    6.4131 C.3      1 ZINC000146905479   -0.1000
34     C34     6.2576   -9.4499    6.8087 C.3      1 ZINC000146905479   -0.0800
35     C35     5.8939   -7.9797    6.8277 C.ar     1 ZINC000146905479   -0.0700
36     C36     5.0532   -7.4722    5.8495 C.ar     1 ZINC000146905479    0.0600
37     O37     4.5588   -8.2878    4.8801 O.3      1 ZINC000146905479   -0.3300
38     C38     3.3142   -8.9360    5.1501 C.3      1 ZINC000146905479    0.0300
39     N39     3.1857   -3.9091    6.3476 N.ar     1 ZINC000146905479   -0.5700
40     C40     2.5047   -2.8078    6.6298 C.ar     1 ZINC000146905479    0.2300
41     C41     1.7548   -2.2043    5.6382 C.ar     1 ZINC000146905479   -0.2400
42     Cl42    0.8484   -0.7602    5.9650 Cl       1 ZINC000146905479   -0.0400
43     H43    -3.4506   -0.3748    1.7010 H        1 ZINC000146905479    0.0600
44     H44    -4.3854   -1.3930    0.5795 H        1 ZINC000146905479    0.0800
45     H45    -4.0332   -1.9730    2.2251 H        1 ZINC000146905479    0.0600
46     H46    -2.3461   -2.3303   -0.0115 H        1 ZINC000146905479    0.4000
47     H47    -0.9062   -3.2681   -0.6780 H        1 ZINC000146905479    0.1300
48     H48     1.1803   -4.2885   -1.4758 H        1 ZINC000146905479    0.1300
49     H49     3.1673   -4.3450   -0.0277 H        1 ZINC000146905479    0.1300
50     H50     3.0859   -3.3820    2.2305 H        1 ZINC000146905479    0.1400
51     H51     0.4393   -1.4433    3.5189 H        1 ZINC000146905479    0.4400
52     H52     3.8011   -6.0322    4.0192 H        1 ZINC000146905479    0.4300
53     H53     4.9716   -4.2456    6.8743 H        1 ZINC000146905479    0.1600
54     H54     6.4569   -5.1753    8.6070 H        1 ZINC000146905479    0.1300
55     H55     7.4462   -6.9804    9.6652 H        1 ZINC000146905479    0.0800
56     H56     6.8629   -8.6258    9.2992 H        1 ZINC000146905479    0.0700
57     H57    11.0852   -9.2044    8.2372 H        1 ZINC000146905479    0.0500
58     H58    11.1996   -7.4619    7.8905 H        1 ZINC000146905479    0.0800
59     H59    13.0840   -8.2400    9.3225 H        1 ZINC000146905479    0.0800
60     H60    12.0633   -7.0516   10.1683 H        1 ZINC000146905479    0.0400
61     H61    13.8749   -9.0243   11.3701 H        1 ZINC000146905479    0.0800
62     H62    12.8078   -8.0482   12.4077 H        1 ZINC000146905479    0.0500
63     H63    13.4637  -10.0742   13.6152 H        1 ZINC000146905479    0.0500
64     H64    11.7320  -10.1702   13.2149 H        1 ZINC000146905479    0.0500
65     H65    12.8913  -12.1774   12.6381 H        1 ZINC000146905479    0.3700
66     H66    10.3494   -9.5749   12.1957 H        1 ZINC000146905479    0.0800
67     H67    10.4638   -7.8324   11.8489 H        1 ZINC000146905479    0.0400
68     H68     8.4650   -8.7967   10.7637 H        1 ZINC000146905479    0.0800
69     H69     9.4857   -9.9852    9.9178 H        1 ZINC000146905479    0.0500
70     H70     9.6473   -9.7075    7.3317 H        1 ZINC000146905479    0.0600
71     H71     8.2991  -10.1519    8.3838 H        1 ZINC000146905479    0.0600
72     H72     7.9782   -8.7997    5.6932 H        1 ZINC000146905479    0.0600
73     H73     7.8934  -10.5547    5.9536 H        1 ZINC000146905479    0.0700
74     H74     5.6356   -9.9718    6.0816 H        1 ZINC000146905479    0.0800
75     H75     6.1054   -9.8776    7.7997 H        1 ZINC000146905479    0.0700
76     H76     3.0344   -9.5550    4.2977 H        1 ZINC000146905479    0.0900
77     H77     3.4155   -9.5624    6.0364 H        1 ZINC000146905479    0.0500
78     H78     2.5432   -8.1849    5.3223 H        1 ZINC000146905479    0.0400
79     H79     2.5386   -2.3843    7.6227 H        1 ZINC000146905479    0.1800
@<TRIPOS>BOND
1     1     2     1
2     1     43    1
3     1     44    1
4     1     45    1
5     2     3     am
6     2     46    1
7     3     4     2
8     3     5     1
9     5     10    ar
10    5     6     ar
11    6     7     ar
12    6     47    1
13    7     8     ar
14    7     48    1
15    8     9     ar
16    8     49    1
17    9     10    ar
18    9     50    1
19    10    11    1
20    11    12    1
21    11    51    1
22    12    41    ar
23    12    13    ar
24    13    14    ar
25    14    15    1
26    14    39    ar
27    15    16    1
28    15    52    1
29    16    36    ar
30    16    17    ar
31    17    18    ar
32    17    53    1
33    18    19    ar
34    18    54    1
35    19    35    ar
36    19    20    1
37    20    21    1
38    20    55    1
39    20    56    1
40    21    22    1
41    21    23    1
42    21    32    1
43    23    31    1
44    23    24    1
45    24    25    1
46    24    57    1
47    24    58    1
48    25    26    1
49    25    59    1
50    25    60    1
51    26    27    1
52    26    30    1
53    27    28    1
54    27    61    1
55    27    62    1
56    28    29    1
57    28    63    1
58    28    64    1
59    29    65    1
60    30    31    1
61    30    66    1
62    30    67    1
63    31    68    1
64    31    69    1
65    32    33    1
66    32    70    1
67    32    71    1
68    33    34    1
69    33    72    1
70    33    73    1
71    34    35    1
72    34    74    1
73    34    75    1
74    35    36    ar
75    36    37    1
76    37    38    1
77    38    76    1
78    38    77    1
79    38    78    1
80    39    40    ar
81    40    41    ar
82    40    79    1
83    41    42    1
@<TRIPOS>SUBSTRUCTURE
1   ZINC000146905479 1     RESIDUE    1   A     ZIN   1
