@<TRIPOS>MOLECULE
ZINC000068077856
85    84    1     0     0
SMALL
USER_CHARGES
@<TRIPOS>ATOM
1      C1     -0.9482    1.9991   -3.7537 C.3      1 ZINC000068077856   -0.1200
2      S2     -0.9236    0.1893   -3.8750 S.3      1 ZINC000068077856   -0.2600
3      C3     -1.6041   -0.3360   -2.2776 C.3      1 ZINC000068077856   -0.0700
4      C4     -1.6504   -1.8642   -2.2207 C.3      1 ZINC000068077856   -0.1100
5      C5     -2.2244   -2.3073   -0.8734 C.3      1 ZINC000068077856    0.1400
6      H6     -3.1957   -1.8370   -0.7200 H        1 ZINC000068077856    0.1000
7      N7     -1.3127   -1.9069    0.2012 N.am     1 ZINC000068077856   -0.7300
8      C8     -0.0470   -2.3696    0.2185 C.2      1 ZINC000068077856    0.4900
9      O9      0.3373   -3.1174   -0.6555 O.2      1 ZINC000068077856   -0.5100
10     C10    -2.3846   -3.8057   -0.8640 C.2      1 ZINC000068077856    0.5200
11     O11    -1.5562   -4.5007   -0.3148 O.2      1 ZINC000068077856   -0.5100
12     N12    -3.4485   -4.3734   -1.4659 N.am     1 ZINC000068077856   -0.6800
13     C13    -3.5505   -5.8325   -1.5495 C.3      1 ZINC000068077856    0.1600
14     H14    -3.1819   -6.2761   -0.6246 H        1 ZINC000068077856    0.1200
15     C15    -5.0130   -6.2304   -1.7585 C.3      1 ZINC000068077856   -0.1900
16     C16    -5.8145   -5.8569   -0.5382 C.2      1 ZINC000068077856    0.5000
17     O17    -5.2517   -5.4159    0.4493 O.co2    1 ZINC000068077856   -0.6800
18     O18    -7.0258   -5.9959   -0.5384 O.co2    1 ZINC000068077856   -0.7000
19     C19    -2.7245   -6.3282   -2.7085 C.2      1 ZINC000068077856    0.5100
20     O20    -2.1111   -5.5403   -3.3968 O.2      1 ZINC000068077856   -0.5400
21     N21    -2.6676   -7.6471   -2.9800 N.am     1 ZINC000068077856   -0.7200
22     C22    -1.8646   -8.1289   -4.1067 C.3      1 ZINC000068077856    0.1100
23     C23    -1.9695   -9.6298   -4.1927 C.2      1 ZINC000068077856    0.5200
24     O24    -2.6482  -10.2372   -3.3918 O.2      1 ZINC000068077856   -0.5100
25     N25    -1.3092  -10.2972   -5.1597 N.am     1 ZINC000068077856   -0.7100
26     C26    -1.4112  -11.7562   -5.2433 C.3      1 ZINC000068077856    0.1500
27     H27    -1.4795  -12.1739   -4.2388 H        1 ZINC000068077856    0.1300
28     C28    -2.6616  -12.1353   -6.0393 C.3      1 ZINC000068077856   -0.0900
29     S29    -4.1315  -11.4730   -5.2078 S.3      1 ZINC000068077856   -0.1700
30     C30    -0.1900  -12.3064   -5.9341 C.2      1 ZINC000068077856    0.5200
31     O31     0.6798  -11.5538   -6.3187 O.2      1 ZINC000068077856   -0.5200
32     N32    -0.0646  -13.6347   -6.1245 N.am     1 ZINC000068077856   -0.7000
33     C33     1.1225  -14.1695   -6.7961 C.3      1 ZINC000068077856    0.1300
34     H34     1.4479  -13.4727   -7.5685 H        1 ZINC000068077856    0.1100
35     C35     2.2452  -14.3583   -5.7738 C.3      1 ZINC000068077856   -0.0900
36     C36     2.6702  -12.9946   -5.2255 C.3      1 ZINC000068077856   -0.1700
37     C37     3.7760  -13.1805   -4.2186 C.2      1 ZINC000068077856    0.4900
38     O38     4.1861  -14.3000   -3.9633 O.co2    1 ZINC000068077856   -0.7000
39     O39     4.2605  -12.2115   -3.6593 O.co2    1 ZINC000068077856   -0.7100
40     C40     0.7881  -15.4972   -7.4258 C.2      1 ZINC000068077856    0.5200
41     O41    -0.3316  -15.9519   -7.3237 O.2      1 ZINC000068077856   -0.5600
42     N42     1.7333  -16.1792   -8.1024 N.am     1 ZINC000068077856   -0.6900
43     C43     1.4082  -17.4699   -8.7146 C.3      1 ZINC000068077856    0.0800
44     H44     0.3809  -17.4509   -9.0785 H        1 ZINC000068077856    0.0800
45     C45     2.3587  -17.7335   -9.8842 C.3      1 ZINC000068077856   -0.1000
46     C46     2.1190  -16.6936  -10.9806 C.3      1 ZINC000068077856   -0.1000
47     C47     3.1513  -16.8795  -12.0944 C.3      1 ZINC000068077856   -0.1400
48     C48     0.7119  -16.8725  -11.5543 C.3      1 ZINC000068077856   -0.1400
49     C49     1.5578  -18.5641   -7.6893 C.2      1 ZINC000068077856    0.4900
50     O50     1.9040  -18.2912   -6.5525 O.co2    1 ZINC000068077856   -0.6700
51     O51     1.3328  -19.7223   -7.9965 O.co2    1 ZINC000068077856   -0.7100
52     H52    -0.5543    2.4303   -4.6740 H        1 ZINC000068077856    0.1000
53     H53    -1.9727    2.3392   -3.6026 H        1 ZINC000068077856    0.0700
54     H54    -0.3325    2.3152   -2.9117 H        1 ZINC000068077856    0.0700
55     H55    -0.9720    0.0386   -1.4725 H        1 ZINC000068077856    0.0800
56     H56    -2.6122    0.0626   -2.1634 H        1 ZINC000068077856    0.0800
57     H57    -2.2825   -2.2388   -3.0258 H        1 ZINC000068077856    0.0900
58     H58    -0.6423   -2.2628   -2.3349 H        1 ZINC000068077856    0.1000
59     H59    -1.6201   -1.3087    0.9002 H        1 ZINC000068077856    0.4000
60     H60     0.6250   -2.0744    1.0107 H        1 ZINC000068077856    0.1200
61     H61    -4.1467   -3.8160   -1.8437 H        1 ZINC000068077856    0.4000
62     H62    -5.4110   -5.7079   -2.6284 H        1 ZINC000068077856    0.0700
63     H63    -5.0773   -7.3064   -1.9202 H        1 ZINC000068077856    0.0800
64     H64    -3.1582   -8.2772   -2.4295 H        1 ZINC000068077856    0.4100
65     H65    -2.2332   -7.6853   -5.0316 H        1 ZINC000068077856    0.1000
66     H66    -0.8227   -7.8455   -3.9578 H        1 ZINC000068077856    0.1000
67     H67    -0.7664   -9.8114   -5.8002 H        1 ZINC000068077856    0.4100
68     H68    -2.5933  -11.7176   -7.0438 H        1 ZINC000068077856    0.0900
69     H69    -2.7375  -13.2208   -6.1015 H        1 ZINC000068077856    0.1000
70     H70    -5.1373  -11.8761   -6.0047 H        1 ZINC000068077856    0.0300
71     H71    -0.7603  -14.2366   -5.8169 H        1 ZINC000068077856    0.4100
72     H72     1.8898  -14.9843   -4.9553 H        1 ZINC000068077856    0.0700
73     H73     3.0975  -14.8382   -6.2547 H        1 ZINC000068077856    0.0700
74     H74     3.0256  -12.3686   -6.0440 H        1 ZINC000068077856    0.0600
75     H75     1.8179  -12.5147   -4.7446 H        1 ZINC000068077856    0.0600
76     H76     2.6288  -15.8156   -8.1841 H        1 ZINC000068077856    0.3900
77     H77     3.3897  -17.6644   -9.5372 H        1 ZINC000068077856    0.0600
78     H78     2.1758  -18.7311  -10.2834 H        1 ZINC000068077856    0.0800
79     H79     2.2151  -15.6928  -10.5595 H        1 ZINC000068077856    0.0700
80     H80     3.0552  -17.8803  -12.5155 H        1 ZINC000068077856    0.0500
81     H81     2.9805  -16.1387  -12.8755 H        1 ZINC000068077856    0.0500
82     H82     4.1537  -16.7521  -11.6857 H        1 ZINC000068077856    0.0500
83     H83    -0.0236  -16.7401  -10.7608 H        1 ZINC000068077856    0.0600
84     H84     0.5411  -16.1317  -12.3354 H        1 ZINC000068077856    0.0400
85     H85     0.6158  -17.8733  -11.9754 H        1 ZINC000068077856    0.0500
@<TRIPOS>BOND
1     1     2     1
2     1     52    1
3     1     53    1
4     1     54    1
5     2     3     1
6     3     4     1
7     3     55    1
8     3     56    1
9     4     5     1
10    4     57    1
11    4     58    1
12    5     6     1
13    5     7     1
14    5     10    1
15    7     8     am
16    7     59    1
17    8     9     2
18    8     60    1
19    10    11    2
20    10    12    am
21    12    13    1
22    12    61    1
23    13    14    1
24    13    15    1
25    13    19    1
26    15    16    1
27    15    62    1
28    15    63    1
29    16    17    ar
30    16    18    ar
31    19    20    2
32    19    21    am
33    21    22    1
34    21    64    1
35    22    23    1
36    22    65    1
37    22    66    1
38    23    24    2
39    23    25    am
40    25    26    1
41    25    67    1
42    26    27    1
43    26    28    1
44    26    30    1
45    28    29    1
46    28    68    1
47    28    69    1
48    29    70    1
49    30    31    2
50    30    32    am
51    32    33    1
52    32    71    1
53    33    34    1
54    33    35    1
55    33    40    1
56    35    36    1
57    35    72    1
58    35    73    1
59    36    37    1
60    36    74    1
61    36    75    1
62    37    38    ar
63    37    39    ar
64    40    41    2
65    40    42    am
66    42    43    1
67    42    76    1
68    43    44    1
69    43    45    1
70    43    49    1
71    45    46    1
72    45    77    1
73    45    78    1
74    46    47    1
75    46    48    1
76    46    79    1
77    47    80    1
78    47    81    1
79    47    82    1
80    48    83    1
81    48    84    1
82    48    85    1
83    49    50    ar
84    49    51    ar
@<TRIPOS>SUBSTRUCTURE
1   ZINC000068077856 1     RESIDUE    1   A     ZIN   1
