@<TRIPOS>MOLECULE
ZINC000003784912
37    38    1     0     0
SMALL
USER_CHARGES
@<TRIPOS>ATOM
1      C1     -0.0184    1.5028    0.0103 C.3      1 ZINC000003784912   -0.1400
2      C2      0.0021   -0.0041    0.0020 C.2      1 ZINC000003784912    0.4500
3      O3      1.0565   -0.5939   -0.0112 O.2      1 ZINC000003784912   -0.4900
4      O4     -1.1512   -0.6910    0.0093 O.3      1 ZINC000003784912   -0.2800
5      C5     -1.0617   -2.0479    0.0012 C.ar     1 ZINC000003784912    0.0300
6      C6     -1.0215   -2.7367   -1.2019 C.ar     1 ZINC000003784912   -0.0500
7      C7     -1.0806   -1.9783   -2.5028 C.3      1 ZINC000003784912   -0.1200
8      C8     -0.9272   -4.1127   -1.2131 C.ar     1 ZINC000003784912   -0.1100
9      C9     -0.8842   -4.8509   -2.5262 C.3      1 ZINC000003784912   -0.1100
10     C10    -0.8710   -4.8230   -0.0168 C.ar     1 ZINC000003784912    0.1400
11     O11    -0.7591   -6.1636    0.1975 O.3      1 ZINC000003784912   -0.2700
12     C12    -1.1680   -6.4640    1.5426 C.3      1 ZINC000003784912    0.1100
13     H13    -2.2345   -6.6856    1.5816 H        1 ZINC000003784912    0.0900
14     C14    -0.3535   -7.6286    2.1095 C.3      1 ZINC000003784912   -0.1900
15     C15    -0.6831   -8.8883    1.3508 C.2      1 ZINC000003784912    0.4900
16     O16    -1.4942   -8.8575    0.4411 O.co2    1 ZINC000003784912   -0.6900
17     O17    -0.1386   -9.9382    1.6468 O.co2    1 ZINC000003784912   -0.7100
18     C18    -0.8531   -5.1510    2.2977 C.3      1 ZINC000003784912   -0.1100
19     C19    -0.9190   -4.1247    1.1832 C.ar     1 ZINC000003784912   -0.1700
20     C20    -1.0042   -2.7507    1.1972 C.ar     1 ZINC000003784912   -0.0400
21     C21    -1.0389   -2.0104    2.5094 C.3      1 ZINC000003784912   -0.1100
22     H22     1.0042    1.8801    0.0026 H        1 ZINC000003784912    0.1000
23     H23    -0.5455    1.8639   -0.8728 H        1 ZINC000003784912    0.1000
24     H24    -0.5286    1.8543    0.9071 H        1 ZINC000003784912    0.1000
25     H25    -0.0696   -1.7254   -2.8223 H        1 ZINC000003784912    0.0700
26     H26    -1.5577   -2.5971   -3.2628 H        1 ZINC000003784912    0.0800
27     H27    -1.6572   -1.0637   -2.3643 H        1 ZINC000003784912    0.0700
28     H28     0.1514   -4.9586   -2.8488 H        1 ZINC000003784912    0.0700
29     H29    -1.3309   -5.8375   -2.4032 H        1 ZINC000003784912    0.0800
30     H30    -1.4421   -4.2905   -3.2764 H        1 ZINC000003784912    0.0700
31     H31     0.7099   -7.4113    2.0085 H        1 ZINC000003784912    0.0700
32     H32    -0.5982   -7.7643    3.1629 H        1 ZINC000003784912    0.0800
33     H33    -1.6070   -4.9488    3.0585 H        1 ZINC000003784912    0.0900
34     H34     0.1434   -5.1844    2.7381 H        1 ZINC000003784912    0.0900
35     H35    -0.0216   -1.7682    2.8169 H        1 ZINC000003784912    0.0700
36     H36    -1.6119   -1.0906    2.3926 H        1 ZINC000003784912    0.0700
37     H37    -1.5082   -2.6371    3.2678 H        1 ZINC000003784912    0.0700
@<TRIPOS>BOND
1     1     2     1
2     1     22    1
3     1     23    1
4     1     24    1
5     2     3     2
6     2     4     1
7     4     5     1
8     5     20    ar
9     5     6     ar
10    6     7     1
11    6     8     ar
12    7     25    1
13    7     26    1
14    7     27    1
15    8     9     1
16    8     10    ar
17    9     28    1
18    9     29    1
19    9     30    1
20    10    19    ar
21    10    11    1
22    11    12    1
23    12    13    1
24    12    14    1
25    12    18    1
26    14    15    1
27    14    31    1
28    14    32    1
29    15    16    ar
30    15    17    ar
31    18    19    1
32    18    33    1
33    18    34    1
34    19    20    ar
35    20    21    1
36    21    35    1
37    21    36    1
38    21    37    1
@<TRIPOS>SUBSTRUCTURE
1   ZINC000003784912 1     RESIDUE    1   A     ZIN   1
