@<TRIPOS>MOLECULE
ZINC000004658561
  13   12    0    0    0
SMALL
USER_CHARGES
NO_NAME
@<TRIPOS>ATOM
    1 C1       -0.0178     1.4648     0.0101 C.3    1 <0>      -0.0500
    2 N2        0.0021    -0.0041     0.0020 N.4    1 <0>      -0.4900
    3 H3        0.4901    -0.3383     0.8195 H      1 <0>       0.4300
    4 H4       -0.9445    -0.3533     0.0092 H      1 <0>       0.4300
    5 C5        0.6897    -0.4778    -1.2066 C.3    1 <0>      -0.0800
    6 C6        0.7101    -1.9847    -1.2149 C.2    1 <0>       0.4800
    7 O7        0.1992    -2.6063    -0.2989 O.co2  1 <0>      -0.6800
    8 O8        1.2375    -2.5821    -2.1376 O.co2  1 <0>      -0.6400
    9 H9        1.0047     1.8421     0.0024 H      1 <0>       0.1100
   10 H10      -0.5450     1.8259    -0.8730 H      1 <0>       0.1100
   11 H11      -0.5280     1.8163     0.9069 H      1 <0>       0.1200
   12 H12       0.1625    -0.1167    -2.0897 H      1 <0>       0.1200
   13 H13       1.7123    -0.1005    -1.2143 H      1 <0>       0.1200
@<TRIPOS>BOND
   1    1    2 1
   2    1    9 1
   3    1   10 1
   4    1   11 1
   5    2    3 1
   6    2    4 1
   7    2    5 1
   8    5    6 1
   9    5   12 1
  10    5   13 1
  11    6    7 ar
  12    6    8 ar
