@<TRIPOS>MOLECULE
ZINC000001538319
39    40    1     0     0
SMALL
USER_CHARGES
@<TRIPOS>ATOM
1      N1     -0.0111    0.9658    0.0074 N.pl3    1 ZINC000001538319   -0.7500
2      H2      0.0021   -0.0041    0.0020 H        1 ZINC000001538319    0.4400
3      H3      0.8223    1.4622    0.0021 H        1 ZINC000001538319    0.4400
4      C4     -1.1494    1.6026    0.0162 C.cat    1 ZINC000001538319    0.4700
5      N5     -1.1680    2.9781    0.0238 N.pl3    1 ZINC000001538319   -0.6400
6      C6      0.0906    3.7277    0.0219 C.3      1 ZINC000001538319    0.1300
7      C7     -0.2048    5.2054    0.0313 C.ar     1 ZINC000001538319   -0.1400
8      C8     -0.3515    5.8883   -1.1617 C.ar     1 ZINC000001538319   -0.0800
9      C9     -0.6225    7.2436   -1.1537 C.ar     1 ZINC000001538319   -0.1100
10     C10    -0.7469    7.9168    0.0486 C.ar     1 ZINC000001538319   -0.0100
11     Cl11   -1.0878    9.6190    0.0595 Cl       1 ZINC000001538319   -0.0400
12     C12    -0.5999    7.2329    1.2422 C.ar     1 ZINC000001538319   -0.1100
13     C13    -0.3346    5.8764    1.2330 C.ar     1 ZINC000001538319   -0.0800
14     S14    -2.6632    0.7009    0.0185 S.3      1 ZINC000001538319    0.0900
15     C15    -2.0211   -0.9913    0.0062 C.3      1 ZINC000001538319   -0.1700
16     C16    -3.1889   -1.9799    0.0064 C.3      1 ZINC000001538319   -0.1100
17     C17    -2.6461   -3.4104   -0.0039 C.3      1 ZINC000001538319   -0.0500
18     C18    -3.7963   -4.3841   -0.0038 C.2      1 ZINC000001538319    0.0500
19     C19    -4.4686   -4.8322    1.0736 C.2      1 ZINC000001538319    0.0100
20     N20    -5.4155   -5.6816    0.6482 N.pl3    1 ZINC000001538319   -0.4700
21     H21    -6.0456   -6.1508    1.2171 H        1 ZINC000001538319    0.4700
22     C22    -5.3555   -5.7768   -0.6519 C.cat    1 ZINC000001538319    0.3200
23     N23    -4.3624   -4.9784   -1.0992 N.pl3    1 ZINC000001538319   -0.5100
24     H24    -2.0146    3.4516    0.0304 H        1 ZINC000001538319    0.4400
25     H25     0.6699    3.4674    0.9077 H        1 ZINC000001538319    0.1100
26     H26     0.6615    3.4770   -0.8722 H        1 ZINC000001538319    0.1100
27     H27    -0.2541    5.3628   -2.1001 H        1 ZINC000001538319    0.1400
28     H28    -0.7368    7.7771   -2.0857 H        1 ZINC000001538319    0.1500
29     H29    -0.6966    7.7579    2.1810 H        1 ZINC000001538319    0.1500
30     H30    -0.2202    5.3423    2.1647 H        1 ZINC000001538319    0.1400
31     H31    -1.4160   -1.1439   -0.8875 H        1 ZINC000001538319    0.1200
32     H32    -1.4076   -1.1536    0.8925 H        1 ZINC000001538319    0.1200
33     H33    -3.7940   -1.8273    0.9001 H        1 ZINC000001538319    0.1000
34     H34    -3.8024   -1.8176   -0.8798 H        1 ZINC000001538319    0.0900
35     H35    -2.0411   -3.5629   -0.8976 H        1 ZINC000001538319    0.1100
36     H36    -2.0326   -3.5726    0.8823 H        1 ZINC000001538319    0.1200
37     H37    -4.2786   -4.5561    2.1003 H        1 ZINC000001538319    0.2300
38     H38    -5.9966   -6.3895   -1.2684 H        1 ZINC000001538319    0.2700
39     H39    -4.0958   -4.8543   -2.0235 H        1 ZINC000001538319    0.4700
@<TRIPOS>BOND
1     1     2     1
2     1     3     1
3     1     4     ar
4     4     5     ar
5     4     14    1
6     5     6     1
7     5     24    1
8     6     7     1
9     6     25    1
10    6     26    1
11    7     13    ar
12    7     8     ar
13    8     9     ar
14    8     27    1
15    9     10    ar
16    9     28    1
17    10    11    1
18    10    12    ar
19    12    13    ar
20    12    29    1
21    13    30    1
22    14    15    1
23    15    16    1
24    15    31    1
25    15    32    1
26    16    17    1
27    16    33    1
28    16    34    1
29    17    18    1
30    17    35    1
31    17    36    1
32    18    23    1
33    18    19    2
34    19    20    1
35    19    37    1
36    20    21    1
37    20    22    ar
38    22    23    ar
39    22    38    1
40    23    39    1
@<TRIPOS>SUBSTRUCTURE
1   ZINC000001538319 1     RESIDUE    1   A     ZIN   1
