@<TRIPOS>MOLECULE
ZINC000000132343
34    35    1     0     0
SMALL
USER_CHARGES
@<TRIPOS>ATOM
1      C1     -0.0176    1.4478    0.0100 C.3      1 ZINC000000132343    0.0400
2      O2      0.0021   -0.0041    0.0020 O.3      1 ZINC000000132343   -0.3500
3      C3      0.6006   -0.6019   -1.0466 C.2      1 ZINC000000132343    0.5100
4      O4      1.0925    0.0713   -1.9300 O.2      1 ZINC000000132343   -0.5000
5      C5      0.6586   -2.0753   -1.1220 C.ar     1 ZINC000000132343   -0.1200
6      C6      0.0878   -2.8503   -0.1088 C.ar     1 ZINC000000132343   -0.0600
7      C7      0.1425   -4.2240   -0.1801 C.ar     1 ZINC000000132343   -0.1200
8      C8      0.7680   -4.8427   -1.2633 C.ar     1 ZINC000000132343   -0.0200
9      C9      0.8266   -6.3217   -1.3387 C.ar     1 ZINC000000132343   -0.0200
10     C10     0.2514   -7.0947   -0.3293 C.ar     1 ZINC000000132343   -0.1200
11     C11     0.3057   -8.4686   -0.3981 C.ar     1 ZINC000000132343   -0.0500
12     C12     0.9368   -9.0890   -1.4795 C.ar     1 ZINC000000132343   -0.1200
13     C13     0.9953  -10.5625   -1.5546 C.2      1 ZINC000000132343    0.5100
14     O14     0.4946  -11.2358   -0.6761 O.2      1 ZINC000000132343   -0.5000
15     O15     1.6038  -11.1602   -2.5975 O.3      1 ZINC000000132343   -0.3500
16     C16     1.6233  -12.6121   -2.6055 C.3      1 ZINC000000132343    0.0400
17     C17     1.5121   -8.3141   -2.4900 C.ar     1 ZINC000000132343   -0.0600
18     C18     1.4521   -6.9403   -2.4219 C.ar     1 ZINC000000132343   -0.1200
19     C19     1.3378   -4.0698   -2.2758 C.ar     1 ZINC000000132343   -0.1200
20     C20     1.2792   -2.6959   -2.2093 C.ar     1 ZINC000000132343   -0.0500
21     H21     1.0050    1.8251    0.0023 H        1 ZINC000000132343    0.0700
22     H22    -0.5448    1.8089   -0.8731 H        1 ZINC000000132343    0.0700
23     H23    -0.5278    1.7993    0.9068 H        1 ZINC000000132343    0.1100
24     H24    -0.3957   -2.3717    0.7299 H        1 ZINC000000132343    0.1400
25     H25    -0.2986   -4.8232    0.6028 H        1 ZINC000000132343    0.1400
26     H26    -0.2363   -6.6149    0.5064 H        1 ZINC000000132343    0.1400
27     H27    -0.1390   -9.0666    0.3835 H        1 ZINC000000132343    0.1400
28     H28     2.1422  -12.9635   -3.4974 H        1 ZINC000000132343    0.1100
29     H29     2.1418  -12.9734   -1.7175 H        1 ZINC000000132343    0.0700
30     H30     0.6007  -12.9892   -2.6079 H        1 ZINC000000132343    0.0700
31     H31     2.0005   -8.7926   -3.3260 H        1 ZINC000000132343    0.1400
32     H32     1.8967   -6.3412   -3.2027 H        1 ZINC000000132343    0.1400
33     H33     1.8214   -4.5496   -3.1138 H        1 ZINC000000132343    0.1400
34     H34     1.7200   -2.0979   -2.9932 H        1 ZINC000000132343    0.1400
@<TRIPOS>BOND
1     1     2     1
2     1     21    1
3     1     22    1
4     1     23    1
5     2     3     1
6     3     4     2
7     3     5     1
8     5     20    ar
9     5     6     ar
10    6     7     ar
11    6     24    1
12    7     8     ar
13    7     25    1
14    8     9     1
15    8     19    ar
16    9     18    ar
17    9     10    ar
18    10    11    ar
19    10    26    1
20    11    12    ar
21    11    27    1
22    12    13    1
23    12    17    ar
24    13    14    2
25    13    15    1
26    15    16    1
27    16    28    1
28    16    29    1
29    16    30    1
30    17    18    ar
31    17    31    1
32    18    32    1
33    19    20    ar
34    19    33    1
35    20    34    1
@<TRIPOS>SUBSTRUCTURE
1   ZINC000000132343 1     RESIDUE    1   A     ZIN   1
