@<TRIPOS>MOLECULE
ZINC000105414985
67    71    1     0     0
SMALL
USER_CHARGES
@<TRIPOS>ATOM
1      C1     -0.1813    1.4265    0.9370 C.3      1 ZINC000105414985    0.0200
2      O2     -0.1007    0.0083    0.7816 O.3      1 ZINC000105414985   -0.2800
3      C3     -1.2513   -0.6937    0.9309 C.ar     1 ZINC000105414985    0.1600
4      C4     -2.4424   -0.0326    1.2167 C.ar     1 ZINC000105414985   -0.2000
5      C5     -3.6156   -0.7429    1.3708 C.ar     1 ZINC000105414985   -0.0800
6      C6     -3.6266   -2.1226    1.2431 C.ar     1 ZINC000105414985   -0.1100
7      C7     -2.4488   -2.8026    0.9567 C.ar     1 ZINC000105414985   -0.0800
8      C8     -1.2489   -2.0840    0.7931 C.ar     1 ZINC000105414985   -0.1400
9      C9      0.0010   -2.8068    0.4885 C.2      1 ZINC000105414985    0.4300
10     O10     1.0760   -2.2471    0.5903 O.2      1 ZINC000105414985   -0.4200
11     C11    -0.0691   -4.2162    0.0595 C.ar     1 ZINC000105414985   -0.2900
12     C12     1.0340   -4.8452   -0.5100 C.ar     1 ZINC000105414985    0.3200
13     O13     2.1907   -4.1567   -0.6752 O.3      1 ZINC000105414985   -0.6300
14     C14     0.9581   -6.1858   -0.9137 C.ar     1 ZINC000105414985   -0.1800
15     C15    -0.2078   -6.8894   -0.7483 C.ar     1 ZINC000105414985   -0.0200
16     C16    -0.3481   -8.3341   -1.1542 C.3      1 ZINC000105414985   -0.0900
17     C17     0.7612   -8.7309   -2.1257 C.3      1 ZINC000105414985    0.1000
18     O18     0.7386  -10.1449   -2.3310 O.3      1 ZINC000105414985   -0.5400
19     C19     0.5612   -8.0235   -3.4412 C.2      1 ZINC000105414985    0.3200
20     C20     1.1161   -8.6196   -4.7092 C.3      1 ZINC000105414985   -0.2000
21     O21    -0.0436   -6.9789   -3.4793 O.2      1 ZINC000105414985   -0.4100
22     C22     2.1061   -8.3187   -1.5154 C.3      1 ZINC000105414985   -0.1200
23     C23     2.1923   -6.7942   -1.5287 C.3      1 ZINC000105414985    0.1700
24     H24     2.2882   -6.4489   -2.5581 H        1 ZINC000105414985    0.0700
25     O25     3.3404   -6.3811   -0.7848 O.3      1 ZINC000105414985   -0.3100
26     C26     4.5259   -6.2484   -1.5716 C.3      1 ZINC000105414985    0.2600
27     H27     4.6789   -7.1566   -2.1545 H        1 ZINC000105414985    0.0500
28     C28     5.7278   -6.0245   -0.6501 C.3      1 ZINC000105414985   -0.1700
29     C29     6.9844   -5.8233   -1.5026 C.3      1 ZINC000105414985    0.0400
30     H30     7.1832   -6.7274   -2.0782 H        1 ZINC000105414985    0.1500
31     N31     8.1298   -5.5350   -0.6292 N.4      1 ZINC000105414985   -0.6300
32     H32     8.2734   -6.3079    0.0032 H        1 ZINC000105414985    0.4300
33     H33     8.9569   -5.4026   -1.1919 H        1 ZINC000105414985    0.4300
34     H34     7.9459   -4.6964   -0.0991 H        1 ZINC000105414985    0.4400
35     C35     6.7571   -4.6475   -2.4577 C.3      1 ZINC000105414985    0.0600
36     H36     7.6254   -4.5320   -3.1064 H        1 ZINC000105414985    0.0900
37     O37     6.5625   -3.4498   -1.7028 O.3      1 ZINC000105414985   -0.5600
38     C38     5.5155   -4.9245   -3.3093 C.3      1 ZINC000105414985    0.0600
39     H39     5.3241   -4.0720   -3.9610 H        1 ZINC000105414985    0.1200
40     C40     5.7487   -6.1747   -4.1598 C.3      1 ZINC000105414985   -0.2000
41     O41     4.3896   -5.1329   -2.4543 O.3      1 ZINC000105414985   -0.3400
42     C42    -1.3290   -6.2690   -0.1796 C.ar     1 ZINC000105414985    0.0200
43     O43    -2.4790   -6.9702   -0.0219 O.3      1 ZINC000105414985   -0.4800
44     C44    -1.2697   -4.9383    0.2250 C.ar     1 ZINC000105414985   -0.0900
45     C45    -2.4449   -4.2751    0.8160 C.2      1 ZINC000105414985    0.4400
46     O46    -3.3993   -4.9301    1.1880 O.2      1 ZINC000105414985   -0.4400
47     H47     0.8064    1.8645    0.7925 H        1 ZINC000105414985    0.1000
48     H48    -0.8712    1.8344    0.1982 H        1 ZINC000105414985    0.0500
49     H49    -0.5404    1.6625    1.9387 H        1 ZINC000105414985    0.0500
50     H50    -2.4485    1.0425    1.3188 H        1 ZINC000105414985    0.1300
51     H51    -4.5333   -0.2187    1.5932 H        1 ZINC000105414985    0.1300
52     H52    -4.5498   -2.6693    1.3663 H        1 ZINC000105414985    0.1400
53     H53    -0.2903   -8.9639   -0.2664 H        1 ZINC000105414985    0.0900
54     H54    -1.3155   -8.4799   -1.6347 H        1 ZINC000105414985    0.0800
55     H55    -0.0922  -10.4757   -2.6991 H        1 ZINC000105414985    0.3800
56     H56     1.6257   -9.5550   -4.4783 H        1 ZINC000105414985    0.0900
57     H57     0.3012   -8.8124   -5.4069 H        1 ZINC000105414985    0.0900
58     H58     1.8227   -7.9224   -5.1596 H        1 ZINC000105414985    0.0900
59     H59     2.1706   -8.6814   -0.4895 H        1 ZINC000105414985    0.0900
60     H60     2.9211   -8.7378   -2.1056 H        1 ZINC000105414985    0.0700
61     H61     5.5574   -5.1391   -0.0378 H        1 ZINC000105414985    0.1200
62     H62     5.8599   -6.8940   -0.0061 H        1 ZINC000105414985    0.1000
63     H63     6.4125   -2.6632   -2.2449 H        1 ZINC000105414985    0.4100
64     H64     5.9396   -7.0272   -3.5080 H        1 ZINC000105414985    0.0600
65     H65     4.8645   -6.3718   -4.7661 H        1 ZINC000105414985    0.0800
66     H66     6.6080   -6.0159   -4.8113 H        1 ZINC000105414985    0.0800
67     H67    -2.5468   -7.4290    0.8266 H        1 ZINC000105414985    0.3700
@<TRIPOS>BOND
1     1     2     1
2     1     47    1
3     1     48    1
4     1     49    1
5     2     3     1
6     3     8     ar
7     3     4     ar
8     4     5     ar
9     4     50    1
10    5     6     ar
11    5     51    1
12    6     7     ar
13    6     52    1
14    7     45    1
15    7     8     ar
16    8     9     1
17    9     10    2
18    9     11    1
19    11    44    ar
20    11    12    ar
21    12    13    1
22    12    14    ar
23    14    23    1
24    14    15    ar
25    15    16    1
26    15    42    ar
27    16    17    1
28    16    53    1
29    16    54    1
30    17    18    1
31    17    19    1
32    17    22    1
33    18    55    1
34    19    20    1
35    19    21    2
36    20    56    1
37    20    57    1
38    20    58    1
39    22    23    1
40    22    59    1
41    22    60    1
42    23    24    1
43    23    25    1
44    25    26    1
45    26    27    1
46    26    41    1
47    26    28    1
48    28    29    1
49    28    61    1
50    28    62    1
51    29    30    1
52    29    31    1
53    29    35    1
54    31    32    1
55    31    33    1
56    31    34    1
57    35    36    1
58    35    37    1
59    35    38    1
60    37    63    1
61    38    39    1
62    38    40    1
63    38    41    1
64    40    64    1
65    40    65    1
66    40    66    1
67    42    43    1
68    42    44    ar
69    43    67    1
70    44    45    1
71    45    46    2
@<TRIPOS>SUBSTRUCTURE
1   ZINC000105414985 1     RESIDUE    1   A     ZIN   1
