@<TRIPOS>MOLECULE
ZINC000003787135
50    53    1     0     0
SMALL
USER_CHARGES
@<TRIPOS>ATOM
1      C1     -0.4605    1.6944   -0.5943 C.3      1 ZINC000003787135   -0.6500
2      S2     -0.2063   -0.0990   -0.4961 S.o2     1 ZINC000003787135    2.5000
3      O3      0.6197   -0.4255    0.6131 O.2      1 ZINC000003787135   -0.9400
4      O4     -1.4264   -0.7890   -0.7291 O.2      1 ZINC000003787135   -0.9300
5      C5      0.7841   -0.4803   -1.9026 C.ar     1 ZINC000003787135   -0.6600
6      C6      0.1825   -0.8003   -3.1053 C.ar     1 ZINC000003787135   -0.0200
7      C7      0.9595   -1.0995   -4.2088 C.ar     1 ZINC000003787135   -0.1200
8      C8      2.3381   -1.0783   -4.1097 C.ar     1 ZINC000003787135   -0.0500
9      C9      3.1851   -1.4049   -5.3125 C.3      1 ZINC000003787135    0.1100
10     N10     3.4649   -0.1769   -6.0608 N.pl3    1 ZINC000003787135   -0.4500
11     C11     2.6138    0.4091   -6.9601 C.2      1 ZINC000003787135    0.1200
12     C12     3.1807    1.5261   -7.4654 C.2      1 ZINC000003787135   -0.1800
13     C13     2.5282    2.4262   -8.4837 C.3      1 ZINC000003787135   -0.0400
14     C14     1.0282    2.1117   -8.5239 C.3      1 ZINC000003787135   -0.1200
15     C15     0.8310    0.5993   -8.6610 C.3      1 ZINC000003787135   -0.1200
16     C16     1.2430   -0.0883   -7.3547 C.3      1 ZINC000003787135    0.0000
17     H17     0.5254    0.1548   -6.5710 H        1 ZINC000003787135    0.0900
18     C18     1.2830   -1.6037   -7.5623 C.3      1 ZINC000003787135   -0.2000
19     C19    -0.0286   -2.0659   -8.1430 C.2      1 ZINC000003787135    0.5000
20     O20    -0.9133   -1.2582   -8.3698 O.co2    1 ZINC000003787135   -0.6800
21     O21    -0.2049   -3.2476   -8.3861 O.co2    1 ZINC000003787135   -0.7000
22     C22     4.4835    1.6603   -6.8474 C.ar     1 ZINC000003787135   -0.0500
23     C23     5.5035    2.6083   -6.9817 C.ar     1 ZINC000003787135   -0.1100
24     C24     6.6409    2.4148   -6.2158 C.ar     1 ZINC000003787135    0.0900
25     F25     7.6542    3.3034   -6.3099 F        1 ZINC000003787135   -0.1400
26     C26     6.7697    1.3353   -5.3546 C.ar     1 ZINC000003787135   -0.1800
27     C27     5.7715    0.3852   -5.2069 C.ar     1 ZINC000003787135    0.1200
28     F28     5.9126   -0.6608   -4.3636 F        1 ZINC000003787135   -0.1300
29     C29     4.6123    0.5600   -5.9625 C.ar     1 ZINC000003787135    0.0600
30     C30     2.9397   -0.7570   -2.9073 C.ar     1 ZINC000003787135   -0.1200
31     C31     2.1627   -0.4540   -1.8048 C.ar     1 ZINC000003787135   -0.0300
32     H32     0.5044    2.2005   -0.5618 H        1 ZINC000003787135    0.1300
33     H33    -0.9677    1.9389   -1.5275 H        1 ZINC000003787135    0.1300
34     H34    -1.0708    2.0215    0.2475 H        1 ZINC000003787135    0.1300
35     H35    -0.8946   -0.8169   -3.1828 H        1 ZINC000003787135    0.1500
36     H36     0.4894   -1.3502   -5.1483 H        1 ZINC000003787135    0.1500
37     H37     4.1235   -1.8527   -4.9853 H        1 ZINC000003787135    0.1000
38     H38     2.6513   -2.1071   -5.9530 H        1 ZINC000003787135    0.1300
39     H39     2.6762    3.4681   -8.1995 H        1 ZINC000003787135    0.0700
40     H40     2.9663    2.2462   -9.4654 H        1 ZINC000003787135    0.0700
41     H41     0.5591    2.4577   -7.6028 H        1 ZINC000003787135    0.0600
42     H42     0.5733    2.6166   -9.3762 H        1 ZINC000003787135    0.0600
43     H43    -0.2177    0.3868   -8.8686 H        1 ZINC000003787135    0.1300
44     H44     1.4467    0.2252   -9.4790 H        1 ZINC000003787135    0.0500
45     H45     2.0925   -1.8552   -8.2475 H        1 ZINC000003787135    0.0600
46     H46     1.4506   -2.0973   -6.6050 H        1 ZINC000003787135    0.0700
47     H47     5.4086    3.4506   -7.6509 H        1 ZINC000003787135    0.1500
48     H48     7.6783    1.2314   -4.7801 H        1 ZINC000003787135    0.1400
49     H49     4.0168   -0.7400   -2.8300 H        1 ZINC000003787135    0.1300
50     H50     2.6328   -0.2030   -0.8655 H        1 ZINC000003787135    0.1400
@<TRIPOS>BOND
1     1     2     1
2     1     32    1
3     1     33    1
4     1     34    1
5     2     3     2
6     2     4     2
7     2     5     1
8     5     31    ar
9     5     6     ar
10    6     7     ar
11    6     35    1
12    7     8     ar
13    7     36    1
14    8     9     1
15    8     30    ar
16    9     10    1
17    9     37    1
18    9     38    1
19    10    29    1
20    10    11    1
21    11    16    1
22    11    12    2
23    12    13    1
24    12    22    1
25    13    14    1
26    13    39    1
27    13    40    1
28    14    15    1
29    14    41    1
30    14    42    1
31    15    16    1
32    15    43    1
33    15    44    1
34    16    17    1
35    16    18    1
36    18    19    1
37    18    45    1
38    18    46    1
39    19    20    ar
40    19    21    ar
41    22    29    ar
42    22    23    ar
43    23    24    ar
44    23    47    1
45    24    25    1
46    24    26    ar
47    26    27    ar
48    26    48    1
49    27    28    1
50    27    29    ar
51    30    31    ar
52    30    49    1
53    31    50    1
@<TRIPOS>SUBSTRUCTURE
1   ZINC000003787135 1     RESIDUE    1   A     ZIN   1
