@<TRIPOS>MOLECULE
ZINC000001494905
60    62    1     0     0
SMALL
USER_CHARGES
@<TRIPOS>ATOM
1      C1     -0.0187    1.5258    0.0104 C.3      1 ZINC000001494905   -0.1400
2      C2      0.0021   -0.0041    0.0020 C.3      1 ZINC000001494905   -0.0300
3      C3      0.7421   -0.5109    1.2415 C.3      1 ZINC000001494905   -0.1400
4      C4     -1.4333   -0.5336    0.0129 C.3      1 ZINC000001494905   -0.1400
5      C5      0.7074   -0.4901   -1.2379 C.ar     1 ZINC000001494905   -0.0700
6      C6      0.0361   -1.2843   -2.1485 C.ar     1 ZINC000001494905   -0.1200
7      C7      0.6831   -1.7301   -3.2859 C.ar     1 ZINC000001494905   -0.1200
8      C8      2.0014   -1.3813   -3.5127 C.ar     1 ZINC000001494905   -0.1100
9      C9      2.7069   -1.8677   -4.7524 C.3      1 ZINC000001494905    0.1500
10     N10     2.5200   -0.8968   -5.8334 N.am     1 ZINC000001494905   -0.9800
11     C11     3.4167    0.2562   -5.9455 C.3      1 ZINC000001494905    0.1700
12     C12     4.6525   -0.1411   -6.7111 C.ar     1 ZINC000001494905   -0.0800
13     C13     5.7502   -0.6437   -6.0377 C.ar     1 ZINC000001494905   -0.1600
14     C14     6.8857   -1.0092   -6.7374 C.ar     1 ZINC000001494905   -0.0800
15     C15     6.9256   -0.8728   -8.1113 C.ar     1 ZINC000001494905   -0.2100
16     C16     5.8251   -0.3686   -8.7894 C.ar     1 ZINC000001494905    0.1400
17     O17     5.8617   -0.2338  -10.1412 O.3      1 ZINC000001494905   -0.2800
18     C18     7.0658   -0.6310  -10.8004 C.3      1 ZINC000001494905   -0.0100
19     C19     6.9220   -0.4113  -12.2844 C.2      1 ZINC000001494905    0.5000
20     O20     5.8846    0.0433  -12.7357 O.co2    1 ZINC000001494905   -0.6700
21     O21     7.8431   -0.6882  -13.0337 O.co2    1 ZINC000001494905   -0.6900
22     C22     4.6853   -0.0080   -8.0859 C.ar     1 ZINC000001494905   -0.1400
23     S23     1.2950   -1.1026   -6.9286 S.o2     1 ZINC000001494905    2.6900
24     O24     1.7456   -0.5275   -8.1474 O.2      1 ZINC000001494905   -0.9300
25     O25     0.8787   -2.4565   -6.8152 O.2      1 ZINC000001494905   -0.9500
26     C26    -0.0614   -0.1179   -6.3852 C.ar     1 ZINC000001494905   -0.7300
27     C27    -1.0132   -0.6464   -5.5271 C.ar     1 ZINC000001494905    0.0300
28     C28    -2.0631    0.1655   -5.1253 C.ar     1 ZINC000001494905   -0.1900
29     C29    -2.1253    1.4652   -5.5903 C.ar     1 ZINC000001494905    0.1500
30     N30    -1.2015    1.9347   -6.4062 N.ar     1 ZINC000001494905   -0.4900
31     C31    -0.1867    1.1932   -6.8047 C.ar     1 ZINC000001494905    0.2000
32     C32     2.6723   -0.5859   -2.6027 C.ar     1 ZINC000001494905   -0.1000
33     C33     2.0241   -0.1370   -1.4673 C.ar     1 ZINC000001494905   -0.1100
34     H34     1.0039    1.9031    0.0027 H        1 ZINC000001494905    0.0600
35     H35    -0.5459    1.8868   -0.8726 H        1 ZINC000001494905    0.0600
36     H36    -0.5289    1.8773    0.9072 H        1 ZINC000001494905    0.0600
37     H37     0.2319   -0.1594    2.1383 H        1 ZINC000001494905    0.0600
38     H38     0.7568   -1.6008    1.2356 H        1 ZINC000001494905    0.0600
39     H39     1.7647   -0.1336    1.2338 H        1 ZINC000001494905    0.0600
40     H40    -1.9605   -0.1726   -0.8702 H        1 ZINC000001494905    0.0600
41     H41    -1.4185   -1.6235    0.0069 H        1 ZINC000001494905    0.0600
42     H42    -1.9435   -0.1821    0.9097 H        1 ZINC000001494905    0.0600
43     H43    -0.9938   -1.5568   -1.9713 H        1 ZINC000001494905    0.1300
44     H44     0.1588   -2.3512   -3.9970 H        1 ZINC000001494905    0.1200
45     H45     3.7710   -1.9797   -4.5445 H        1 ZINC000001494905    0.1000
46     H46     2.2921   -2.8300   -5.0525 H        1 ZINC000001494905    0.1000
47     H47     2.9069    1.0632   -6.4719 H        1 ZINC000001494905    0.0900
48     H48     3.6999    0.5946   -4.9488 H        1 ZINC000001494905    0.0900
49     H49     5.7212   -0.7508   -4.9635 H        1 ZINC000001494905    0.1200
50     H50     7.7422   -1.4013   -6.2090 H        1 ZINC000001494905    0.1200
51     H51     7.8127   -1.1581   -8.6572 H        1 ZINC000001494905    0.1300
52     H52     7.8988   -0.0372  -10.4242 H        1 ZINC000001494905    0.0600
53     H53     7.2551   -1.6867  -10.6061 H        1 ZINC000001494905    0.0600
54     H54     3.8274    0.3847   -8.6115 H        1 ZINC000001494905    0.1500
55     H55    -0.9390   -1.6664   -5.1799 H        1 ZINC000001494905    0.1500
56     H56    -2.8228   -0.2133   -4.4576 H        1 ZINC000001494905    0.1400
57     H57    -2.9399    2.1039   -5.2824 H        1 ZINC000001494905    0.1600
58     H58     0.5505    1.6124   -7.4735 H        1 ZINC000001494905    0.1700
59     H59     3.7021   -0.3131   -2.7802 H        1 ZINC000001494905    0.1200
60     H60     2.5483    0.4845   -0.7563 H        1 ZINC000001494905    0.1200
@<TRIPOS>BOND
1     1     2     1
2     1     34    1
3     1     35    1
4     1     36    1
5     2     3     1
6     2     4     1
7     2     5     1
8     3     37    1
9     3     38    1
10    3     39    1
11    4     40    1
12    4     41    1
13    4     42    1
14    5     33    ar
15    5     6     ar
16    6     7     ar
17    6     43    1
18    7     8     ar
19    7     44    1
20    8     9     1
21    8     32    ar
22    9     10    1
23    9     45    1
24    9     46    1
25    10    11    1
26    10    23    am
27    11    12    1
28    11    47    1
29    11    48    1
30    12    22    ar
31    12    13    ar
32    13    14    ar
33    13    49    1
34    14    15    ar
35    14    50    1
36    15    16    ar
37    15    51    1
38    16    17    1
39    16    22    ar
40    17    18    1
41    18    19    1
42    18    52    1
43    18    53    1
44    19    20    ar
45    19    21    ar
46    22    54    1
47    23    24    2
48    23    25    2
49    23    26    1
50    26    31    ar
51    26    27    ar
52    27    28    ar
53    27    55    1
54    28    29    ar
55    28    56    1
56    29    30    ar
57    29    57    1
58    30    31    ar
59    31    58    1
60    32    33    ar
61    32    59    1
62    33    60    1
@<TRIPOS>SUBSTRUCTURE
1   ZINC000001494905 1     RESIDUE    1   A     ZIN   1
