@<TRIPOS>MOLECULE
ZINC000003872288
  18   18    0    0    0
SMALL
USER_CHARGES
NO_NAME
@<TRIPOS>ATOM
    1 O1        0.0021    -0.0041     0.0020 O.2    1 <0>      -0.5500
    2 C2       -0.0144     1.2116     0.0087 C.2    1 <0>       0.5900
    3 N3        1.1435     1.9013     0.0014 N.am   1 <0>      -0.6000
    4 O4        2.3792     1.2101    -0.0142 O.3    1 <0>      -0.3300
    5 C5       -1.3026     1.9322     0.0187 C.ar   1 <0>      -0.2700
    6 C6       -1.3233     3.3287     0.0206 C.ar   1 <0>      -0.0400
    7 C7       -2.5270     4.0002     0.0301 C.ar   1 <0>      -0.2600
    8 C8       -3.7204     3.2916     0.0377 C.ar   1 <0>       0.2800
    9 O9       -4.9038     3.9577     0.0469 O.3    1 <0>      -0.6900
   10 C10      -3.7069     1.8973     0.0353 C.ar   1 <0>      -0.0600
   11 O11      -4.8781     1.2059     0.0423 O.3    1 <0>      -0.4900
   12 C12      -2.5043     1.2185     0.0205 C.ar   1 <0>      -0.0300
   13 H13       1.1303     2.8712     0.0067 H      1 <0>       0.4000
   14 H14       3.1537     1.7891    -0.0184 H      1 <0>       0.3800
   15 H15      -0.3961     3.8825     0.0151 H      1 <0>       0.1000
   16 H16      -2.5415     5.0801     0.0319 H      1 <0>       0.1100
   17 H17      -5.2229     1.0073    -0.8390 H      1 <0>       0.3600
   18 H18      -2.4924     0.1386     0.0187 H      1 <0>       0.1200
@<TRIPOS>BOND
   1    1    2 2
   2    2    3 am
   3    2    5 1
   4    3    4 1
   5    3   13 1
   6    4   14 1
   7    5   12 ar
   8    5    6 ar
   9    6    7 ar
  10    6   15 1
  11    7    8 ar
  12    7   16 1
  13    8    9 1
  14    8   10 ar
  15   10   11 1
  16   10   12 ar
  17   11   17 1
  18   12   18 1
