@<TRIPOS>MOLECULE
ZINC000004214265
53    55    1     0     0
SMALL
USER_CHARGES
@<TRIPOS>ATOM
1      C1      1.1578   -2.9047    2.7398 C.3      1 ZINC000004214265   -0.4900
2      S2      0.5337   -2.1276    1.2241 S.o      1 ZINC000004214265    1.2500
3      O3      1.1520   -2.7285    0.0946 O.2      1 ZINC000004214265   -0.8400
4      C4     -1.2300   -2.5515    1.2447 C.3      1 ZINC000004214265   -0.4700
5      C5     -1.9114   -1.9586    0.0098 C.3      1 ZINC000004214265   -0.1000
6      C6     -3.3672   -2.4263   -0.0433 C.3      1 ZINC000004214265    0.0100
7      C7     -3.4144   -3.9545    0.0134 C.3      1 ZINC000004214265    0.0800
8      O8     -4.7741   -4.3913   -0.0361 O.3      1 ZINC000004214265   -0.5700
9      C9     -4.1210   -1.8566    1.1308 C.2      1 ZINC000004214265    0.4800
10     O10    -5.0749   -1.1386    0.9454 O.2      1 ZINC000004214265   -0.4700
11     O11    -3.7325   -2.1467    2.3824 O.3      1 ZINC000004214265   -0.3400
12     C12    -4.5051   -1.5630    3.4644 C.3      1 ZINC000004214265    0.0700
13     H13    -4.9205   -0.6080    3.1427 H        1 ZINC000004214265    0.1200
14     C14    -5.6413   -2.5116    3.8531 C.3      1 ZINC000004214265   -0.0200
15     N15    -5.5046   -2.9095    5.2562 N.4      1 ZINC000004214265   -0.3700
16     H16    -6.2663   -3.5293    5.4880 H        1 ZINC000004214265    0.4300
17     C17    -4.2440   -3.6246    5.4689 C.3      1 ZINC000004214265   -0.0100
18     C18    -3.0614   -2.7130    5.1338 C.3      1 ZINC000004214265   -0.1400
19     C19    -3.5994   -1.3452    4.6836 C.3      1 ZINC000004214265   -0.1000
20     C20    -4.4497   -0.7622    5.8200 C.3      1 ZINC000004214265   -0.1400
21     C21    -5.5765   -1.7387    6.1336 C.3      1 ZINC000004214265   -0.0100
22     C22    -4.0010   -1.9514   -1.3254 C.ar     1 ZINC000004214265   -0.1000
23     C23    -3.2342   -1.3070   -2.2782 C.ar     1 ZINC000004214265   -0.1100
24     C24    -3.8156   -0.8714   -3.4542 C.ar     1 ZINC000004214265   -0.1200
25     C25    -5.1636   -1.0806   -3.6778 C.ar     1 ZINC000004214265   -0.1000
26     C26    -5.9302   -1.7258   -2.7254 C.ar     1 ZINC000004214265   -0.1300
27     C27    -5.3480   -2.1652   -1.5512 C.ar     1 ZINC000004214265   -0.0600
28     H28     2.2266   -2.7123    2.8331 H        1 ZINC000004214265    0.1100
29     H29     0.6371   -2.4888    3.6023 H        1 ZINC000004214265    0.1100
30     H30     0.9848   -3.9799    2.6946 H        1 ZINC000004214265    0.0800
31     H31    -1.3433   -3.6355    1.2370 H        1 ZINC000004214265    0.0900
32     H32    -1.6910   -2.1444    2.1446 H        1 ZINC000004214265    0.1300
33     H33    -1.8812   -0.8705    0.0653 H        1 ZINC000004214265    0.0900
34     H34    -1.3900   -2.2913   -0.8878 H        1 ZINC000004214265    0.1000
35     H35    -2.8692   -4.3666   -0.8357 H        1 ZINC000004214265    0.0700
36     H36    -2.9560   -4.2980    0.9408 H        1 ZINC000004214265    0.0600
37     H37    -4.8800   -5.3519   -0.0042 H        1 ZINC000004214265    0.3900
38     H38    -6.5975   -2.0078    3.7116 H        1 ZINC000004214265    0.1400
39     H39    -5.6045   -3.3984    3.2205 H        1 ZINC000004214265    0.1400
40     H40    -4.1764   -3.9362    6.5112 H        1 ZINC000004214265    0.1300
41     H41    -4.2151   -4.5052    4.8273 H        1 ZINC000004214265    0.1300
42     H42    -2.4361   -2.5860    6.0175 H        1 ZINC000004214265    0.1100
43     H43    -2.4746   -3.1567    4.3295 H        1 ZINC000004214265    0.1100
44     H44    -2.7742   -0.6796    4.4302 H        1 ZINC000004214265    0.1300
45     H45    -3.8309   -0.6275    6.7071 H        1 ZINC000004214265    0.1100
46     H46    -4.8632    0.1979    5.5113 H        1 ZINC000004214265    0.1100
47     H47    -6.5361   -1.2454    5.9789 H        1 ZINC000004214265    0.1300
48     H48    -5.4994   -2.0582    7.1729 H        1 ZINC000004214265    0.1400
49     H49    -2.1811   -1.1436   -2.1035 H        1 ZINC000004214265    0.1300
50     H50    -3.2167   -0.3674   -4.1983 H        1 ZINC000004214265    0.1300
51     H51    -5.6180   -0.7396   -4.5963 H        1 ZINC000004214265    0.1300
52     H52    -6.9835   -1.8889   -2.8999 H        1 ZINC000004214265    0.1200
53     H53    -5.9469   -2.6692   -0.8071 H        1 ZINC000004214265    0.1300
@<TRIPOS>BOND
1     1     2     1
2     1     28    1
3     1     29    1
4     1     30    1
5     2     3     2
6     2     4     1
7     4     5     1
8     4     31    1
9     4     32    1
10    5     6     1
11    5     33    1
12    5     34    1
13    6     7     1
14    6     9     1
15    6     22    1
16    7     8     1
17    7     35    1
18    7     36    1
19    8     37    1
20    9     10    2
21    9     11    1
22    11    12    1
23    12    13    1
24    12    19    1
25    12    14    1
26    14    15    1
27    14    38    1
28    14    39    1
29    15    16    1
30    15    21    1
31    15    17    1
32    17    18    1
33    17    40    1
34    17    41    1
35    18    19    1
36    18    42    1
37    18    43    1
38    19    20    1
39    19    44    1
40    20    21    1
41    20    45    1
42    20    46    1
43    21    47    1
44    21    48    1
45    22    27    ar
46    22    23    ar
47    23    24    ar
48    23    49    1
49    24    25    ar
50    24    50    1
51    25    26    ar
52    25    51    1
53    26    27    ar
54    26    52    1
55    27    53    1
@<TRIPOS>SUBSTRUCTURE
1   ZINC000004214265 1     RESIDUE    1   A     ZIN   1
