@<TRIPOS>MOLECULE
ZINC000100001820
56    60    1     0     0
SMALL
USER_CHARGES
@<TRIPOS>ATOM
1      C1      1.4878    1.2784    0.0859 C.3      1 ZINC000100001820    0.1000
2      N2      1.0101   -0.1055    0.0335 N.pl3    1 ZINC000100001820   -0.3700
3      C3      1.0690   -0.9195   -1.0377 C.2      1 ZINC000100001820    0.1100
4      C4      0.5170   -2.1266   -0.6691 C.2      1 ZINC000100001820   -0.1900
5      C5      0.3703   -3.3227   -1.5276 C.2      1 ZINC000100001820    0.2900
6      N6      0.3771   -3.3352   -2.8519 N.2      1 ZINC000100001820   -0.4900
7      C7      0.2222   -4.5775   -3.3652 C.ar     1 ZINC000100001820    0.0900
8      C8      0.1628   -5.1042   -4.6620 C.ar     1 ZINC000100001820   -0.0800
9      C9     -0.0084   -6.4660   -4.8551 C.ar     1 ZINC000100001820    0.1200
10     N10    -0.0642   -6.9651   -6.1628 N.am     1 ZINC000100001820   -0.6700
11     C11     0.4849   -8.1616   -6.4514 C.2      1 ZINC000100001820    0.4800
12     O12     0.9526   -8.8440   -5.5644 O.2      1 ZINC000100001820   -0.5200
13     C13     0.5178   -8.6516   -7.8761 C.3      1 ZINC000100001820    0.0800
14     H14    -0.4218   -8.4008   -8.3684 H        1 ZINC000100001820    0.1100
15     N15     0.7033  -10.1088   -7.8886 N.3      1 ZINC000100001820   -0.8200
16     C16     1.6767   -7.9835   -8.6186 C.3      1 ZINC000100001820   -0.0700
17     C17     3.0035   -8.4348   -8.0047 C.3      1 ZINC000100001820   -0.1200
18     C18     4.1625   -7.7667   -8.7472 C.3      1 ZINC000100001820   -0.1200
19     C19     4.1211   -8.1674  -10.2232 C.3      1 ZINC000100001820   -0.1200
20     C20     2.7943   -7.7160  -10.8371 C.3      1 ZINC000100001820   -0.1200
21     C21     1.6354   -8.3841  -10.0946 C.3      1 ZINC000100001820   -0.1100
22     C22    -0.1264   -7.3539   -3.7869 C.ar     1 ZINC000100001820   -0.0600
23     C23    -0.0712   -6.8573   -2.4915 C.ar     1 ZINC000100001820   -0.1200
24     C24     0.1009   -5.4827   -2.2991 C.ar     1 ZINC000100001820   -0.0600
25     C25     0.1988   -4.6975   -1.0622 C.2      1 ZINC000100001820   -0.2800
26     C26     0.1386   -5.1702    0.2273 C.2      1 ZINC000100001820    0.2900
27     N27    -0.0225   -6.4551    0.6208 N.pl3    1 ZINC000100001820   -0.4800
28     N28    -0.1692   -7.6392   -0.0980 N.am     1 ZINC000100001820   -0.5300
29     C29    -0.2059   -7.8766   -1.4302 C.2      1 ZINC000100001820    0.5900
30     O30    -0.3480   -9.0312   -1.7844 O.2      1 ZINC000100001820   -0.5000
31     C31     0.1179   -2.0107    0.6792 C.2      1 ZINC000100001820    0.0700
32     N32     0.4202   -0.8089    1.0900 N.2      1 ZINC000100001820   -0.2900
33     H33     2.5326    1.2906    0.3962 H        1 ZINC000100001820    0.0800
34     H34     1.3966    1.7319   -0.9011 H        1 ZINC000100001820    0.0900
35     H35     0.8896    1.8424    0.8015 H        1 ZINC000100001820    0.0900
36     H36     1.4742   -0.6714   -2.0076 H        1 ZINC000100001820    0.1900
37     H37     0.2505   -4.4467   -5.5143 H        1 ZINC000100001820    0.1300
38     H38    -0.4980   -6.4495   -6.8606 H        1 ZINC000100001820    0.4100
39     H39     1.5682  -10.3670   -7.4376 H        1 ZINC000100001820    0.3500
40     H40    -0.0814  -10.5769   -7.4607 H        1 ZINC000100001820    0.3500
41     H41     1.5867   -6.9006   -8.5334 H        1 ZINC000100001820    0.0800
42     H42     3.0330   -8.1494   -6.9531 H        1 ZINC000100001820    0.0600
43     H43     3.0935   -9.5177   -8.0899 H        1 ZINC000100001820    0.0700
44     H44     4.0724   -6.6838   -8.6620 H        1 ZINC000100001820    0.0600
45     H45     5.1077   -8.0882   -8.3098 H        1 ZINC000100001820    0.0600
46     H46     4.9468   -7.6914  -10.7522 H        1 ZINC000100001820    0.0600
47     H47     4.2111   -9.2503  -10.3084 H        1 ZINC000100001820    0.0600
48     H48     2.7043   -6.6331  -10.7520 H        1 ZINC000100001820    0.0600
49     H49     2.7648   -8.0015  -11.8887 H        1 ZINC000100001820    0.0600
50     H50     1.7254   -9.4671  -10.1798 H        1 ZINC000100001820    0.0800
51     H51     0.6901   -8.0626  -10.5320 H        1 ZINC000100001820    0.0600
52     H52    -0.2590   -8.4110   -3.9641 H        1 ZINC000100001820    0.1600
53     H53     0.2304   -4.4350    1.0131 H        1 ZINC000100001820    0.1800
54     H54    -0.0385   -6.5736    1.5834 H        1 ZINC000100001820    0.4300
55     H55    -0.2673   -8.4318    0.4525 H        1 ZINC000100001820    0.4200
56     H56    -0.3514   -2.7833    1.2701 H        1 ZINC000100001820    0.1800
@<TRIPOS>BOND
1     1     2     1
2     1     33    1
3     1     34    1
4     1     35    1
5     2     32    1
6     2     3     1
7     3     4     2
8     3     36    1
9     4     5     1
10    4     31    1
11    5     25    1
12    5     6     2
13    6     7     1
14    7     24    ar
15    7     8     ar
16    8     9     ar
17    8     37    1
18    9     10    1
19    9     22    ar
20    10    11    am
21    10    38    1
22    11    12    2
23    11    13    1
24    13    14    1
25    13    15    1
26    13    16    1
27    15    39    1
28    15    40    1
29    16    21    1
30    16    17    1
31    16    41    1
32    17    18    1
33    17    42    1
34    17    43    1
35    18    19    1
36    18    44    1
37    18    45    1
38    19    20    1
39    19    46    1
40    19    47    1
41    20    21    1
42    20    48    1
43    20    49    1
44    21    50    1
45    21    51    1
46    22    23    ar
47    22    52    1
48    23    29    1
49    23    24    ar
50    24    25    1
51    25    26    2
52    26    27    1
53    26    53    1
54    27    28    1
55    27    54    1
56    28    29    am
57    28    55    1
58    29    30    2
59    31    32    2
60    31    56    1
@<TRIPOS>SUBSTRUCTURE
1   ZINC000100001820 1     RESIDUE    1   A     ZIN   1
