@<TRIPOS>MOLECULE
ZINC000001533476
  41   43    0    0    0
SMALL
USER_CHARGES
NO_NAME
@<TRIPOS>ATOM
    1 O1        0.0021    -0.0041     0.0020 O.2    1 <0>      -0.5200
    2 C2       -0.0144     1.2086     0.0087 C.2    1 <0>       0.5100
    3 C3        1.2803     1.9798     0.0005 C.3    1 <0>       0.1100
    4 N4        2.4066     1.0431    -0.0153 N.am   1 <0>      -0.6100
    5 C5        3.0511     0.5026     1.1874 C.3    1 <0>       0.1100
    6 C6        4.4091    -0.0585     0.7105 C.3    1 <0>      -0.0600
    7 H7        5.1961     0.6893     0.8082 H      1 <0>       0.1100
    8 C8        4.7669    -1.3153     1.4611 C.ar   1 <0>      -0.0700
    9 C9        3.9379    -2.4195     1.3945 C.ar   1 <0>      -0.1000
   10 C10       4.2655    -3.5725     2.0827 C.ar   1 <0>      -0.1100
   11 C11       5.4235    -3.6214     2.8383 C.ar   1 <0>      -0.0300
   12 Cl12      5.8359    -5.0694     3.7025 Cl     1 <0>      -0.0700
   13 C13       6.2527    -2.5159     2.9046 C.ar   1 <0>      -0.1100
   14 C14       5.9269    -1.3654     2.2114 C.ar   1 <0>      -0.1000
   15 C15       4.1187    -0.3650    -0.7770 C.3    1 <0>      -0.1500
   16 C16       2.9788     0.5637    -1.1332 C.2    1 <0>       0.5300
   17 O17       2.6359     0.8411    -2.2630 O.2    1 <0>      -0.5200
   18 N18      -1.1906     1.8666     0.0178 N.am   1 <0>      -0.6200
   19 C19      -2.4733     1.1430     0.0262 C.3    1 <0>       0.0900
   20 C20      -3.2207     1.5110     1.3093 C.3    1 <0>       0.1000
   21 N21      -3.1986     2.9512     1.5251 N.am   1 <0>      -0.7200
   22 C22      -2.3012     3.7828     0.9939 C.2    1 <0>       0.5100
   23 O23      -2.3379     4.9528     1.3110 O.2    1 <0>      -0.5400
   24 C24      -1.2453     3.3360     0.0261 C.3    1 <0>       0.0900
   25 H25       1.3211     2.6120    -0.8866 H      1 <0>       0.1200
   26 H26       1.3381     2.6024     0.8933 H      1 <0>       0.1100
   27 H27       3.2065     1.2944     1.9202 H      1 <0>       0.0900
   28 H28       2.4430    -0.2944     1.6154 H      1 <0>       0.0800
   29 H29       3.0339    -2.3812     0.8049 H      1 <0>       0.1300
   30 H30       3.6176    -4.4350     2.0309 H      1 <0>       0.1400
   31 H31       7.1566    -2.5534     3.4945 H      1 <0>       0.1400
   32 H32       6.5744    -0.5025     2.2627 H      1 <0>       0.1400
   33 H33       4.9948    -0.1503    -1.3889 H      1 <0>       0.1100
   34 H34       3.8119    -1.4038    -0.8996 H      1 <0>       0.1100
   35 H35      -3.0656     1.4347    -0.8411 H      1 <0>       0.0800
   36 H36      -2.2898     0.0688     0.0026 H      1 <0>       0.1100
   37 H37      -4.2550     1.1758     1.2307 H      1 <0>       0.0900
   38 H38      -2.7467     1.0140     2.1557 H      1 <0>       0.0700
   39 H39      -3.8849     3.3324     2.0949 H      1 <0>       0.4000
   40 H40      -0.2787     3.7390     0.3286 H      1 <0>       0.1200
   41 H41      -1.4935     3.6904    -0.9743 H      1 <0>       0.1100
@<TRIPOS>BOND
   1    1    2 2
   2    2    3 1
   3    2   18 am
   4    3    4 1
   5    3   25 1
   6    3   26 1
   7    4   16 am
   8    4    5 1
   9    5    6 1
  10    5   27 1
  11    5   28 1
  12    6    7 1
  13    6    8 1
  14    6   15 1
  15    8   14 ar
  16    8    9 ar
  17    9   10 ar
  18    9   29 1
  19   10   11 ar
  20   10   30 1
  21   11   12 1
  22   11   13 ar
  23   13   14 ar
  24   13   31 1
  25   14   32 1
  26   15   16 1
  27   15   33 1
  28   15   34 1
  29   16   17 2
  30   18   24 1
  31   18   19 1
  32   19   20 1
  33   19   35 1
  34   19   36 1
  35   20   21 1
  36   20   37 1
  37   20   38 1
  38   21   22 am
  39   21   39 1
  40   22   23 2
  41   22   24 1
  42   24   40 1
  43   24   41 1
