@<TRIPOS>MOLECULE
ZINC000068247388
51    54    1     0     0
SMALL
USER_CHARGES
@<TRIPOS>ATOM
1      C1      0.2188    1.5892   -0.4540 C.3      1 ZINC000068247388    0.0800
2      N2      0.1927    0.1247   -0.4309 N.am     1 ZINC000068247388   -1.1200
3      S3      0.9716   -0.7360   -1.6120 S.o2     1 ZINC000068247388    2.7900
4      O4      0.7911   -2.1090   -1.2931 O.2      1 ZINC000068247388   -0.9500
5      O5      0.5732   -0.1673   -2.8518 O.2      1 ZINC000068247388   -0.9700
6      N6      2.5912   -0.4285   -1.4553 N.am     1 ZINC000068247388   -1.0400
7      C7      3.2704   -0.8413   -0.3133 C.ar     1 ZINC000068247388    0.3600
8      N8      2.6178   -1.4841    0.6418 N.ar     1 ZINC000068247388   -0.5000
9      C9      3.2243   -1.8932    1.7406 C.ar     1 ZINC000068247388    0.1400
10     C10     4.5710   -1.6631    1.9343 C.ar     1 ZINC000068247388   -0.1800
11     C11     5.2944   -0.9918    0.9568 C.ar     1 ZINC000068247388   -0.0400
12     C12     6.7665   -0.7234    1.1354 C.3      1 ZINC000068247388   -0.0200
13     C13     6.9596    0.6564    1.7097 C.2      1 ZINC000068247388   -0.2200
14     C14     7.1035    0.8221    3.0502 C.2      1 ZINC000068247388    0.0400
15     C15     7.0733   -0.3605    3.9839 C.3      1 ZINC000068247388   -0.1400
16     C16     7.2891    2.1811    3.5634 C.ar     1 ZINC000068247388   -0.1500
17     C17     7.4436    2.4189    4.9336 C.ar     1 ZINC000068247388   -0.0400
18     C18     7.6156    3.6955    5.3853 C.ar     1 ZINC000068247388   -0.1300
19     C19     7.6383    4.7635    4.4908 C.ar     1 ZINC000068247388    0.1600
20     O20     7.8102    6.0275    4.9557 O.3      1 ZINC000068247388   -0.2300
21     C21     9.0215    6.3590    5.4637 C.ar     1 ZINC000068247388    0.4900
22     N22    10.0166    5.4909    5.3789 N.ar     1 ZINC000068247388   -0.5600
23     C23    11.2122    5.7827    5.8641 C.ar     1 ZINC000068247388    0.1900
24     C24    11.4148    7.0144    6.4664 C.ar     1 ZINC000068247388   -0.2600
25     C25    10.3503    7.8992    6.5378 C.ar     1 ZINC000068247388    0.1900
26     N26     9.1822    7.5453    6.0277 N.ar     1 ZINC000068247388   -0.5200
27     C27     7.4874    4.5461    3.1307 C.ar     1 ZINC000068247388   -0.1300
28     C28     7.3113    3.2559    2.6549 C.ar     1 ZINC000068247388    0.1600
29     O29     7.1628    3.0220    1.3333 O.3      1 ZINC000068247388   -0.2700
30     C30     6.9972    1.7783    0.8562 C.2      1 ZINC000068247388    0.5100
31     O31     6.8676    1.6156   -0.3438 O.2      1 ZINC000068247388   -0.4400
32     C32     4.6333   -0.5795   -0.1876 C.ar     1 ZINC000068247388    0.0300
33     F33     5.2978    0.0762   -1.1641 F        1 ZINC000068247388   -0.1100
34     H34     1.2508    1.9352   -0.3948 H        1 ZINC000068247388    0.0500
35     H35    -0.2315    1.9461   -1.3802 H        1 ZINC000068247388    0.0700
36     H36    -0.3434    1.9761    0.3960 H        1 ZINC000068247388    0.0800
37     H37    -0.2808   -0.3409    0.2761 H        1 ZINC000068247388    0.4200
38     H38     3.0664    0.0394   -2.1597 H        1 ZINC000068247388    0.4400
39     H39     2.6587   -2.4149    2.4985 H        1 ZINC000068247388    0.1800
40     H40     5.0577   -2.0013    2.8372 H        1 ZINC000068247388    0.1500
41     H41     7.1907   -1.4625    1.8151 H        1 ZINC000068247388    0.1100
42     H42     7.2675   -0.7884    0.1695 H        1 ZINC000068247388    0.1000
43     H43     8.0840   -0.7478    4.1124 H        1 ZINC000068247388    0.1000
44     H44     6.6776   -0.0499    4.9509 H        1 ZINC000068247388    0.0900
45     H45     6.4365   -1.1390    3.5637 H        1 ZINC000068247388    0.0900
46     H46     7.4265    1.5950    5.6317 H        1 ZINC000068247388    0.1500
47     H47     7.7344    3.8789    6.4430 H        1 ZINC000068247388    0.1400
48     H48    12.0203    5.0698    5.7922 H        1 ZINC000068247388    0.1800
49     H49    12.3805    7.2788    6.8714 H        1 ZINC000068247388    0.1600
50     H50    10.4740    8.8671    7.0008 H        1 ZINC000068247388    0.1800
51     H51     7.5068    5.3791    2.4435 H        1 ZINC000068247388    0.1500
@<TRIPOS>BOND
1     1     2     1
2     1     34    1
3     1     35    1
4     1     36    1
5     2     3     am
6     2     37    1
7     3     4     2
8     3     5     2
9     3     6     am
10    6     7     1
11    6     38    1
12    7     32    ar
13    7     8     ar
14    8     9     ar
15    9     10    ar
16    9     39    1
17    10    11    ar
18    10    40    1
19    11    12    1
20    11    32    ar
21    12    13    1
22    12    41    1
23    12    42    1
24    13    30    1
25    13    14    2
26    14    15    1
27    14    16    1
28    15    43    1
29    15    44    1
30    15    45    1
31    16    28    ar
32    16    17    ar
33    17    18    ar
34    17    46    1
35    18    19    ar
36    18    47    1
37    19    20    1
38    19    27    ar
39    20    21    1
40    21    26    ar
41    21    22    ar
42    22    23    ar
43    23    24    ar
44    23    48    1
45    24    25    ar
46    24    49    1
47    25    26    ar
48    25    50    1
49    27    28    ar
50    27    51    1
51    28    29    1
52    29    30    1
53    30    31    2
54    32    33    1
@<TRIPOS>SUBSTRUCTURE
1   ZINC000068247388 1     RESIDUE    1   A     ZIN   1
