@<TRIPOS>MOLECULE
ZINC000001494105
  38   40    0    0    0
SMALL
USER_CHARGES
NO_NAME
@<TRIPOS>ATOM
    1 C1       -0.0173     1.4248     0.0099 C.3    1 <0>       0.0200
    2 O2        0.0021    -0.0041     0.0020 O.3    1 <0>      -0.3100
    3 C3        0.6261    -0.6186     1.0419 C.ar   1 <0>       0.1100
    4 C4        1.2015     0.1409     2.0501 C.ar   1 <0>      -0.1800
    5 C5        1.8357    -0.4784     3.1072 C.ar   1 <0>      -0.0500
    6 C6        1.8981    -1.8713     3.1628 C.ar   1 <0>      -0.0400
    7 C7        2.5767    -2.5382     4.2946 C.2    1 <0>       0.0500
    8 C8        3.7782    -2.1995     4.8382 C.2    1 <0>       0.0800
    9 Cl9       4.7994    -0.8939     4.3222 Cl     1 <0>       0.0100
   10 N10       4.0341    -3.0493     5.8402 N.2    1 <0>      -0.4700
   11 C11       3.0532    -3.9044     5.9524 C.2    1 <0>       0.2300
   12 N12       2.1143    -3.6223     5.0115 N.pl3  1 <0>      -0.4200
   13 C13       0.9100    -4.3084     4.8027 C.ar   1 <0>       0.1700
   14 C14      -0.2832    -3.6053     4.7053 C.ar   1 <0>      -0.1300
   15 C15      -1.4683    -4.2841     4.4991 C.ar   1 <0>       0.0000
   16 C16      -1.4672    -5.6625     4.3901 C.ar   1 <0>      -0.6700
   17 S17      -2.9811    -6.5250     4.1277 S.o2   1 <0>       2.7000
   18 N18      -3.2016    -6.6411     2.4905 N.am   1 <0>      -1.2500
   19 O19      -2.7755    -7.8494     4.5998 O.2    1 <0>      -0.9600
   20 O20      -4.0144    -5.6785     4.6127 O.2    1 <0>      -0.9500
   21 C21      -0.2803    -6.3655     4.4863 C.ar   1 <0>       0.0000
   22 C22       0.9086    -5.6919     4.6872 C.ar   1 <0>      -0.1300
   23 C23       1.3179    -2.6337     2.1473 C.ar   1 <0>      -0.1000
   24 C24       0.6809    -2.0071     1.0952 C.ar   1 <0>       0.0700
   25 F25       0.1184    -2.7431     0.1118 F      1 <0>      -0.1300
   26 H26       1.0053     1.8021     0.0021 H      1 <0>       0.0600
   27 H27      -0.5445     1.7859    -0.8732 H      1 <0>       0.1100
   28 H28      -0.5275     1.7763     0.9067 H      1 <0>       0.0600
   29 H29       1.1533     1.2190     2.0072 H      1 <0>       0.1500
   30 H30       2.2838     0.1143     3.8909 H      1 <0>       0.1400
   31 H31       2.9959    -4.7028     6.6774 H      1 <0>       0.2200
   32 H32      -0.2847    -2.5287     4.7910 H      1 <0>       0.1400
   33 H33      -2.3968    -3.7377     4.4232 H      1 <0>       0.1600
   34 H34      -3.6824    -7.3969     2.1183 H      1 <0>       0.4200
   35 H35      -2.8500    -5.9534     1.9038 H      1 <0>       0.4200
   36 H36      -0.2826    -7.4422     4.4009 H      1 <0>       0.1600
   37 H37       1.8353    -6.2415     4.7623 H      1 <0>       0.1500
   38 H38       1.3644    -3.7120     2.1865 H      1 <0>       0.1400
@<TRIPOS>BOND
   1    1    2 1
   2    1   26 1
   3    1   27 1
   4    1   28 1
   5    2    3 1
   6    3   24 ar
   7    3    4 ar
   8    4    5 ar
   9    4   29 1
  10    5    6 ar
  11    5   30 1
  12    6    7 1
  13    6   23 ar
  14    7   12 1
  15    7    8 2
  16    8    9 1
  17    8   10 1
  18   10   11 2
  19   11   12 1
  20   11   31 1
  21   12   13 1
  22   13   22 ar
  23   13   14 ar
  24   14   15 ar
  25   14   32 1
  26   15   16 ar
  27   15   33 1
  28   16   17 1
  29   16   21 ar
  30   17   18 am
  31   17   19 2
  32   17   20 2
  33   18   34 1
  34   18   35 1
  35   21   22 ar
  36   21   36 1
  37   22   37 1
  38   23   24 ar
  39   23   38 1
  40   24   25 1
