@<TRIPOS>MOLECULE
ZINC000003825778
55    59    1     0     0
SMALL
USER_CHARGES
@<TRIPOS>ATOM
1      O1      0.3307    0.1637   -0.2647 O.2      1 ZINC000003825778   -0.5200
2      C2      0.1911    1.3658   -0.1842 C.2      1 ZINC000003825778    0.5800
3      C3      1.3981    2.2678   -0.2090 C.3      1 ZINC000003825778   -0.1800
4      H4      1.3277    3.1644    0.4068 H        1 ZINC000003825778    0.1200
5      C5      2.1750    2.3725   -1.5229 C.3      1 ZINC000003825778   -0.1500
6      C6      2.7717    1.6066   -0.3395 C.3      1 ZINC000003825778   -0.0800
7      H7      2.8024    0.5191   -0.4078 H        1 ZINC000003825778    0.1300
8      C8      3.9241    2.2446    0.3924 C.ar     1 ZINC000003825778   -0.0500
9      C9      4.2849    3.5489    0.1104 C.ar     1 ZINC000003825778   -0.1200
10     C10     5.3420    4.1342    0.7818 C.ar     1 ZINC000003825778   -0.1200
11     C11     6.0381    3.4154    1.7356 C.ar     1 ZINC000003825778   -0.1200
12     C12     5.6767    2.1114    2.0182 C.ar     1 ZINC000003825778   -0.1200
13     C13     4.6169    1.5275    1.3499 C.ar     1 ZINC000003825778   -0.1100
14     N14    -1.0437    1.8953   -0.0782 N.am     1 ZINC000003825778   -0.5900
15     C15    -1.3661    3.3302    0.0207 C.3      1 ZINC000003825778    0.1200
16     H16    -1.0358    3.8476   -0.8800 H        1 ZINC000003825778    0.1000
17     C17    -0.6921    3.9251    1.2302 C.2      1 ZINC000003825778    0.5200
18     O18    -0.1972    3.1998    2.0668 O.2      1 ZINC000003825778   -0.5000
19     N19    -0.6394    5.2633    1.3822 N.am     1 ZINC000003825778   -0.6200
20     C20     0.0951    5.9013    2.4726 C.3      1 ZINC000003825778    0.1000
21     C21     0.6253    7.2842    2.0022 C.3      1 ZINC000003825778   -0.0800
22     S22    -0.8319    7.8654    1.0361 S.3      1 ZINC000003825778   -0.2500
23     C23    -1.3117    6.1904    0.4597 C.3      1 ZINC000003825778    0.1400
24     C24    -2.9004    3.4440    0.1599 C.3      1 ZINC000003825778   -0.1300
25     C25    -3.2981    2.0426    0.7167 C.3      1 ZINC000003825778   -0.0900
26     H26    -4.3365    1.7850    0.5085 H        1 ZINC000003825778    0.1000
27     C27    -2.9917    2.0651    2.2157 C.3      1 ZINC000003825778   -0.1300
28     C28    -2.9468    0.6465    2.7784 C.3      1 ZINC000003825778   -0.1100
29     C29    -1.8164   -0.1210    2.0843 C.3      1 ZINC000003825778   -0.1100
30     C30    -2.1444   -0.2218    0.5947 C.3      1 ZINC000003825778   -0.1400
31     C31    -2.3027    1.1463   -0.0475 C.3      1 ZINC000003825778    0.1500
32     H32    -2.6415    1.0107   -1.0746 H        1 ZINC000003825778    0.0700
33     H33     1.8131    1.7890   -2.3694 H        1 ZINC000003825778    0.1100
34     H34     2.6160    3.3379   -1.7713 H        1 ZINC000003825778    0.1100
35     H35     3.7411    4.1106   -0.6347 H        1 ZINC000003825778    0.1200
36     H36     5.6244    5.1530    0.5610 H        1 ZINC000003825778    0.1200
37     H37     6.8645    3.8724    2.2596 H        1 ZINC000003825778    0.1200
38     H38     6.2208    1.5496    2.7631 H        1 ZINC000003825778    0.1200
39     H39     4.3346    0.5087    1.5707 H        1 ZINC000003825778    0.1200
40     H40    -0.5683    6.0378    3.3266 H        1 ZINC000003825778    0.0800
41     H41     0.9348    5.2699    2.7632 H        1 ZINC000003825778    0.1000
42     H42     0.8274    7.9405    2.8488 H        1 ZINC000003825778    0.1300
43     H43     1.5050    7.1770    1.3676 H        1 ZINC000003825778    0.1000
44     H44    -0.9699    6.0292   -0.5627 H        1 ZINC000003825778    0.1000
45     H45    -2.3924    6.0630    0.5232 H        1 ZINC000003825778    0.1100
46     H46    -3.1673    4.2305    0.8659 H        1 ZINC000003825778    0.0900
47     H47    -3.3646    3.6203   -0.8105 H        1 ZINC000003825778    0.1000
48     H48    -2.0273    2.5465    2.3779 H        1 ZINC000003825778    0.0900
49     H49    -3.7664    2.6319    2.7320 H        1 ZINC000003825778    0.0600
50     H50    -2.7581    0.6844    3.8513 H        1 ZINC000003825778    0.0600
51     H51    -3.8973    0.1478    2.5892 H        1 ZINC000003825778    0.0600
52     H52    -0.8751    0.4122    2.2175 H        1 ZINC000003825778    0.0700
53     H53    -1.7359   -1.1208    2.5108 H        1 ZINC000003825778    0.0600
54     H54    -1.3437   -0.7609    0.0884 H        1 ZINC000003825778    0.1000
55     H55    -3.0775   -0.7715    0.4709 H        1 ZINC000003825778    0.0700
@<TRIPOS>BOND
1     1     2     2
2     2     3     1
3     2     14    am
4     3     4     1
5     3     6     1
6     3     5     1
7     5     6     1
8     5     33    1
9     5     34    1
10    6     7     1
11    6     8     1
12    8     13    ar
13    8     9     ar
14    9     10    ar
15    9     35    1
16    10    11    ar
17    10    36    1
18    11    12    ar
19    11    37    1
20    12    13    ar
21    12    38    1
22    13    39    1
23    14    31    1
24    14    15    1
25    15    16    1
26    15    17    1
27    15    24    1
28    17    18    2
29    17    19    am
30    19    23    1
31    19    20    1
32    20    21    1
33    20    40    1
34    20    41    1
35    21    22    1
36    21    42    1
37    21    43    1
38    22    23    1
39    23    44    1
40    23    45    1
41    24    25    1
42    24    46    1
43    24    47    1
44    25    26    1
45    25    31    1
46    25    27    1
47    27    28    1
48    27    48    1
49    27    49    1
50    28    29    1
51    28    50    1
52    28    51    1
53    29    30    1
54    29    52    1
55    29    53    1
56    30    31    1
57    30    54    1
58    30    55    1
59    31    32    1
@<TRIPOS>SUBSTRUCTURE
1   ZINC000003825778 1     RESIDUE    1   A     ZIN   1
