@<TRIPOS>MOLECULE
ZINC000003951570
62    67    1     0     0
SMALL
USER_CHARGES
@<TRIPOS>ATOM
1      C1     -1.5125    1.9437    0.7393 C.3      1 ZINC000003951570   -0.0500
2      C2     -1.0868    0.5381    0.8373 C.1      1 ZINC000003951570   -0.1600
3      C3     -0.7473   -0.5831    0.9156 C.1      1 ZINC000003951570   -0.2100
4      C4     -0.3217   -1.9888    1.0136 C.3      1 ZINC000003951570    0.2600
5      O5     -0.1271   -2.3514    2.3821 O.3      1 ZINC000003951570   -0.5400
6      C6      0.9813   -2.2114    0.2080 C.3      1 ZINC000003951570   -0.1400
7      C7      0.6254   -3.1966   -0.9372 C.3      1 ZINC000003951570   -0.1100
8      C8     -0.8872   -3.0005   -1.1065 C.3      1 ZINC000003951570   -0.0800
9      H9     -1.0956   -2.0733   -1.6402 H        1 ZINC000003951570    0.0800
10     C10    -1.6126   -4.1679   -1.7616 C.3      1 ZINC000003951570   -0.0500
11     H11    -1.3562   -5.0855   -1.2321 H        1 ZINC000003951570    0.1000
12     C12    -1.1700   -4.2934   -3.2097 C.3      1 ZINC000003951570   -0.1100
13     C13    -2.1161   -5.1885   -4.0091 C.3      1 ZINC000003951570   -0.1000
14     C14    -3.5011   -4.6000   -3.9119 C.2      1 ZINC000003951570    0.0200
15     C15    -4.3168   -4.5300   -4.9875 C.2      1 ZINC000003951570   -0.2500
16     C16    -5.5668   -3.8940   -4.8985 C.2      1 ZINC000003951570    0.3900
17     O17    -6.3448   -3.9737   -5.8279 O.2      1 ZINC000003951570   -0.4700
18     C18    -5.9581   -3.1160   -3.6708 C.3      1 ZINC000003951570   -0.1700
19     C19    -5.4227   -3.8159   -2.4184 C.3      1 ZINC000003951570   -0.0800
20     C20    -3.9527   -4.1052   -2.6120 C.2      1 ZINC000003951570   -0.1200
21     C21    -3.0930   -3.9195   -1.6220 C.2      1 ZINC000003951570   -0.0500
22     C22    -3.6526   -3.4768   -0.2846 C.3      1 ZINC000003951570   -0.0200
23     H23    -4.6576   -3.0805   -0.4297 H        1 ZINC000003951570    0.1100
24     C24    -3.7166   -4.6627    0.6431 C.ar     1 ZINC000003951570   -0.0400
25     C25    -3.9101   -4.4688    1.9978 C.ar     1 ZINC000003951570   -0.1100
26     C26    -3.9696   -5.5538    2.8531 C.ar     1 ZINC000003951570   -0.0900
27     C27    -3.8348   -6.8385    2.3534 C.ar     1 ZINC000003951570    0.0300
28     O28    -3.8540   -8.0562    2.9699 O.3      1 ZINC000003951570   -0.3100
29     C29    -4.0779   -9.0153    1.9195 C.3      1 ZINC000003951570    0.2100
30     O30    -3.5368   -8.3739    0.7494 O.3      1 ZINC000003951570   -0.3100
31     C31    -3.6397   -7.0339    0.9880 C.ar     1 ZINC000003951570    0.0400
32     C32    -3.5873   -5.9428    0.1364 C.ar     1 ZINC000003951570   -0.1100
33     C33    -2.7669   -2.3906    0.3454 C.3      1 ZINC000003951570   -0.1000
34     C34    -1.3612   -2.9020    0.3676 C.3      1 ZINC000003951570   -0.0400
35     C35    -1.3213   -4.2880    1.0144 C.3      1 ZINC000003951570   -0.1600
36     H36    -0.7623    2.5838    1.2037 H        1 ZINC000003951570    0.0800
37     H37    -1.6241    2.2172   -0.3100 H        1 ZINC000003951570    0.0800
38     H38    -2.4662    2.0712    1.2514 H        1 ZINC000003951570    0.0800
39     H39     0.5367   -1.8176    2.8399 H        1 ZINC000003951570    0.3800
40     H40     1.3306   -1.2659   -0.2069 H        1 ZINC000003951570    0.0700
41     H41     1.7483   -2.6450    0.8497 H        1 ZINC000003951570    0.0800
42     H42     1.1533   -2.9297   -1.8528 H        1 ZINC000003951570    0.0700
43     H43     0.8507   -4.2226   -0.6465 H        1 ZINC000003951570    0.0800
44     H44    -1.1493   -3.3023   -3.6630 H        1 ZINC000003951570    0.0700
45     H45    -0.1668   -4.7186   -3.2400 H        1 ZINC000003951570    0.0800
46     H46    -1.8010   -5.2201   -5.0521 H        1 ZINC000003951570    0.0900
47     H47    -2.1128   -6.1952   -3.5913 H        1 ZINC000003951570    0.0900
48     H48    -4.0046   -4.9669   -5.9246 H        1 ZINC000003951570    0.1400
49     H49    -5.5402   -2.1110   -3.7305 H        1 ZINC000003951570    0.1000
50     H50    -7.0447   -3.0522   -3.6135 H        1 ZINC000003951570    0.1000
51     H51    -5.5563   -3.1675   -1.5524 H        1 ZINC000003951570    0.0900
52     H52    -5.9619   -4.7505   -2.2637 H        1 ZINC000003951570    0.0800
53     H53    -4.0147   -3.4677    2.3893 H        1 ZINC000003951570    0.1400
54     H54    -4.1210   -5.3993    3.9112 H        1 ZINC000003951570    0.1400
55     H55    -3.5454   -9.9432    2.1284 H        1 ZINC000003951570    0.1300
56     H56    -5.1440   -9.2043    1.7943 H        1 ZINC000003951570    0.0800
57     H57    -3.4422   -6.0917   -0.9234 H        1 ZINC000003951570    0.1400
58     H58    -2.8282   -1.4747   -0.2424 H        1 ZINC000003951570    0.0700
59     H59    -3.0875   -2.1978    1.3692 H        1 ZINC000003951570    0.0800
60     H60    -1.7859   -5.0139    0.3470 H        1 ZINC000003951570    0.0800
61     H61    -0.2856   -4.5738    1.1977 H        1 ZINC000003951570    0.0500
62     H62    -1.8642   -4.2637    1.9593 H        1 ZINC000003951570    0.0700
@<TRIPOS>BOND
1     1     2     1
2     1     36    1
3     1     37    1
4     1     38    1
5     2     3     3
6     3     4     1
7     4     34    1
8     4     5     1
9     4     6     1
10    5     39    1
11    6     7     1
12    6     40    1
13    6     41    1
14    7     8     1
15    7     42    1
16    7     43    1
17    8     9     1
18    8     34    1
19    8     10    1
20    10    11    1
21    10    21    1
22    10    12    1
23    12    13    1
24    12    44    1
25    12    45    1
26    13    14    1
27    13    46    1
28    13    47    1
29    14    20    1
30    14    15    2
31    15    16    1
32    15    48    1
33    16    17    2
34    16    18    1
35    18    19    1
36    18    49    1
37    18    50    1
38    19    20    1
39    19    51    1
40    19    52    1
41    20    21    2
42    21    22    1
43    22    23    1
44    22    24    1
45    22    33    1
46    24    32    ar
47    24    25    ar
48    25    26    ar
49    25    53    1
50    26    27    ar
51    26    54    1
52    27    31    ar
53    27    28    1
54    28    29    1
55    29    30    1
56    29    55    1
57    29    56    1
58    30    31    1
59    31    32    ar
60    32    57    1
61    33    34    1
62    33    58    1
63    33    59    1
64    34    35    1
65    35    60    1
66    35    61    1
67    35    62    1
@<TRIPOS>SUBSTRUCTURE
1   ZINC000003951570 1     RESIDUE    1   A     ZIN   1
