@<TRIPOS>MOLECULE
ZINC000003789797
  48   50    0    0    0
SMALL
USER_CHARGES
NO_NAME
@<TRIPOS>ATOM
    1 N1       -0.0160     1.3280     0.0093 N.pl3  1 <0>      -0.7600
    2 C2        0.0021    -0.0041     0.0020 C.cat  1 <0>       0.6100
    3 N3        1.1647    -0.6544    -0.0126 N.pl3  1 <0>      -0.7600
    4 H4        1.9980    -0.1580    -0.0179 H      1 <0>       0.4300
    5 H5        1.1778    -1.6243    -0.0179 H      1 <0>       0.4500
    6 C6       -1.2679    -0.7605     0.0101 C.ar   1 <0>      -0.1800
    7 C7       -2.3998    -0.2190     0.6235 C.ar   1 <0>      -0.0500
    8 C8       -3.5822    -0.9238     0.6302 C.ar   1 <0>      -0.1300
    9 C9       -3.6500    -2.1791     0.0248 C.ar   1 <0>       0.0600
   10 C10      -4.9234    -2.9376     0.0328 C.ar   1 <0>      -0.1400
   11 C11      -6.0558    -2.3954     0.6400 C.ar   1 <0>      -0.0500
   12 C12      -7.2387    -3.1035     0.6458 C.ar   1 <0>      -0.1600
   13 C13      -7.3033    -4.3554     0.0484 C.ar   1 <0>       0.1700
   14 O14      -8.4702    -5.0507     0.0562 O.3    1 <0>      -0.3000
   15 C15      -8.4661    -6.3321    -0.5763 C.3    1 <0>       0.0400
   16 C16      -9.8575    -6.9591    -0.4674 C.3    1 <0>       0.1400
   17 H17     -10.1777    -6.9867     0.5742 H      1 <0>       0.0900
   18 C18      -9.8495    -8.3848    -1.0621 C.3    1 <0>      -0.1300
   19 C19     -10.2996    -8.1216    -2.5179 C.3    1 <0>      -0.1000
   20 H20      -9.4338    -8.0026    -3.1693 H      1 <0>       0.1100
   21 C21     -11.1910    -9.2606    -3.0169 C.3    1 <0>      -0.1700
   22 C22     -11.5155    -9.0437    -4.4725 C.2    1 <0>       0.4900
   23 O23     -11.0746    -8.0685    -5.0566 O.co2  1 <0>      -0.6800
   24 O24     -12.2188    -9.8434    -5.0660 O.co2  1 <0>      -0.7100
   25 C25     -11.0825    -6.8297    -2.4363 C.2    1 <0>       0.5200
   26 O26     -11.8373    -6.4197    -3.2925 O.2    1 <0>      -0.4800
   27 N27     -10.8206    -6.2013    -1.2749 N.am   1 <0>      -0.7400
   28 C28      -6.1776    -4.8978    -0.5574 C.ar   1 <0>      -0.2100
   29 C29      -4.9931    -4.1924    -0.5717 C.ar   1 <0>      -0.0400
   30 C30      -2.5197    -2.7206    -0.5886 C.ar   1 <0>      -0.1200
   31 C31      -1.3380    -2.0146    -0.6007 C.ar   1 <0>      -0.0500
   32 H32       0.8174     1.8244     0.0041 H      1 <0>       0.4300
   33 H33      -0.8625     1.8015     0.0159 H      1 <0>       0.4500
   34 H34      -2.3473     0.7524     1.0927 H      1 <0>       0.1400
   35 H35      -4.4576    -0.5052     1.1044 H      1 <0>       0.1500
   36 H36      -6.0060    -1.4221     1.1054 H      1 <0>       0.1300
   37 H37      -8.1160    -2.6842     1.1159 H      1 <0>       0.1400
   38 H38      -8.2004    -6.2177    -1.6272 H      1 <0>       0.0800
   39 H39      -7.7375    -6.9773    -0.0855 H      1 <0>       0.0800
   40 H40      -8.8475    -8.8131    -1.0351 H      1 <0>       0.0900
   41 H41     -10.5611    -9.0276    -0.5440 H      1 <0>       0.0900
   42 H42     -10.6681   -10.2097    -2.8987 H      1 <0>       0.0700
   43 H43     -12.1143    -9.2798    -2.4378 H      1 <0>       0.0600
   44 H44     -11.2172    -5.3574    -1.0077 H      1 <0>       0.4000
   45 H45      -6.2310    -5.8717    -1.0212 H      1 <0>       0.1400
   46 H46      -4.1181    -4.6146    -1.0433 H      1 <0>       0.1300
   47 H47      -2.5730    -3.6922    -1.0570 H      1 <0>       0.1500
   48 H48      -0.4633    -2.4337    -1.0758 H      1 <0>       0.1400
@<TRIPOS>BOND
   1    1    2 ar
   2    1   32 1
   3    1   33 1
   4    2    3 ar
   5    2    6 1
   6    3    4 1
   7    3    5 1
   8    6   31 ar
   9    6    7 ar
  10    7    8 ar
  11    7   34 1
  12    8    9 ar
  13    8   35 1
  14    9   10 1
  15    9   30 ar
  16   10   29 ar
  17   10   11 ar
  18   11   12 ar
  19   11   36 1
  20   12   13 ar
  21   12   37 1
  22   13   14 1
  23   13   28 ar
  24   14   15 1
  25   15   16 1
  26   15   38 1
  27   15   39 1
  28   16   17 1
  29   16   27 1
  30   16   18 1
  31   18   19 1
  32   18   40 1
  33   18   41 1
  34   19   20 1
  35   19   21 1
  36   19   25 1
  37   21   22 1
  38   21   42 1
  39   21   43 1
  40   22   23 ar
  41   22   24 ar
  42   25   26 2
  43   25   27 am
  44   27   44 1
  45   28   29 ar
  46   28   45 1
  47   29   46 1
  48   30   31 ar
  49   30   47 1
  50   31   48 1
