@<TRIPOS>MOLECULE
ZINC000100015416
29    32    1     0     0
SMALL
USER_CHARGES
@<TRIPOS>ATOM
1      O1      0.0021   -0.0041    0.0020 O.2      1 ZINC000100015416   -0.5200
2      C2     -0.0144    1.2119    0.0087 C.2      1 ZINC000100015416    0.5500
3      N3     -1.1112    1.9884    0.0292 N.am     1 ZINC000100015416   -0.6600
4      C4     -0.7768    3.3382    0.0314 C.ar     1 ZINC000100015416    0.1100
5      C5     -1.5628    4.4839    0.0488 C.ar     1 ZINC000100015416   -0.1400
6      C6     -0.9704    5.7318    0.0461 C.ar     1 ZINC000100015416   -0.1300
7      C7      0.4084    5.8590    0.0261 C.ar     1 ZINC000100015416   -0.1500
8      C8      1.2071    4.7334    0.0087 C.ar     1 ZINC000100015416   -0.0800
9      C9      0.6200    3.4705    0.0112 C.ar     1 ZINC000100015416   -0.0200
10     C10     1.1700    2.0998    0.0022 C.2      1 ZINC000100015416   -0.2900
11     C11     2.4990    1.7278   -0.0115 C.2      1 ZINC000100015416    0.2000
12     N12     3.5824    2.5754   -0.0135 N.pl3    1 ZINC000100015416   -0.6100
13     C13     4.7701    1.8583   -0.0280 C.ar     1 ZINC000100015416    0.1900
14     C14     6.0964    2.2779   -0.0355 C.ar     1 ZINC000100015416   -0.1700
15     C15     7.1178    1.3494   -0.0512 C.ar     1 ZINC000100015416   -0.0600
16     C16     6.8390   -0.0078   -0.0592 C.ar     1 ZINC000100015416   -0.2200
17     C17     5.5315   -0.4460   -0.0520 C.ar     1 ZINC000100015416   -0.0100
18     C18     4.4902    0.4826   -0.0362 C.ar     1 ZINC000100015416   -0.3100
19     C19     3.0224    0.3412   -0.0203 C.2      1 ZINC000100015416    0.3900
20     O20     2.3795   -0.6914   -0.0167 O.2      1 ZINC000100015416   -0.4000
21     H21    -2.0203    1.6503    0.0407 H        1 ZINC000100015416    0.4000
22     H22    -2.6393    4.3986    0.0640 H        1 ZINC000100015416    0.1100
23     H23    -1.5888    6.6171    0.0593 H        1 ZINC000100015416    0.1100
24     H24     0.8594    6.8403    0.0239 H        1 ZINC000100015416    0.1100
25     H25     2.2825    4.8316   -0.0065 H        1 ZINC000100015416    0.1300
26     H26     6.3276    3.3328   -0.0294 H        1 ZINC000100015416    0.1200
27     H27     8.1445    1.6843   -0.0576 H        1 ZINC000100015416    0.1100
28     H28     7.6473   -0.7240   -0.0715 H        1 ZINC000100015416    0.1100
29     H29     5.3143   -1.5039   -0.0586 H        1 ZINC000100015416    0.1100
@<TRIPOS>BOND
1     1     2     2
2     2     10    1
3     2     3     am
4     3     4     1
5     3     21    1
6     4     9     ar
7     4     5     ar
8     5     6     ar
9     5     22    1
10    6     7     ar
11    6     23    1
12    7     8     ar
13    7     24    1
14    8     9     ar
15    8     25    1
16    9     10    1
17    10    11    2
18    11    19    1
19    11    12    1
20    12    13    1
21    13    18    ar
22    13    14    ar
23    14    15    ar
24    14    26    1
25    15    16    ar
26    15    27    1
27    16    17    ar
28    16    28    1
29    17    18    ar
30    17    29    1
31    18    19    1
32    19    20    2
@<TRIPOS>SUBSTRUCTURE
1   ZINC000100015416 1     RESIDUE    1   A     ZIN   1
