@<TRIPOS>MOLECULE
ZINC000098209140
44    48    1     0     0
SMALL
USER_CHARGES
@<TRIPOS>ATOM
1      C1     -0.2212    1.5502    0.2573 C.3      1 ZINC000098209140   -0.1300
2      C2     -0.1955    0.0443    0.2048 C.cat    1 ZINC000098209140    0.4200
3      N3     -0.2853   -0.6650   -0.8820 N.pl3    1 ZINC000098209140   -0.4900
4      H4     -0.3783   -0.3051   -1.7780 H        1 ZINC000098209140    0.4600
5      C5     -0.2286   -1.9861   -0.5714 C.ar     1 ZINC000098209140    0.0300
6      C6     -0.2785   -3.1565   -1.3334 C.ar     1 ZINC000098209140   -0.0400
7      C7     -0.1956   -4.3737   -0.7204 C.ar     1 ZINC000098209140   -0.1200
8      C8     -0.0610   -4.4632    0.6633 C.ar     1 ZINC000098209140    0.2300
9      N9      0.0232   -5.7212    1.2762 N.pl3    1 ZINC000098209140   -0.3600
10     N10     0.7870   -6.0303    2.4067 N.2      1 ZINC000098209140   -0.3000
11     C11     0.6290   -7.2899    2.7016 C.2      1 ZINC000098209140    0.1500
12     C12    -0.2594   -7.8579    1.7576 C.2      1 ZINC000098209140   -0.3500
13     C13    -0.7142   -9.2529    1.7154 C.2      1 ZINC000098209140    0.5000
14     O14    -1.5469   -9.6464    2.5126 O.2      1 ZINC000098209140   -0.4400
15     C15    -0.1644  -10.1758    0.7102 C.2      1 ZINC000098209140   -0.0100
16     C16     0.8400   -9.8869   -0.1588 C.2      1 ZINC000098209140   -0.1100
17     C17     1.0687  -11.0376   -0.9513 C.ar     1 ZINC000098209140   -0.1300
18     C18     1.9611  -11.3277   -1.9912 C.ar     1 ZINC000098209140   -0.0600
19     C19     1.9435  -12.5604   -2.5767 C.ar     1 ZINC000098209140   -0.1400
20     C20     1.0474  -13.5327   -2.1514 C.ar     1 ZINC000098209140   -0.0800
21     C21     0.1602  -13.2716   -1.1308 C.ar     1 ZINC000098209140   -0.1300
22     C22     0.1591  -12.0224   -0.5178 C.ar     1 ZINC000098209140    0.1200
23     N23    -0.5826  -11.4755    0.5033 N.pl3    1 ZINC000098209140   -0.5700
24     C24    -0.6245   -6.8387    0.8782 C.2      1 ZINC000098209140    0.4200
25     N25    -1.4791   -6.9517   -0.1987 N.pl3    1 ZINC000098209140   -0.8300
26     C26    -0.0096   -3.3151    1.4361 C.ar     1 ZINC000098209140   -0.0900
27     C27    -0.0929   -2.0726    0.8250 C.ar     1 ZINC000098209140    0.1100
28     N28    -0.0692   -0.7715    1.2869 N.pl3    1 ZINC000098209140   -0.5300
29     H29     0.7949    1.9343    0.1665 H        1 ZINC000098209140    0.1300
30     H30    -0.8287    1.9321   -0.5632 H        1 ZINC000098209140    0.1300
31     H31    -0.6483    1.8734    1.2067 H        1 ZINC000098209140    0.1300
32     H32    -0.3830   -3.0983   -2.4068 H        1 ZINC000098209140    0.1700
33     H33    -0.2350   -5.2753   -1.3136 H        1 ZINC000098209140    0.1600
34     H34     1.0956   -7.8105    3.5248 H        1 ZINC000098209140    0.2000
35     H35     1.3684   -8.9478   -0.2318 H        1 ZINC000098209140    0.1500
36     H36     2.6610  -10.5778   -2.3291 H        1 ZINC000098209140    0.1200
37     H37     2.6325  -12.7818   -3.3784 H        1 ZINC000098209140    0.1300
38     H38     1.0462  -14.5029   -2.6259 H        1 ZINC000098209140    0.1300
39     H39    -0.5329  -14.0342   -0.8075 H        1 ZINC000098209140    0.1300
40     H40    -1.2853  -11.9278    0.9958 H        1 ZINC000098209140    0.4200
41     H41    -1.8905   -7.8058   -0.4038 H        1 ZINC000098209140    0.4300
42     H42    -1.6685   -6.1770   -0.7509 H        1 ZINC000098209140    0.4100
43     H43     0.0947   -3.3867    2.5086 H        1 ZINC000098209140    0.1700
44     H44     0.0194   -0.4911    2.2112 H        1 ZINC000098209140    0.4700
@<TRIPOS>BOND
1     1     2     1
2     1     29    1
3     1     30    1
4     1     31    1
5     2     28    ar
6     2     3     ar
7     3     4     1
8     3     5     1
9     5     27    ar
10    5     6     ar
11    6     7     ar
12    6     32    1
13    7     8     ar
14    7     33    1
15    8     9     1
16    8     26    ar
17    9     24    1
18    9     10    1
19    10    11    2
20    11    12    1
21    11    34    1
22    12    13    1
23    12    24    2
24    13    14    2
25    13    15    1
26    15    23    1
27    15    16    2
28    16    17    1
29    16    35    1
30    17    22    ar
31    17    18    ar
32    18    19    ar
33    18    36    1
34    19    20    ar
35    19    37    1
36    20    21    ar
37    20    38    1
38    21    22    ar
39    21    39    1
40    22    23    1
41    23    40    1
42    24    25    1
43    25    41    1
44    25    42    1
45    26    27    ar
46    26    43    1
47    27    28    1
48    28    44    1
@<TRIPOS>SUBSTRUCTURE
1   ZINC000098209140 1     RESIDUE    1   A     ZIN   1
