@<TRIPOS>MOLECULE
ZINC000001069090
  55   61    0    0    0
SMALL
USER_CHARGES
NO_NAME
@<TRIPOS>ATOM
    1 C1       -0.0173     1.4248     0.0099 C.3    1 <0>       0.0300
    2 O2        0.0021    -0.0041     0.0020 O.3    1 <0>      -0.3000
    3 C3        0.6062    -0.6075    -1.0564 C.ar   1 <0>       0.1300
    4 C4        1.1670     0.1796    -2.0522 C.ar   1 <0>      -0.1900
    5 C5        1.7710    -0.4741    -3.1326 C.ar   1 <0>       0.1800
    6 C6        1.7677    -1.8731    -3.1932 C.ar   1 <0>      -0.1300
    7 C7        1.2328    -2.6552    -2.1861 C.ar   1 <0>      -0.1200
    8 C8        0.6501    -1.9947    -1.1084 C.ar   1 <0>       0.0700
    9 O9        0.1056    -2.7200    -0.0941 O.3    1 <0>      -0.3100
   10 C10       0.1704    -4.1431    -0.2067 C.3    1 <0>       0.0300
   11 C11       2.3558    -2.2919    -4.5118 C.3    1 <0>      -0.0300
   12 C12       1.1792    -2.8422    -5.3716 C.3    1 <0>      -0.1500
   13 C13       1.5317    -4.3292    -5.6015 C.3    1 <0>       0.0200
   14 N14       3.0302    -4.3434    -5.5611 N.3    1 <0>      -0.4800
   15 C15       3.4870    -3.8097    -6.8372 C.3    1 <0>       0.0700
   16 C16       4.3837    -2.6263    -6.7961 C.2    1 <0>      -0.1100
   17 C17       4.6038    -1.9539    -7.9053 C.2    1 <0>      -0.1900
   18 C18       5.3837    -0.6698    -7.8725 C.3    1 <0>       0.0900
   19 O19       4.5827     0.3257    -7.2256 O.3    1 <0>      -0.3700
   20 C20       4.7817     0.4248    -5.8177 C.3    1 <0>       0.1000
   21 H21       5.8492     0.5611    -5.6446 H      1 <0>       0.0700
   22 C22       4.0649     1.6488    -5.2615 C.3    1 <0>      -0.1300
   23 C23       2.8374     1.3440    -4.4562 C.2    1 <0>       0.5400
   24 O24       2.1738     2.2639    -4.0266 O.2    1 <0>      -0.5100
   25 N25       2.4486     0.0831    -4.1948 N.am   1 <0>      -0.5700
   26 C26       2.8613    -1.0046    -5.1312 C.3    1 <0>       0.1600
   27 H27       2.4639    -0.8470    -6.1339 H      1 <0>       0.1100
   28 C28       4.3582    -0.8295    -5.0954 C.3    1 <0>      -0.1300
   29 H29       4.6280    -0.6912    -4.0484 H      1 <0>       0.0900
   30 C30       5.0582    -2.1149    -5.5479 C.3    1 <0>      -0.0500
   31 H31       6.1251    -1.9495    -5.6977 H      1 <0>       0.1000
   32 C32       4.8059    -3.1224    -4.4086 C.3    1 <0>      -0.1100
   33 C33       3.3208    -3.4485    -4.4147 C.3    1 <0>       0.0800
   34 H34       3.0886    -3.9928    -3.4993 H      1 <0>       0.0900
   35 H35       1.0053     1.8021     0.0021 H      1 <0>       0.0600
   36 H36      -0.5445     1.7859    -0.8732 H      1 <0>       0.0600
   37 H37      -0.5275     1.7763     0.9067 H      1 <0>       0.1000
   38 H38       1.1382     1.2577    -1.9959 H      1 <0>       0.1500
   39 H39       1.2693    -3.7336    -2.2319 H      1 <0>       0.1500
   40 H40       1.2130    -4.4559    -0.2636 H      1 <0>       0.0500
   41 H41      -0.2984    -4.5983     0.6657 H      1 <0>       0.1000
   42 H42      -0.3539    -4.4606    -1.1081 H      1 <0>       0.0500
   43 H43       0.2378    -2.7537    -4.8294 H      1 <0>       0.0800
   44 H44       1.1229    -2.3129    -6.3228 H      1 <0>       0.0700
   45 H45       1.1203    -4.9489    -4.8048 H      1 <0>       0.0900
   46 H46       1.1708    -4.6632    -6.5743 H      1 <0>       0.0900
   47 H47       4.0086    -4.6071    -7.3665 H      1 <0>       0.0900
   48 H48       2.6073    -3.5434    -7.4232 H      1 <0>       0.0700
   49 H49       4.2224    -2.3269    -8.8443 H      1 <0>       0.1200
   50 H50       6.3090    -0.8159    -7.3153 H      1 <0>       0.0700
   51 H51       5.6129    -0.3529    -8.8899 H      1 <0>       0.1000
   52 H52       4.7626     2.2002    -4.6312 H      1 <0>       0.1200
   53 H53       3.7795     2.2898    -6.0957 H      1 <0>       0.1200
   54 H54       5.3956    -4.0240    -4.5747 H      1 <0>       0.0900
   55 H55       5.0752    -2.6743    -3.4521 H      1 <0>       0.0800
@<TRIPOS>BOND
   1    1    2 1
   2    1   35 1
   3    1   36 1
   4    1   37 1
   5    2    3 1
   6    3    8 ar
   7    3    4 ar
   8    4    5 ar
   9    4   38 1
  10    5   25 1
  11    5    6 ar
  12    6    7 ar
  13    6   11 1
  14    7    8 ar
  15    7   39 1
  16    8    9 1
  17    9   10 1
  18   10   40 1
  19   10   41 1
  20   10   42 1
  21   11   26 1
  22   11   33 1
  23   11   12 1
  24   12   13 1
  25   12   43 1
  26   12   44 1
  27   13   14 1
  28   13   45 1
  29   13   46 1
  30   14   33 1
  31   14   15 1
  32   15   16 1
  33   15   47 1
  34   15   48 1
  35   16   30 1
  36   16   17 2
  37   17   18 1
  38   17   49 1
  39   18   19 1
  40   18   50 1
  41   18   51 1
  42   19   20 1
  43   20   21 1
  44   20   28 1
  45   20   22 1
  46   22   23 1
  47   22   52 1
  48   22   53 1
  49   23   24 2
  50   23   25 am
  51   25   26 1
  52   26   27 1
  53   26   28 1
  54   28   29 1
  55   28   30 1
  56   30   31 1
  57   30   32 1
  58   32   33 1
  59   32   54 1
  60   32   55 1
  61   33   34 1
