@<TRIPOS>MOLECULE
ZINC000034169003
55    57    1     0     0
SMALL
USER_CHARGES
@<TRIPOS>ATOM
1      C1     -0.7402    1.5091    0.1019 C.2      1 ZINC000034169003   -0.2100
2      C2     -0.7020    0.2001    0.1367 C.2      1 ZINC000034169003   -0.1100
3      C3     -1.9647   -0.6101    0.3327 C.3      1 ZINC000034169003   -0.0900
4      C4     -1.7330   -1.5915    1.4853 C.3      1 ZINC000034169003   -0.1200
5      C5     -0.4885   -2.4366    1.1988 C.3      1 ZINC000034169003   -0.0600
6      H6     -0.6100   -2.9512    0.2456 H        1 ZINC000034169003    0.0800
7      C7     -0.3259   -3.4676    2.3188 C.3      1 ZINC000034169003   -0.0400
8      C8     -1.5599   -4.3711    2.3618 C.3      1 ZINC000034169003   -0.1400
9      C9     -0.1783   -2.7440    3.6588 C.3      1 ZINC000034169003    0.0600
10     O10    -0.2064   -3.6990    4.7215 O.3      1 ZINC000034169003   -0.5500
11     C11     0.9184   -4.3184    2.0621 C.3      1 ZINC000034169003    0.1200
12     H12     0.8180   -4.8309    1.1054 H        1 ZINC000034169003    0.0500
13     O13     1.0615   -5.2823    3.1073 O.3      1 ZINC000034169003   -0.5400
14     C14     2.1509   -3.4115    2.0294 C.3      1 ZINC000034169003   -0.1600
15     C15     1.9959   -2.3921    0.9003 C.3      1 ZINC000034169003   -0.1100
16     C16     0.7478   -1.5382    1.1395 C.3      1 ZINC000034169003   -0.0400
17     C17     0.8915   -0.7795    2.4603 C.3      1 ZINC000034169003   -0.1700
18     C18     0.6041   -0.5437   -0.0241 C.3      1 ZINC000034169003   -0.0300
19     H19     0.6077   -1.0853   -0.9700 H        1 ZINC000034169003    0.0800
20     C20     1.7683    0.4487    0.0028 C.3      1 ZINC000034169003   -0.1400
21     C21     1.7421    1.2878   -1.2487 C.2      1 ZINC000034169003    0.0100
22     C22     2.7745    1.2632   -2.0881 C.2      1 ZINC000034169003   -0.2500
23     C23     3.9432    0.3771   -2.0184 C.2      1 ZINC000034169003    0.5200
24     O24     4.1130   -0.4658   -1.1595 O.2      1 ZINC000034169003   -0.4500
25     O25     4.7980    0.6153   -3.0206 O.3      1 ZINC000034169003   -0.3300
26     C26     4.3221    1.6790   -3.8843 C.3      1 ZINC000034169003    0.0200
27     C27     2.9729    2.1393   -3.3079 C.3      1 ZINC000034169003    0.1100
28     H28     3.0211    3.1878   -3.0137 H        1 ZINC000034169003    0.0900
29     O29     1.9263    1.9353   -4.2593 O.3      1 ZINC000034169003   -0.5500
30     H30     0.1787    2.0755    0.0694 H        1 ZINC000034169003    0.1100
31     H31    -1.6908    2.0217    0.1012 H        1 ZINC000034169003    0.1000
32     H32    -2.7933    0.0545    0.5771 H        1 ZINC000034169003    0.0700
33     H33    -2.1923   -1.1619   -0.5794 H        1 ZINC000034169003    0.0700
34     H34    -1.5888   -1.0356    2.4117 H        1 ZINC000034169003    0.0700
35     H35    -2.5999   -2.2445    1.5856 H        1 ZINC000034169003    0.0700
36     H36    -1.6671   -4.8853    1.4067 H        1 ZINC000034169003    0.0500
37     H37    -1.4450   -5.1055    3.1590 H        1 ZINC000034169003    0.0700
38     H38    -2.4468   -3.7660    2.5502 H        1 ZINC000034169003    0.0500
39     H39     0.7695   -2.2060    3.6788 H        1 ZINC000034169003    0.0700
40     H40    -0.9995   -2.0381    3.7829 H        1 ZINC000034169003    0.0400
41     H41    -0.1176   -3.3100    5.6023 H        1 ZINC000034169003    0.3700
42     H42     1.8322   -5.8579    3.0087 H        1 ZINC000034169003    0.3700
43     H43     2.2439   -2.8889    2.9814 H        1 ZINC000034169003    0.0800
44     H44     3.0421   -4.0145    1.8556 H        1 ZINC000034169003    0.0600
45     H45     2.8750   -1.7485    0.8698 H        1 ZINC000034169003    0.0800
46     H46     1.8986   -2.9163   -0.0504 H        1 ZINC000034169003    0.0600
47     H47     1.1280    0.2647    2.2557 H        1 ZINC000034169003    0.0600
48     H48    -0.0441   -0.8378    3.0165 H        1 ZINC000034169003    0.0700
49     H49     1.6930   -1.2248    3.0498 H        1 ZINC000034169003    0.0700
50     H50     1.6747    1.0949    0.8756 H        1 ZINC000034169003    0.0900
51     H51     2.7102   -0.0975    0.0544 H        1 ZINC000034169003    0.1200
52     H52     0.8855    1.9092   -1.4644 H        1 ZINC000034169003    0.1400
53     H53     5.0333    2.5051   -3.8864 H        1 ZINC000034169003    0.1100
54     H54     4.1823    1.3031   -4.8979 H        1 ZINC000034169003    0.1100
55     H55     2.0389    2.4332   -5.0806 H        1 ZINC000034169003    0.3900
@<TRIPOS>BOND
1     1     2     2
2     1     30    1
3     1     31    1
4     2     18    1
5     2     3     1
6     3     4     1
7     3     32    1
8     3     33    1
9     4     5     1
10    4     34    1
11    4     35    1
12    5     6     1
13    5     16    1
14    5     7     1
15    7     8     1
16    7     9     1
17    7     11    1
18    8     36    1
19    8     37    1
20    8     38    1
21    9     10    1
22    9     39    1
23    9     40    1
24    10    41    1
25    11    12    1
26    11    13    1
27    11    14    1
28    13    42    1
29    14    15    1
30    14    43    1
31    14    44    1
32    15    16    1
33    15    45    1
34    15    46    1
35    16    17    1
36    16    18    1
37    17    47    1
38    17    48    1
39    17    49    1
40    18    19    1
41    18    20    1
42    20    21    1
43    20    50    1
44    20    51    1
45    21    22    2
46    21    52    1
47    22    27    1
48    22    23    1
49    23    24    2
50    23    25    1
51    25    26    1
52    26    27    1
53    26    53    1
54    26    54    1
55    27    28    1
56    27    29    1
57    29    55    1
@<TRIPOS>SUBSTRUCTURE
1   ZINC000034169003 1     RESIDUE    1   A     ZIN   1
