@<TRIPOS>MOLECULE
ZINC000005424171
33    35    1     0     0
SMALL
USER_CHARGES
@<TRIPOS>ATOM
1      C1     -1.5129   -0.4210   -0.1580 C.3      1 ZINC000005424171   -0.1600
2      C2     -0.0368   -0.0503   -0.0011 C.3      1 ZINC000005424171   -0.1100
3      C3      0.7556   -0.5974   -1.1901 C.3      1 ZINC000005424171    0.0000
4      C4      0.2137   -0.0547   -2.4873 C.2      1 ZINC000005424171    0.0800
5      C5     -0.4095   -0.7565   -3.4531 C.2      1 ZINC000005424171    0.0000
6      N6     -0.7345    0.0928   -4.4391 N.pl3    1 ZINC000005424171   -0.4700
7      H7     -1.1934   -0.1479   -5.2590 H        1 ZINC000005424171    0.4700
8      C8     -0.3364    1.2942   -4.1209 C.cat    1 ZINC000005424171    0.3100
9      N9      0.2550    1.2473   -2.9078 N.pl3    1 ZINC000005424171   -0.5100
10     C10     2.2583   -0.2777   -1.0417 C.3      1 ZINC000005424171   -0.0700
11     C11     2.8505   -1.4773   -0.3336 C.ar     1 ZINC000005424171   -0.1000
12     C12     4.0551   -1.6209    0.3336 C.ar     1 ZINC000005424171   -0.1000
13     C13     4.3897   -2.8301    0.9119 C.ar     1 ZINC000005424171   -0.1100
14     C14     3.5197   -3.9005    0.8247 C.ar     1 ZINC000005424171   -0.1100
15     C15     2.3173   -3.7591    0.1594 C.ar     1 ZINC000005424171   -0.1000
16     C16     1.9802   -2.5481   -0.4209 C.ar     1 ZINC000005424171   -0.1000
17     C17     0.7440   -2.1408   -1.1936 C.3      1 ZINC000005424171   -0.0700
18     H18    -1.9039    0.0236   -1.0732 H        1 ZINC000005424171    0.0500
19     H19    -1.6117   -1.5052   -0.2098 H        1 ZINC000005424171    0.0700
20     H20    -2.0747   -0.0454    0.6972 H        1 ZINC000005424171    0.0700
21     H21     0.0636    1.0345    0.0342 H        1 ZINC000005424171    0.0700
22     H22     0.3499   -0.4812    0.9224 H        1 ZINC000005424171    0.0900
23     H23    -0.6120   -1.8172   -3.4367 H        1 ZINC000005424171    0.2200
24     H24    -0.4627    2.1800   -4.7258 H        1 ZINC000005424171    0.2700
25     H25     0.6426    1.9953   -2.4270 H        1 ZINC000005424171    0.4700
26     H26     2.7170   -0.1529   -2.0226 H        1 ZINC000005424171    0.0800
27     H27     2.3961    0.6218   -0.4417 H        1 ZINC000005424171    0.0900
28     H28     4.7356   -0.7851    0.4018 H        1 ZINC000005424171    0.1200
29     H29     5.3303   -2.9389    1.4313 H        1 ZINC000005424171    0.1300
30     H30     3.7798   -4.8466    1.2760 H        1 ZINC000005424171    0.1300
31     H31     1.6380   -4.5960    0.0917 H        1 ZINC000005424171    0.1200
32     H32    -0.1521   -2.5135   -0.6973 H        1 ZINC000005424171    0.1000
33     H33     0.7955   -2.5170   -2.2153 H        1 ZINC000005424171    0.0900
@<TRIPOS>BOND
1     1     2     1
2     1     18    1
3     1     19    1
4     1     20    1
5     2     3     1
6     2     21    1
7     2     22    1
8     3     17    1
9     3     4     1
10    3     10    1
11    4     9     1
12    4     5     2
13    5     6     1
14    5     23    1
15    6     7     1
16    6     8     ar
17    8     9     ar
18    8     24    1
19    9     25    1
20    10    11    1
21    10    26    1
22    10    27    1
23    11    16    ar
24    11    12    ar
25    12    13    ar
26    12    28    1
27    13    14    ar
28    13    29    1
29    14    15    ar
30    14    30    1
31    15    16    ar
32    15    31    1
33    16    17    1
34    17    32    1
35    17    33    1
@<TRIPOS>SUBSTRUCTURE
1   ZINC000005424171 1     RESIDUE    1   A     ZIN   1
