@<TRIPOS>MOLECULE
ZINC000000537914
41    44    1     0     0
SMALL
USER_CHARGES
@<TRIPOS>ATOM
1      O1     -6.2670    0.7314   -1.4689 O.co2    1 ZINC000000537914   -0.6700
2      C2     -6.1238   -0.3834   -1.9412 C.2      1 ZINC000000537914    0.4900
3      O3     -6.9734   -0.8444   -2.6843 O.co2    1 ZINC000000537914   -0.6900
4      C4     -4.8938   -1.1892   -1.6114 C.3      1 ZINC000000537914    0.0200
5      N5     -4.0316   -0.4183   -0.7122 N.pl3    1 ZINC000000537914   -0.4000
6      C6     -2.9767    0.3844   -1.1014 C.2      1 ZINC000000537914    0.0300
7      C7     -2.5383    0.6028   -2.4873 C.2      1 ZINC000000537914    0.5900
8      O8     -3.1772    0.1312   -3.4090 O.2      1 ZINC000000537914   -0.4800
9      N9     -1.4284    1.3256   -2.7371 N.am     1 ZINC000000537914   -0.6100
10     C10    -1.0750    1.6250   -4.0456 C.2      1 ZINC000000537914    0.2900
11     N11    -0.0306    2.3058   -4.4029 N.2      1 ZINC000000537914   -0.4800
12     C12     0.1489    2.4947   -5.7027 C.2      1 ZINC000000537914    0.1200
13     C13     1.3029    3.2549   -6.2414 C.ar     1 ZINC000000537914   -0.0100
14     C14     1.4444    3.4304   -7.6164 C.ar     1 ZINC000000537914   -0.0900
15     C15     2.5201    4.1392   -8.1122 C.ar     1 ZINC000000537914   -0.1200
16     C16     3.4573    4.6747   -7.2474 C.ar     1 ZINC000000537914   -0.1100
17     C17     3.3232    4.5038   -5.8812 C.ar     1 ZINC000000537914   -0.1200
18     C18     2.2479    3.8019   -5.3730 C.ar     1 ZINC000000537914   -0.0100
19     Cl19    2.0802    3.5885   -3.6584 Cl       1 ZINC000000537914   -0.0300
20     C20    -0.7875    1.9490   -6.4994 C.2      1 ZINC000000537914   -0.2900
21     S21    -1.9707    1.1329   -5.4799 S.3      1 ZINC000000537914    0.2200
22     C22    -2.4094    0.9405    0.0013 C.2      1 ZINC000000537914   -0.1500
23     C23    -3.1241    0.4790    1.1330 C.ar     1 ZINC000000537914   -0.1200
24     C24    -2.9988    0.7083    2.5091 C.ar     1 ZINC000000537914   -0.0700
25     C25    -3.8598    0.1046    3.3791 C.ar     1 ZINC000000537914   -0.1500
26     C26    -4.8614   -0.7374    2.9132 C.ar     1 ZINC000000537914   -0.1000
27     C27    -5.0050   -0.9787    1.5649 C.ar     1 ZINC000000537914   -0.1100
28     C28    -4.1429   -0.3700    0.6574 C.ar     1 ZINC000000537914    0.1300
29     H29    -5.1882   -2.1187   -1.1242 H        1 ZINC000000537914    0.0800
30     H30    -4.3512   -1.4161   -2.5291 H        1 ZINC000000537914    0.1100
31     H31    -0.8767    1.6367   -2.0024 H        1 ZINC000000537914    0.4300
32     H32     0.7138    3.0123   -8.2931 H        1 ZINC000000537914    0.1300
33     H33     2.6304    4.2756   -9.1779 H        1 ZINC000000537914    0.1300
34     H34     4.2974    5.2281   -7.6403 H        1 ZINC000000537914    0.1300
35     H35     4.0584    4.9236   -5.2107 H        1 ZINC000000537914    0.1300
36     H36    -0.8084    1.9990   -7.5780 H        1 ZINC000000537914    0.1800
37     H37    -1.5647    1.6134    0.0123 H        1 ZINC000000537914    0.1500
38     H38    -2.2227    1.3609    2.8808 H        1 ZINC000000537914    0.1200
39     H39    -3.7613    0.2830    4.4397 H        1 ZINC000000537914    0.1200
40     H40    -5.5340   -1.2078    3.6151 H        1 ZINC000000537914    0.1200
41     H41    -5.7870   -1.6349    1.2125 H        1 ZINC000000537914    0.1200
@<TRIPOS>BOND
1     1     2     ar
2     2     3     ar
3     2     4     1
4     4     5     1
5     4     29    1
6     4     30    1
7     5     28    1
8     5     6     1
9     6     7     1
10    6     22    2
11    7     8     2
12    7     9     am
13    9     10    1
14    9     31    1
15    10    21    1
16    10    11    2
17    11    12    1
18    12    13    1
19    12    20    2
20    13    18    ar
21    13    14    ar
22    14    15    ar
23    14    32    1
24    15    16    ar
25    15    33    1
26    16    17    ar
27    16    34    1
28    17    18    ar
29    17    35    1
30    18    19    1
31    20    21    1
32    20    36    1
33    22    23    1
34    22    37    1
35    23    28    ar
36    23    24    ar
37    24    25    ar
38    24    38    1
39    25    26    ar
40    25    39    1
41    26    27    ar
42    26    40    1
43    27    28    ar
44    27    41    1
@<TRIPOS>SUBSTRUCTURE
1   ZINC000000537914 1     RESIDUE    1   A     ZIN   1
