@<TRIPOS>MOLECULE
ZINC000003775281
66    68    1     0     0
SMALL
USER_CHARGES
@<TRIPOS>ATOM
1      C1     -0.0187    1.5258    0.0104 C.3      1 ZINC000003775281   -0.1600
2      C2      0.0021   -0.0041    0.0020 C.3      1 ZINC000003775281   -0.0900
3      H3      0.5124   -0.3549   -0.8950 H        1 ZINC000003775281    0.1500
4      C4     -1.4338   -0.5328    0.0106 C.3      1 ZINC000003775281   -0.1500
5      C5     -2.0311   -0.3202    1.3796 C.2      1 ZINC000003775281    0.5200
6      O6     -3.2056   -0.0396    1.4959 O.2      1 ZINC000003775281   -0.4400
7      N7     -1.2530   -0.4433    2.4718 N.am     1 ZINC000003775281   -0.5400
8      N8      0.1184   -0.6792    2.3435 N.2      1 ZINC000003775281   -0.3300
9      H9      0.6208   -0.9833    3.1155 H        1 ZINC000003775281    0.4500
10     C10     0.7324   -0.5019    1.2211 C.2      1 ZINC000003775281    0.3700
11     C11     2.1745   -0.7929    1.1308 C.ar     1 ZINC000003775281   -0.2000
12     C12     2.8538   -0.6004   -0.0755 C.ar     1 ZINC000003775281    0.0200
13     C13     4.2016   -0.8729   -0.1560 C.ar     1 ZINC000003775281   -0.1900
14     C14     4.8866   -1.3390    0.9612 C.ar     1 ZINC000003775281    0.2800
15     N15     6.2513   -1.6134    0.8760 N.pl3    1 ZINC000003775281   -0.7400
16     C16     6.9745   -2.1045    2.0516 C.3      1 ZINC000003775281    0.1000
17     C17     8.4451   -2.3240    1.6908 C.3      1 ZINC000003775281    0.0500
18     C18     9.2004   -2.8368    2.9186 C.3      1 ZINC000003775281   -0.1800
19     C19     8.5455   -3.3535    0.5635 C.3      1 ZINC000003775281   -0.1800
20     N20     9.0355   -1.0538    1.2480 N.4      1 ZINC000003775281   -0.5000
21     H21     8.5374   -0.7156    0.4383 H        1 ZINC000003775281    0.4300
22     H22     8.9693   -0.3748    1.9914 H        1 ZINC000003775281    0.4300
23     C23    10.4474   -1.2645    0.9016 C.3      1 ZINC000003775281   -0.0500
24     C24    11.0623    0.0583    0.4403 C.3      1 ZINC000003775281    0.0900
25     H25    10.9908    0.7918    1.2435 H        1 ZINC000003775281    0.1400
26     O26    10.3569    0.5373   -0.7064 O.3      1 ZINC000003775281   -0.5400
27     C27    12.5329   -0.1611    0.0795 C.3      1 ZINC000003775281    0.0200
28     O28    13.1375    1.0937   -0.2394 O.3      1 ZINC000003775281   -0.2900
29     C29    14.4500    1.0754   -0.5839 C.ar     1 ZINC000003775281    0.1800
30     C30    15.1428   -0.1239   -0.6209 C.ar     1 ZINC000003775281   -0.2000
31     C31    16.4803   -0.1411   -0.9721 C.ar     1 ZINC000003775281    0.0300
32     Cl32   17.3417   -1.6477   -1.0168 Cl       1 ZINC000003775281   -0.0400
33     C33    17.1368    1.0379   -1.2891 C.ar     1 ZINC000003775281   -0.1400
34     C34    16.4622    2.2392   -1.2567 C.ar     1 ZINC000003775281   -0.0100
35     C35    15.1093    2.2695   -0.9095 C.ar     1 ZINC000003775281   -0.0500
36     C36    14.4028    3.5145   -0.8745 C.1      1 ZINC000003775281    0.2500
37     N37    13.8423    4.5022   -0.8467 N.1      1 ZINC000003775281   -0.3900
38     C38     4.2139   -1.5318    2.1633 C.ar     1 ZINC000003775281   -0.1900
39     C39     2.8673   -1.2564    2.2528 C.ar     1 ZINC000003775281   -0.0100
40     H40     1.0039    1.9031    0.0027 H        1 ZINC000003775281    0.0900
41     H41    -0.5459    1.8868   -0.8726 H        1 ZINC000003775281    0.1100
42     H42    -0.5289    1.8773    0.9072 H        1 ZINC000003775281    0.0700
43     H43    -2.0243    0.0042   -0.7318 H        1 ZINC000003775281    0.1500
44     H44    -1.4316   -1.5971   -0.2246 H        1 ZINC000003775281    0.1300
45     H45    -1.6475   -0.3672    3.3546 H        1 ZINC000003775281    0.4500
46     H46     2.3225   -0.2388   -0.9435 H        1 ZINC000003775281    0.1600
47     H47     4.7271   -0.7247   -1.0878 H        1 ZINC000003775281    0.1500
48     H48     6.7217   -1.4791    0.0384 H        1 ZINC000003775281    0.4100
49     H49     6.9030   -1.3710    2.8548 H        1 ZINC000003775281    0.1000
50     H50     6.5365   -3.0469    2.3802 H        1 ZINC000003775281    0.1200
51     H51     8.7623   -3.7793    3.2472 H        1 ZINC000003775281    0.1100
52     H52    10.2481   -2.9932    2.6616 H        1 ZINC000003775281    0.0900
53     H53     9.1289   -2.1033    3.7217 H        1 ZINC000003775281    0.0900
54     H54     8.0074   -2.9882   -0.3112 H        1 ZINC000003775281    0.0800
55     H55     9.5931   -3.5099    0.3065 H        1 ZINC000003775281    0.0900
56     H56     8.1074   -4.2960    0.8921 H        1 ZINC000003775281    0.1100
57     H57    10.9855   -1.6299    1.7763 H        1 ZINC000003775281    0.1600
58     H58    10.5189   -1.9980    0.0984 H        1 ZINC000003775281    0.1500
59     H59    10.3784   -0.0660   -1.4618 H        1 ZINC000003775281    0.3900
60     H60    13.0518   -0.6096    0.9267 H        1 ZINC000003775281    0.0900
61     H61    12.6004   -0.8262   -0.7814 H        1 ZINC000003775281    0.0800
62     H62    14.6379   -1.0463   -0.3748 H        1 ZINC000003775281    0.1500
63     H63    18.1814    1.0150   -1.5622 H        1 ZINC000003775281    0.1600
64     H64    16.9776    3.1556   -1.5040 H        1 ZINC000003775281    0.1600
65     H65     4.7490   -1.8939    3.0288 H        1 ZINC000003775281    0.1500
66     H66     2.3456   -1.4063    3.1865 H        1 ZINC000003775281    0.1300
@<TRIPOS>BOND
1     1     2     1
2     1     40    1
3     1     41    1
4     1     42    1
5     2     3     1
6     2     10    1
7     2     4     1
8     4     5     1
9     4     43    1
10    4     44    1
11    5     6     2
12    5     7     am
13    7     8     1
14    7     45    1
15    8     9     1
16    8     10    2
17    10    11    1
18    11    39    ar
19    11    12    ar
20    12    13    ar
21    12    46    1
22    13    14    ar
23    13    47    1
24    14    15    1
25    14    38    ar
26    15    16    1
27    15    48    1
28    16    17    1
29    16    49    1
30    16    50    1
31    17    18    1
32    17    19    1
33    17    20    1
34    18    51    1
35    18    52    1
36    18    53    1
37    19    54    1
38    19    55    1
39    19    56    1
40    20    21    1
41    20    22    1
42    20    23    1
43    23    24    1
44    23    57    1
45    23    58    1
46    24    25    1
47    24    26    1
48    24    27    1
49    26    59    1
50    27    28    1
51    27    60    1
52    27    61    1
53    28    29    1
54    29    35    ar
55    29    30    ar
56    30    31    ar
57    30    62    1
58    31    32    1
59    31    33    ar
60    33    34    ar
61    33    63    1
62    34    35    ar
63    34    64    1
64    35    36    1
65    36    37    3
66    38    39    ar
67    38    65    1
68    39    66    1
@<TRIPOS>SUBSTRUCTURE
1   ZINC000003775281 1     RESIDUE    1   A     ZIN   1
