@<TRIPOS>MOLECULE
ZINC000003817189
46    48    1     0     0
SMALL
USER_CHARGES
@<TRIPOS>ATOM
1      C1     -0.0176    1.4478    0.0100 C.3      1 ZINC000003817189    0.0600
2      O2      0.0021   -0.0041    0.0020 O.3      1 ZINC000003817189   -0.3700
3      C3      0.6002   -0.6015   -1.0459 C.2      1 ZINC000003817189    0.6600
4      O4      1.0922    0.0719   -1.9296 O.2      1 ZINC000003817189   -0.5700
5      N5      0.6531   -1.9465   -1.1147 N.am     1 ZINC000003817189   -0.6000
6      C6      0.0966   -2.8833   -0.1251 C.3      1 ZINC000003817189    0.1000
7      C7      0.4754   -4.3117   -0.5821 C.3      1 ZINC000003817189   -0.1200
8      C8      1.6855   -4.0477   -1.5015 C.3      1 ZINC000003817189   -0.0800
9      H9      2.5744   -3.8773   -0.8941 H        1 ZINC000003817189    0.0900
10     C10     1.2775   -2.7383   -2.2056 C.3      1 ZINC000003817189    0.1700
11     H11     2.1398   -2.2250   -2.6310 H        1 ZINC000003817189    0.1000
12     C12     0.2007   -3.0004   -3.2614 C.3      1 ZINC000003817189   -0.1300
13     C13     0.6434   -4.0899   -4.2340 C.3      1 ZINC000003817189   -0.1200
14     C14     0.8394   -5.3916   -3.4482 C.3      1 ZINC000003817189   -0.1400
15     C15     1.9415   -5.1805   -2.4643 C.3      1 ZINC000003817189    0.2800
16     O16     2.1322   -6.3809   -1.7129 O.3      1 ZINC000003817189   -0.5500
17     C17     3.1824   -4.8694   -3.1924 C.1      1 ZINC000003817189   -0.2000
18     C18     4.1721   -4.6212   -3.7731 C.1      1 ZINC000003817189   -0.1100
19     C19     5.3792   -4.3186   -4.4815 C.ar     1 ZINC000003817189    0.0100
20     C20     5.3771   -4.2574   -5.8753 C.ar     1 ZINC000003817189   -0.1000
21     C21     6.5436   -3.9647   -6.5519 C.ar     1 ZINC000003817189   -0.1100
22     C22     7.7135   -3.7328   -5.8512 C.ar     1 ZINC000003817189   -0.1100
23     C23     7.7223   -3.7920   -4.4688 C.ar     1 ZINC000003817189   -0.0800
24     C24     9.0013   -3.5374   -3.7135 C.3      1 ZINC000003817189   -0.1200
25     C25     6.5616   -4.0779   -3.7803 C.ar     1 ZINC000003817189   -0.0900
26     H26     1.0050    1.8251    0.0023 H        1 ZINC000003817189    0.0600
27     H27    -0.5448    1.8089   -0.8731 H        1 ZINC000003817189    0.0600
28     H28    -0.5278    1.7993    0.9068 H        1 ZINC000003817189    0.1000
29     H29     0.5245   -2.6825    0.8571 H        1 ZINC000003817189    0.0800
30     H30    -0.9880   -2.7815   -0.0872 H        1 ZINC000003817189    0.0700
31     H31     0.7621   -4.9287    0.2695 H        1 ZINC000003817189    0.0900
32     H32    -0.3418   -4.7711   -1.1382 H        1 ZINC000003817189    0.0800
33     H33    -0.7179   -3.3145   -2.7658 H        1 ZINC000003817189    0.0700
34     H34     0.0113   -2.0811   -3.8156 H        1 ZINC000003817189    0.0700
35     H35    -0.1224   -4.2338   -4.9961 H        1 ZINC000003817189    0.0800
36     H36     1.5832   -3.8010   -4.7046 H        1 ZINC000003817189    0.0700
37     H37    -0.0766   -5.6389   -2.9115 H        1 ZINC000003817189    0.0900
38     H38     1.0947   -6.2001   -4.1333 H        1 ZINC000003817189    0.0800
39     H39     2.3684   -7.1486   -2.2514 H        1 ZINC000003817189    0.3800
40     H40     4.4644   -4.4390   -6.4235 H        1 ZINC000003817189    0.1300
41     H41     6.5433   -3.9171   -7.6308 H        1 ZINC000003817189    0.1300
42     H42     8.6240   -3.5049   -6.3854 H        1 ZINC000003817189    0.1300
43     H43     9.0841   -2.4744   -3.4871 H        1 ZINC000003817189    0.0700
44     H44     8.9942   -4.1073   -2.7844 H        1 ZINC000003817189    0.0700
45     H45     9.8507   -3.8464   -4.3228 H        1 ZINC000003817189    0.0700
46     H46     6.5698   -4.1238   -2.7013 H        1 ZINC000003817189    0.1300
@<TRIPOS>BOND
1     1     2     1
2     1     26    1
3     1     27    1
4     1     28    1
5     2     3     1
6     3     4     2
7     3     5     am
8     5     10    1
9     5     6     1
10    6     7     1
11    6     29    1
12    6     30    1
13    7     8     1
14    7     31    1
15    7     32    1
16    8     9     1
17    8     15    1
18    8     10    1
19    10    11    1
20    10    12    1
21    12    13    1
22    12    33    1
23    12    34    1
24    13    14    1
25    13    35    1
26    13    36    1
27    14    15    1
28    14    37    1
29    14    38    1
30    15    16    1
31    15    17    1
32    16    39    1
33    17    18    3
34    18    19    1
35    19    25    ar
36    19    20    ar
37    20    21    ar
38    20    40    1
39    21    22    ar
40    21    41    1
41    22    23    ar
42    22    42    1
43    23    24    1
44    23    25    ar
45    24    43    1
46    24    44    1
47    24    45    1
48    25    46    1
@<TRIPOS>SUBSTRUCTURE
1   ZINC000003817189 1     RESIDUE    1   A     ZIN   1
