@<TRIPOS>MOLECULE
ZINC000095930125
54    57    1     0     0
SMALL
USER_CHARGES
@<TRIPOS>ATOM
1      C1      1.9447    0.9883    1.0611 C.2      1 ZINC000095930125   -0.0800
2      C2      1.9528   -0.3327    0.9070 C.2      1 ZINC000095930125   -0.2300
3      C3      0.7078   -1.0419    0.5739 C.2      1 ZINC000095930125    0.5500
4      O4     -0.3474   -0.4380    0.5465 O.2      1 ZINC000095930125   -0.5400
5      N5      0.7366   -2.3610    0.2990 N.am     1 ZINC000095930125   -0.6100
6      C6     -0.4762   -3.0591   -0.1487 C.3      1 ZINC000095930125    0.1100
7      C7     -0.1680   -3.7928   -1.4577 C.3      1 ZINC000095930125   -0.1300
8      C8      1.0432   -4.7056   -1.2531 C.3      1 ZINC000095930125    0.0800
9      O9      1.3138   -5.4160   -2.4632 O.3      1 ZINC000095930125   -0.2900
10     C10     2.0103   -6.5788   -2.3539 C.ar     1 ZINC000095930125    0.1200
11     C11     2.2102   -7.3763   -3.4892 C.ar     1 ZINC000095930125    0.1700
12     O12     1.7060   -6.9792   -4.6865 O.3      1 ZINC000095930125   -0.3000
13     C13     1.9431   -7.8349   -5.8062 C.3      1 ZINC000095930125    0.0200
14     C14     2.9127   -8.5580   -3.4039 C.ar     1 ZINC000095930125   -0.1800
15     C15     3.4312   -8.9647   -2.1686 C.ar     1 ZINC000095930125    0.2000
16     N16     4.1231  -10.1069   -2.0324 N.ar     1 ZINC000095930125   -0.5300
17     C17     4.5972  -10.4618   -0.8620 C.ar     1 ZINC000095930125    0.3400
18     N18     4.4288   -9.7370    0.2326 N.ar     1 ZINC000095930125   -0.5800
19     C19     3.7606   -8.5911    0.2094 C.ar     1 ZINC000095930125    0.4600
20     N20     3.5931   -7.8452    1.3586 N.pl3    1 ZINC000095930125   -0.6300
21     C21     4.2419   -8.2241    2.5396 C.ar     1 ZINC000095930125    0.1500
22     C22     5.3836   -9.0115    2.4839 C.ar     1 ZINC000095930125   -0.0900
23     C23     6.0231   -9.3842    3.6508 C.ar     1 ZINC000095930125   -0.0800
24     C24     5.5274   -8.9739    4.8753 C.ar     1 ZINC000095930125   -0.0300
25     Cl25    6.3346   -9.4443    6.3384 Cl       1 ZINC000095930125   -0.0300
26     C26     4.3883   -8.1881    4.9362 C.ar     1 ZINC000095930125   -0.0500
27     Cl27    3.7691   -7.6751    6.4747 Cl       1 ZINC000095930125   -0.0200
28     C28     3.7469   -7.8076    3.7708 C.ar     1 ZINC000095930125    0.0800
29     F29     2.6361   -7.0408    3.8292 F        1 ZINC000095930125   -0.1200
30     C30     3.2246   -8.1536   -1.0252 C.ar     1 ZINC000095930125   -0.1800
31     C31     2.5122   -6.9540   -1.1400 C.ar     1 ZINC000095930125   -0.1500
32     C32     2.2621   -3.8614   -0.8740 C.3      1 ZINC000095930125   -0.1700
33     C33     1.9828   -3.1272    0.4357 C.3      1 ZINC000095930125    0.1100
34     H34     1.0241    1.5403    0.9417 H        1 ZINC000095930125    0.1200
35     H35     2.8579    1.5085    1.3101 H        1 ZINC000095930125    0.1200
36     H36     2.8733   -0.8847    1.0264 H        1 ZINC000095930125    0.1300
37     H37    -0.7848   -3.7786    0.6096 H        1 ZINC000095930125    0.0700
38     H38    -1.2742   -2.3353   -0.3148 H        1 ZINC000095930125    0.1000
39     H39    -1.0300   -4.3923   -1.7504 H        1 ZINC000095930125    0.0900
40     H40     0.0523   -3.0657   -2.2392 H        1 ZINC000095930125    0.0800
41     H41     0.8314   -5.4165   -0.4543 H        1 ZINC000095930125    0.0800
42     H42     1.4884   -7.4018   -6.6971 H        1 ZINC000095930125    0.1100
43     H43     3.0167   -7.9413   -5.9613 H        1 ZINC000095930125    0.0600
44     H44     1.5049   -8.8143   -5.6142 H        1 ZINC000095930125    0.0600
45     H45     3.0622   -9.1666   -4.2835 H        1 ZINC000095930125    0.1600
46     H46     5.1493  -11.3870   -0.7881 H        1 ZINC000095930125    0.2000
47     H47     3.0258   -7.0585    1.3478 H        1 ZINC000095930125    0.4200
48     H48     5.7719   -9.3330    1.5288 H        1 ZINC000095930125    0.1800
49     H49     6.9113   -9.9971    3.6067 H        1 ZINC000095930125    0.1600
50     H50     2.3566   -6.3302   -0.2722 H        1 ZINC000095930125    0.1400
51     H51     3.1297   -4.5097   -0.7513 H        1 ZINC000095930125    0.0800
52     H52     2.4596   -3.1336   -1.6610 H        1 ZINC000095930125    0.0900
53     H53     2.8073   -2.4497    0.6578 H        1 ZINC000095930125    0.1000
54     H54     1.8736   -3.8503    1.2439 H        1 ZINC000095930125    0.0700
@<TRIPOS>BOND
1     1     2     2
2     1     34    1
3     1     35    1
4     2     3     1
5     2     36    1
6     3     4     2
7     3     5     am
8     5     33    1
9     5     6     1
10    6     7     1
11    6     37    1
12    6     38    1
13    7     8     1
14    7     39    1
15    7     40    1
16    8     9     1
17    8     32    1
18    8     41    1
19    9     10    1
20    10    31    ar
21    10    11    ar
22    11    12    1
23    11    14    ar
24    12    13    1
25    13    42    1
26    13    43    1
27    13    44    1
28    14    15    ar
29    14    45    1
30    15    30    ar
31    15    16    ar
32    16    17    ar
33    17    18    ar
34    17    46    1
35    18    19    ar
36    19    20    1
37    19    30    ar
38    20    21    1
39    20    47    1
40    21    28    ar
41    21    22    ar
42    22    23    ar
43    22    48    1
44    23    24    ar
45    23    49    1
46    24    25    1
47    24    26    ar
48    26    27    1
49    26    28    ar
50    28    29    1
51    30    31    ar
52    31    50    1
53    32    33    1
54    32    51    1
55    32    52    1
56    33    53    1
57    33    54    1
@<TRIPOS>SUBSTRUCTURE
1   ZINC000095930125 1     RESIDUE    1   A     ZIN   1
