@<TRIPOS>MOLECULE
ZINC000003792322
  53   56    0    0    0
SMALL
USER_CHARGES
NO_NAME
@<TRIPOS>ATOM
    1 C1       -0.0167     1.3792     0.0096 C.ar   1 <0>      -0.1000
    2 C2        1.1683     2.0931     0.0021 C.ar   1 <0>      -0.1200
    3 C3        2.3774     1.4286    -0.0130 C.ar   1 <0>      -0.1000
    4 C4        2.4032     0.0335    -0.0208 C.ar   1 <0>      -0.0800
    5 C5        3.6950    -0.6848    -0.0365 C.2    1 <0>      -0.0500
    6 C6        4.4932    -0.5772     1.0037 C.2    1 <0>      -0.1900
    7 C7        5.8225    -1.2703     1.0882 C.3    1 <0>       0.0300
    8 N8        6.2695    -1.6845    -0.2468 N.4    1 <0>      -0.3900
    9 H9        6.4748    -0.8678    -0.8026 H      1 <0>       0.4200
   10 C10       7.4765    -2.5130    -0.1260 C.3    1 <0>      -0.0100
   11 C11       8.6204    -1.6685     0.4389 C.3    1 <0>      -0.1100
   12 H12       8.3105    -1.2149     1.3803 H      1 <0>       0.1000
   13 C13       8.9939    -0.5700    -0.5641 C.3    1 <0>      -0.1300
   14 C14      10.0014     0.3711     0.0997 C.3    1 <0>      -0.0900
   15 C15      11.1160    -0.4197     0.7203 C.2    1 <0>      -0.1400
   16 C16      11.0468    -1.7040     0.9742 C.2    1 <0>      -0.0800
   17 C17      12.2189    -2.3539     1.5978 C.ar   1 <0>      -0.0700
   18 C18      12.9383    -3.3224     0.8968 C.ar   1 <0>      -0.1100
   19 C19      14.0314    -3.9253     1.4845 C.ar   1 <0>      -0.1200
   20 C20      14.4142    -3.5718     2.7661 C.ar   1 <0>      -0.1100
   21 C21      13.7049    -2.6125     3.4665 C.ar   1 <0>      -0.1200
   22 C22      12.6139    -1.9973     2.8876 C.ar   1 <0>      -0.1100
   23 C23       9.8459    -2.5542     0.6738 C.3    1 <0>      -0.0700
   24 C24       5.1987    -2.4617    -0.8906 C.3    1 <0>       0.0000
   25 C25       4.0470    -1.5174    -1.2385 C.3    1 <0>      -0.1100
   26 C26       1.2045    -0.6806    -0.0131 C.ar   1 <0>      -0.1000
   27 C27       0.0021    -0.0041     0.0020 C.ar   1 <0>      -0.1100
   28 H28      -0.9604     1.9041     0.0260 H      1 <0>       0.1300
   29 H29       1.1469     3.1729     0.0078 H      1 <0>       0.1300
   30 H30       3.3018     1.9870    -0.0192 H      1 <0>       0.1200
   31 H31       4.1784     0.0375     1.8340 H      1 <0>       0.1500
   32 H32       6.5570    -0.5900     1.5194 H      1 <0>       0.1400
   33 H33       5.7310    -2.1491     1.7265 H      1 <0>       0.1400
   34 H34       7.2774    -3.3496     0.5438 H      1 <0>       0.1300
   35 H35       7.7562    -2.8930    -1.1086 H      1 <0>       0.1300
   36 H36       9.4418    -1.0199    -1.4501 H      1 <0>       0.0800
   37 H37       8.1010    -0.0115    -0.8449 H      1 <0>       0.0600
   38 H38      10.4121     1.0476    -0.6498 H      1 <0>       0.0900
   39 H39       9.4979     0.9531     0.8716 H      1 <0>       0.0800
   40 H40      12.0288     0.0998     0.9720 H      1 <0>       0.1100
   41 H41      12.6400    -3.5998    -0.1034 H      1 <0>       0.1200
   42 H42      14.5891    -4.6751     0.9431 H      1 <0>       0.1300
   43 H43      15.2703    -4.0469     3.2218 H      1 <0>       0.1300
   44 H44      14.0084    -2.3414     4.4669 H      1 <0>       0.1300
   45 H45      12.0612    -1.2484     3.4353 H      1 <0>       0.1200
   46 H46       9.6591    -3.2249     1.5125 H      1 <0>       0.0900
   47 H47      10.0360    -3.1442    -0.2228 H      1 <0>       0.0900
   48 H48       5.5798    -2.9262    -1.8000 H      1 <0>       0.1400
   49 H49       4.8422    -3.2308    -0.2054 H      1 <0>       0.1300
   50 H50       3.1800    -2.1010    -1.5481 H      1 <0>       0.1300
   51 H51       4.3506    -0.8590    -2.0524 H      1 <0>       0.1100
   52 H52       1.2178    -1.7605    -0.0194 H      1 <0>       0.1200
   53 H53      -0.9265    -0.5556     0.0079 H      1 <0>       0.1300
@<TRIPOS>BOND
   1    1   27 ar
   2    1    2 ar
   3    1   28 1
   4    2    3 ar
   5    2   29 1
   6    3    4 ar
   7    3   30 1
   8    4    5 1
   9    4   26 ar
  10    5   25 1
  11    5    6 2
  12    6    7 1
  13    6   31 1
  14    7    8 1
  15    7   32 1
  16    7   33 1
  17    8    9 1
  18    8   10 1
  19    8   24 1
  20   10   11 1
  21   10   34 1
  22   10   35 1
  23   11   12 1
  24   11   23 1
  25   11   13 1
  26   13   14 1
  27   13   36 1
  28   13   37 1
  29   14   15 1
  30   14   38 1
  31   14   39 1
  32   15   16 2
  33   15   40 1
  34   16   17 1
  35   16   23 1
  36   17   22 ar
  37   17   18 ar
  38   18   19 ar
  39   18   41 1
  40   19   20 ar
  41   19   42 1
  42   20   21 ar
  43   20   43 1
  44   21   22 ar
  45   21   44 1
  46   22   45 1
  47   23   46 1
  48   23   47 1
  49   24   25 1
  50   24   48 1
  51   24   49 1
  52   25   50 1
  53   25   51 1
  54   26   27 ar
  55   26   52 1
  56   27   53 1
