@<TRIPOS>MOLECULE
ZINC000002557133
21    20    1     0     0
SMALL
USER_CHARGES
@<TRIPOS>ATOM
1      C1      1.6846    2.0446   -0.0030 C.3      1 ZINC000002557133   -0.4900
2      S2     -0.0172    1.4168    0.0098 S.o      1 ZINC000002557133    1.2500
3      O3      0.0021   -0.0041    0.0020 O.2      1 ZINC000002557133   -0.8500
4      C4     -0.6870    2.0210   -1.5640 C.3      1 ZINC000002557133   -0.4500
5      C5     -2.1412    1.5676   -1.7070 C.3      1 ZINC000002557133   -0.1000
6      C6     -2.7062    2.0773   -3.0344 C.3      1 ZINC000002557133   -0.1200
7      C7     -4.1604    1.6238   -3.1774 C.3      1 ZINC000002557133    0.1000
8      N8     -4.7013    2.1118   -4.4484 N.2      1 ZINC000002557133   -0.5100
9      C9     -5.1205    1.3005   -5.3020 C.1      1 ZINC000002557133    0.2300
10     S10    -5.6414    0.2921   -6.3628 S.2      1 ZINC000002557133   -0.0300
11     H11     2.2142    1.6413   -0.8662 H        1 ZINC000002557133    0.0800
12     H12     1.6700    3.1329   -0.0618 H        1 ZINC000002557133    0.1100
13     H13     2.1924    1.7369    0.9111 H        1 ZINC000002557133    0.1100
14     H14    -0.6423    3.1100   -1.5837 H        1 ZINC000002557133    0.1200
15     H15    -0.0981    1.6183   -2.3880 H        1 ZINC000002557133    0.0900
16     H16    -2.1859    0.4787   -1.6873 H        1 ZINC000002557133    0.0700
17     H17    -2.7301    1.9704   -0.8829 H        1 ZINC000002557133    0.0800
18     H18    -2.6615    3.1662   -3.0541 H        1 ZINC000002557133    0.0800
19     H19    -2.1173    1.6745   -3.8585 H        1 ZINC000002557133    0.0700
20     H20    -4.2051    0.5349   -3.1577 H        1 ZINC000002557133    0.0700
21     H21    -4.7493    2.0266   -2.3534 H        1 ZINC000002557133    0.1000
@<TRIPOS>BOND
1     1     2     1
2     1     11    1
3     1     12    1
4     1     13    1
5     2     3     2
6     2     4     1
7     4     5     1
8     4     14    1
9     4     15    1
10    5     6     1
11    5     16    1
12    5     17    1
13    6     7     1
14    6     18    1
15    6     19    1
16    7     8     1
17    7     20    1
18    7     21    1
19    8     9     2
20    9     10    2
@<TRIPOS>SUBSTRUCTURE
1   ZINC000002557133 1     RESIDUE    1   A     ZIN   1
