@<TRIPOS>MOLECULE
ZINC000084726167
80    85    1     0     0
SMALL
USER_CHARGES
@<TRIPOS>ATOM
1      C1     -0.0211    1.4263    0.0016 C.3      1 ZINC000084726167    0.0300
2      O2     -0.0010   -0.0025   -0.0048 O.3      1 ZINC000084726167   -0.3200
3      C3      0.6024   -0.6060   -1.0616 C.ar     1 ZINC000084726167    0.1200
4      C4      1.1845    0.1613   -2.0645 C.ar     1 ZINC000084726167   -0.1900
5      C5      1.7658   -0.4613   -3.1446 C.ar     1 ZINC000084726167   -0.0700
6      C6      1.7696   -1.8489   -3.2746 C.ar     1 ZINC000084726167   -0.0100
7      C7      2.2394   -2.4611   -4.5294 C.2      1 ZINC000084726167    0.0900
8      C8      2.0987   -1.9374   -5.7867 C.2      1 ZINC000084726167   -0.1300
9      C9      1.4427   -0.6374   -6.1786 C.3      1 ZINC000084726167   -0.0100
10     C10     2.4650    0.2584   -6.8809 C.3      1 ZINC000084726167   -0.1100
11     C11     1.7994    1.5774   -7.2786 C.3      1 ZINC000084726167   -0.1200
12     C12     0.6326    1.2943   -8.2270 C.3      1 ZINC000084726167   -0.1200
13     C13    -0.3897    0.3985   -7.5246 C.3      1 ZINC000084726167   -0.1200
14     C14     0.2759   -0.9205   -7.1270 C.3      1 ZINC000084726167   -0.1100
15     C15     2.6449   -2.8445   -6.7084 C.ar     1 ZINC000084726167   -0.0900
16     C16     2.8735   -2.7646   -8.0925 C.ar     1 ZINC000084726167   -0.1000
17     C17     3.3075   -3.9018   -8.7321 C.ar     1 ZINC000084726167   -0.1000
18     C18     3.5189   -5.0874   -8.0316 C.ar     1 ZINC000084726167   -0.0700
19     C19     3.4048   -5.1520   -6.6269 C.ar     1 ZINC000084726167   -0.0500
20     C20     2.9941   -4.0058   -5.9710 C.ar     1 ZINC000084726167    0.0900
21     N21     2.8573   -3.6894   -4.6495 N.pl3    1 ZINC000084726167   -0.4600
22     C22     3.3095   -4.4827   -3.5017 C.3      1 ZINC000084726167    0.1400
23     C23     2.1085   -4.9516   -2.6872 C.2      1 ZINC000084726167   -0.1300
24     C24     1.2946   -4.0906   -2.1397 C.2      1 ZINC000084726167   -0.0400
25     C25     1.2634   -2.6375   -2.2234 C.ar     1 ZINC000084726167   -0.0200
26     C26     0.6580   -1.9817   -1.1320 C.ar     1 ZINC000084726167   -0.1400
27     C27     2.0149   -6.3929   -2.6108 C.2      1 ZINC000084726167    0.5200
28     O28     2.9630   -6.9843   -3.1381 O.2      1 ZINC000084726167   -0.5200
29     N29     1.0931   -7.2254   -2.0954 N.am     1 ZINC000084726167   -0.6100
30     C30    -0.1649   -6.8519   -1.4475 C.3      1 ZINC000084726167    0.0800
31     C31     1.4777   -8.6686   -2.2551 C.3      1 ZINC000084726167    0.1200
32     C32     1.0668   -9.1112   -3.6589 C.3      1 ZINC000084726167    0.0600
33     O33     2.1455   -9.7892   -4.3072 O.3      1 ZINC000084726167   -0.3800
34     C34     1.9098  -10.0343   -5.6977 C.3      1 ZINC000084726167    0.0600
35     C35     3.2373  -10.2437   -6.4272 C.3      1 ZINC000084726167    0.1300
36     N36     3.0422   -9.9843   -7.8792 N.am     1 ZINC000084726167   -1.0000
37     C37     1.9606  -10.6016   -8.6527 C.3      1 ZINC000084726167    0.1100
38     S38     4.1522   -8.9368   -8.5766 S.o2     1 ZINC000084726167    2.6800
39     O39     5.4382   -9.3420   -8.1267 O.2      1 ZINC000084726167   -1.0300
40     O40     3.8007   -8.8324   -9.9499 O.2      1 ZINC000084726167   -1.0200
41     N41     3.8393   -7.4537   -7.8778 N.pl3    1 ZINC000084726167   -1.0800
42     C42     3.8758   -6.3542   -8.7133 C.2      1 ZINC000084726167    0.5400
43     O43     4.1758   -6.4089   -9.8925 O.2      1 ZINC000084726167   -0.5900
44     H44     1.0013    1.8041   -0.0068 H        1 ZINC000084726167    0.0600
45     H45    -0.5487    1.7862   -0.8816 H        1 ZINC000084726167    0.0600
46     H46    -0.5312    1.7784    0.8982 H        1 ZINC000084726167    0.1000
47     H47     1.1798    1.2388   -1.9982 H        1 ZINC000084726167    0.1400
48     H48     2.2644    0.1571   -3.8777 H        1 ZINC000084726167    0.1400
49     H49     1.0713   -0.1342   -5.2858 H        1 ZINC000084726167    0.0700
50     H50     3.2962    0.4601   -6.2053 H        1 ZINC000084726167    0.0600
51     H51     2.8363   -0.2448   -7.7737 H        1 ZINC000084726167    0.0700
52     H52     1.4280    2.0806   -6.3858 H        1 ZINC000084726167    0.0600
53     H53     2.5277    2.2156   -7.7789 H        1 ZINC000084726167    0.0600
54     H54     0.1584    2.2339   -8.5102 H        1 ZINC000084726167    0.0600
55     H55     1.0040    0.7911   -9.1197 H        1 ZINC000084726167    0.0600
56     H56    -0.7610    0.9017   -6.6319 H        1 ZINC000084726167    0.0600
57     H57    -1.2209    0.1968   -8.2003 H        1 ZINC000084726167    0.0600
58     H58     0.6473   -1.4237   -8.0198 H        1 ZINC000084726167    0.0700
59     H59    -0.4524   -1.5587   -6.6266 H        1 ZINC000084726167    0.0600
60     H60     2.7171   -1.8445   -8.6362 H        1 ZINC000084726167    0.1200
61     H61     3.4912   -3.8756   -9.7962 H        1 ZINC000084726167    0.1200
62     H62     3.6309   -6.0566   -6.0820 H        1 ZINC000084726167    0.1600
63     H63     3.8794   -5.3377   -3.8508 H        1 ZINC000084726167    0.1300
64     H64     3.9405   -3.8616   -2.8629 H        1 ZINC000084726167    0.0900
65     H65     0.5293   -4.4891   -1.4951 H        1 ZINC000084726167    0.1200
66     H66     0.2280   -2.5700   -0.3348 H        1 ZINC000084726167    0.1300
67     H67    -0.7438   -6.2160   -2.1173 H        1 ZINC000084726167    0.0600
68     H68    -0.7358   -7.7514   -1.2168 H        1 ZINC000084726167    0.0800
69     H69     0.0478   -6.3102   -0.5259 H        1 ZINC000084726167    0.0600
70     H70     2.5488   -8.7827   -2.1212 H        1 ZINC000084726167    0.1100
71     H71     0.9455   -9.2622   -1.5119 H        1 ZINC000084726167    0.0800
72     H72     0.2102   -9.7818   -3.5892 H        1 ZINC000084726167    0.0400
73     H73     0.7900   -8.2356   -4.2471 H        1 ZINC000084726167    0.0500
74     H74     1.2921  -10.9266   -5.8013 H        1 ZINC000084726167    0.0400
75     H75     1.3878   -9.1792   -6.1267 H        1 ZINC000084726167    0.0600
76     H76     3.9841   -9.5552   -6.0304 H        1 ZINC000084726167    0.1000
77     H77     3.5762  -11.2702   -6.2821 H        1 ZINC000084726167    0.0600
78     H78     1.0794   -9.9609   -8.6203 H        1 ZINC000084726167    0.0400
79     H79     2.2800  -10.7280   -9.6871 H        1 ZINC000084726167    0.0700
80     H80     1.7181  -11.5747   -8.2258 H        1 ZINC000084726167    0.0500
@<TRIPOS>BOND
1     1     2     1
2     1     44    1
3     1     45    1
4     1     46    1
5     2     3     1
6     3     26    ar
7     3     4     ar
8     4     5     ar
9     4     47    1
10    5     6     ar
11    5     48    1
12    6     25    ar
13    6     7     1
14    7     21    1
15    7     8     2
16    8     9     1
17    8     15    1
18    9     14    1
19    9     10    1
20    9     49    1
21    10    11    1
22    10    50    1
23    10    51    1
24    11    12    1
25    11    52    1
26    11    53    1
27    12    13    1
28    12    54    1
29    12    55    1
30    13    14    1
31    13    56    1
32    13    57    1
33    14    58    1
34    14    59    1
35    15    20    ar
36    15    16    ar
37    16    17    ar
38    16    60    1
39    17    18    ar
40    17    61    1
41    18    42    1
42    18    19    ar
43    19    20    ar
44    19    62    1
45    20    21    1
46    21    22    1
47    22    23    1
48    22    63    1
49    22    64    1
50    23    24    2
51    23    27    1
52    24    25    1
53    24    65    1
54    25    26    ar
55    26    66    1
56    27    28    2
57    27    29    am
58    29    30    1
59    29    31    1
60    30    67    1
61    30    68    1
62    30    69    1
63    31    32    1
64    31    70    1
65    31    71    1
66    32    33    1
67    32    72    1
68    32    73    1
69    33    34    1
70    34    35    1
71    34    74    1
72    34    75    1
73    35    36    1
74    35    76    1
75    35    77    1
76    36    37    1
77    36    38    am
78    37    78    1
79    37    79    1
80    37    80    1
81    38    39    2
82    38    40    2
83    38    41    1
84    41    42    1
85    42    43    2
@<TRIPOS>SUBSTRUCTURE
1   ZINC000084726167 1     RESIDUE    1   A     ZIN   1
