@<TRIPOS>MOLECULE
ZINC000000164395
  20   20    0    0    0
SMALL
USER_CHARGES
NO_NAME
@<TRIPOS>ATOM
    1 N1       -0.0116     1.0048     0.0076 N.4    1 <0>      -0.6400
    2 H2        0.0021    -0.0041     0.0020 H      1 <0>       0.4300
    3 H3        0.9350     1.3541     0.0004 H      1 <0>       0.4400
    4 H4       -0.4996     1.3391    -0.8099 H      1 <0>       0.4400
    5 C5       -0.6992     1.4786     1.2162 C.3    1 <0>       0.0000
    6 C6        0.0408     0.9717     2.4557 C.3    1 <0>      -0.0900
    7 C7       -0.6646     1.4577     3.6956 C.ar   1 <0>       0.1000
    8 C8       -1.0688     0.5467     4.6527 C.ar   1 <0>      -0.1600
    9 C9       -1.7167     1.0043     5.7902 C.ar   1 <0>      -0.0700
   10 C10      -1.9343     2.3670     5.9224 C.ar   1 <0>      -0.1600
   11 C11      -1.5015     3.2183     4.9231 C.ar   1 <0>       0.1100
   12 N12      -0.8841     2.7481     3.8571 N.ar   1 <0>      -0.4900
   13 H13      -0.7140     2.5685     1.2222 H      1 <0>       0.1400
   14 H14      -1.7218     1.1013     1.2239 H      1 <0>       0.1300
   15 H15       0.0556    -0.1181     2.4497 H      1 <0>       0.1000
   16 H16       1.0634     1.3490     2.4480 H      1 <0>       0.1000
   17 H17      -0.8829    -0.5084     4.5165 H      1 <0>       0.1400
   18 H18      -2.0442     0.3154     6.5548 H      1 <0>       0.1400
   19 H19      -2.4361     2.7585     6.7950 H      1 <0>       0.1500
   20 H20      -1.6675     4.2812     5.0184 H      1 <0>       0.1700
@<TRIPOS>BOND
   1    1    2 1
   2    1    3 1
   3    1    4 1
   4    1    5 1
   5    5    6 1
   6    5   13 1
   7    5   14 1
   8    6    7 1
   9    6   15 1
  10    6   16 1
  11    7   12 ar
  12    7    8 ar
  13    8    9 ar
  14    8   17 1
  15    9   10 ar
  16    9   18 1
  17   10   11 ar
  18   10   19 1
  19   11   12 ar
  20   11   20 1
