@<TRIPOS>MOLECULE
ZINC000003948738
  58   57    0    0    0
SMALL
USER_CHARGES
NO_NAME
@<TRIPOS>ATOM
    1 C1       -0.0187     1.5258     0.0104 C.3    1 <0>      -0.1200
    2 C2        0.0021    -0.0041     0.0020 C.3    1 <0>      -0.1400
    3 C3        0.7421    -0.5109     1.2415 C.3    1 <0>      -0.1200
    4 C4       -1.4333    -0.5336     0.0129 C.3    1 <0>      -0.0800
    5 C5       -2.1494    -0.0402     1.2717 C.3    1 <0>      -0.1200
    6 C6       -3.5848    -0.5698     1.2825 C.3    1 <0>      -0.1200
    7 C7       -4.3010    -0.0764     2.5413 C.3    1 <0>      -0.1100
    8 C8       -5.7364    -0.6060     2.5522 C.3    1 <0>      -0.1500
    9 C9       -6.4525    -0.1126     3.8110 C.3    1 <0>       0.1100
   10 O10      -6.5749     1.3104     3.7626 O.3    1 <0>      -0.5600
   11 C11      -7.8450    -0.7420     3.8854 C.3    1 <0>      -0.1500
   12 C12      -8.5130    -0.3481     5.2043 C.3    1 <0>      -0.1100
   13 C13      -9.9055    -0.9775     5.2787 C.3    1 <0>      -0.1200
   14 C14     -10.5735    -0.5836     6.5976 C.3    1 <0>      -0.1200
   15 C15     -11.9660    -1.2130     6.6720 C.3    1 <0>      -0.0800
   16 C16     -12.6340    -0.8191     7.9909 C.3    1 <0>      -0.1400
   17 C17     -11.7852    -1.3189     9.1616 C.3    1 <0>      -0.1100
   18 C18     -12.7582     0.7041     8.0647 C.3    1 <0>      -0.1200
   19 C19     -14.0056    -1.4390     8.0641 C.2    1 <0>       0.5000
   20 O20     -14.4840    -1.7346     9.1459 O.co2  1 <0>      -0.7000
   21 O21     -14.6369    -1.6451     7.0416 O.co2  1 <0>      -0.7000
   22 C22       0.7074    -0.4901    -1.2379 C.2    1 <0>       0.5000
   23 O23       1.8687    -0.1786    -1.4402 O.co2  1 <0>      -0.7000
   24 O24       0.1168    -1.1947    -2.0386 O.co2  1 <0>      -0.7000
   25 H25       1.0039     1.9031     0.0027 H      1 <0>       0.0500
   26 H26      -0.5459     1.8868    -0.8726 H      1 <0>       0.0400
   27 H27      -0.5289     1.8773     0.9072 H      1 <0>       0.0400
   28 H28       0.2319    -0.1594     2.1383 H      1 <0>       0.0400
   29 H29       0.7568    -1.6008     1.2356 H      1 <0>       0.0400
   30 H30       1.7647    -0.1336     1.2338 H      1 <0>       0.0500
   31 H31      -1.9605    -0.1726    -0.8702 H      1 <0>       0.0500
   32 H32      -1.4185    -1.6235     0.0069 H      1 <0>       0.0500
   33 H33      -1.6223    -0.4013     2.1547 H      1 <0>       0.0600
   34 H34      -2.1642     1.0497     1.2777 H      1 <0>       0.0600
   35 H35      -4.1120    -0.2087     0.3995 H      1 <0>       0.0600
   36 H36      -3.5700    -1.6597     1.2765 H      1 <0>       0.0600
   37 H37      -3.7738    -0.4375     3.4244 H      1 <0>       0.0600
   38 H38      -4.3157     1.0135     2.5473 H      1 <0>       0.0700
   39 H39      -6.2635    -0.2449     1.6691 H      1 <0>       0.0600
   40 H40      -5.7216    -1.6959     2.5462 H      1 <0>       0.0700
   41 H41      -5.8772    -0.3980     4.6918 H      1 <0>       0.1000
   42 H42      -7.0763     1.6364     3.0027 H      1 <0>       0.3700
   43 H43      -8.4497    -0.3859     3.0513 H      1 <0>       0.0600
   44 H44      -7.7566    -1.8271     3.8328 H      1 <0>       0.0700
   45 H45      -7.9083    -0.7041     6.0384 H      1 <0>       0.0600
   46 H46      -8.6015     0.7371     5.2569 H      1 <0>       0.0700
   47 H47     -10.5102    -0.6214     4.4446 H      1 <0>       0.0600
   48 H48      -9.8171    -2.0626     5.2261 H      1 <0>       0.0600
   49 H49      -9.9688    -0.9396     7.4317 H      1 <0>       0.0600
   50 H50     -10.6620     0.5016     6.6502 H      1 <0>       0.0600
   51 H51     -12.5707    -0.8569     5.8379 H      1 <0>       0.0600
   52 H52     -11.8776    -2.2981     6.6194 H      1 <0>       0.0500
   53 H53     -10.7932    -0.8705     9.1087 H      1 <0>       0.0400
   54 H54     -12.2611    -1.0382    10.1013 H      1 <0>       0.0500
   55 H55     -11.6968    -2.4040     9.1091 H      1 <0>       0.0400
   56 H56     -13.3629     1.0602     7.2306 H      1 <0>       0.0500
   57 H57     -13.2340     0.9847     9.0043 H      1 <0>       0.0400
   58 H58     -11.7661     1.1525     8.0117 H      1 <0>       0.0400
@<TRIPOS>BOND
   1    1    2 1
   2    1   25 1
   3    1   26 1
   4    1   27 1
   5    2    3 1
   6    2    4 1
   7    2   22 1
   8    3   28 1
   9    3   29 1
  10    3   30 1
  11    4    5 1
  12    4   31 1
  13    4   32 1
  14    5    6 1
  15    5   33 1
  16    5   34 1
  17    6    7 1
  18    6   35 1
  19    6   36 1
  20    7    8 1
  21    7   37 1
  22    7   38 1
  23    8    9 1
  24    8   39 1
  25    8   40 1
  26    9   10 1
  27    9   11 1
  28    9   41 1
  29   10   42 1
  30   11   12 1
  31   11   43 1
  32   11   44 1
  33   12   13 1
  34   12   45 1
  35   12   46 1
  36   13   14 1
  37   13   47 1
  38   13   48 1
  39   14   15 1
  40   14   49 1
  41   14   50 1
  42   15   16 1
  43   15   51 1
  44   15   52 1
  45   16   17 1
  46   16   18 1
  47   16   19 1
  48   17   53 1
  49   17   54 1
  50   17   55 1
  51   18   56 1
  52   18   57 1
  53   18   58 1
  54   19   20 ar
  55   19   21 ar
  56   22   23 ar
  57   22   24 ar
