@<TRIPOS>MOLECULE
ZINC000115922684
43    46    1     0     0
SMALL
USER_CHARGES
@<TRIPOS>ATOM
1      N1     -0.0168    1.3860    0.0097 N.pl3    1 ZINC000115922684   -0.8500
2      C2      0.0021   -0.0041    0.0020 C.ar     1 ZINC000115922684    0.4100
3      C3     -1.2000   -0.7065    0.0040 C.ar     1 ZINC000115922684   -0.2400
4      C4     -1.1753   -2.0865   -0.0036 C.ar     1 ZINC000115922684   -0.0100
5      C5      0.0714   -2.7308   -0.0131 C.ar     1 ZINC000115922684   -0.1000
6      C6      0.1505   -4.1606   -0.0218 C.1      1 ZINC000115922684   -0.1000
7      C7      0.2154   -5.3328   -0.0288 C.1      1 ZINC000115922684   -0.0900
8      C8      0.2945   -6.7626   -0.0375 C.2      1 ZINC000115922684   -0.1000
9      C9     -0.7885   -7.6599   -0.0437 C.2      1 ZINC000115922684    0.2900
10     N10    -2.1085   -7.4768   -0.0441 N.2      1 ZINC000115922684   -0.4200
11     C11    -2.9349   -8.5095   -0.0513 C.2      1 ZINC000115922684    0.2500
12     C12    -4.3992   -8.2866   -0.0520 C.ar     1 ZINC000115922684   -0.0400
13     C13    -5.2730   -9.3738   -0.0539 C.ar     1 ZINC000115922684   -0.0900
14     C14    -6.6361   -9.1596   -0.0546 C.ar     1 ZINC000115922684   -0.0700
15     C15    -7.1365   -7.8698   -0.0535 C.ar     1 ZINC000115922684   -0.1600
16     C16    -8.6264   -7.6430   -0.0537 C.3      1 ZINC000115922684    0.5100
17     F17    -9.0879   -7.5741    1.2652 F        1 ZINC000115922684   -0.1700
18     F18    -8.9152   -6.4429   -0.7121 F        1 ZINC000115922684   -0.1700
19     F19    -9.2591   -8.7014   -0.7145 F        1 ZINC000115922684   -0.1700
20     C20    -6.2749   -6.7874   -0.0516 C.ar     1 ZINC000115922684   -0.0700
21     C21    -4.9099   -6.9886   -0.0451 C.ar     1 ZINC000115922684   -0.0600
22     C22    -2.4206   -9.8250   -0.0588 C.2      1 ZINC000115922684   -0.1500
23     C23    -1.0809  -10.0121   -0.0585 C.2      1 ZINC000115922684    0.1000
24     C24    -0.5059  -11.4051   -0.0670 C.3      1 ZINC000115922684    0.5300
25     F25    -1.5473  -12.3393   -0.0742 F        1 ZINC000115922684   -0.1600
26     F26     0.2829  -11.5771   -1.2095 F        1 ZINC000115922684   -0.1500
27     F27     0.2803  -11.5920    1.0750 F        1 ZINC000115922684   -0.1500
28     N28    -0.2541   -8.9227   -0.0509 N.pl3    1 ZINC000115922684   -0.3000
29     N29     1.1400   -8.8014   -0.0487 N.2      1 ZINC000115922684   -0.2800
30     C30     1.4671   -7.5331   -0.0474 C.2      1 ZINC000115922684    0.1300
31     C31     1.2336   -1.9566   -0.0145 C.ar     1 ZINC000115922684    0.1800
32     N32     1.1635   -0.6411   -0.0125 N.ar     1 ZINC000115922684   -0.5400
33     H33     0.8166    1.8824    0.0044 H        1 ZINC000115922684    0.4100
34     H34    -0.8633    1.8596    0.0163 H        1 ZINC000115922684    0.4100
35     H35    -2.1415   -0.1774    0.0118 H        1 ZINC000115922684    0.1400
36     H36    -2.0927   -2.6564   -0.0019 H        1 ZINC000115922684    0.1400
37     H37    -4.8835  -10.3811   -0.0551 H        1 ZINC000115922684    0.1400
38     H38    -7.3137  -10.0006   -0.0564 H        1 ZINC000115922684    0.1500
39     H39    -6.6716   -5.7828   -0.0511 H        1 ZINC000115922684    0.1500
40     H40    -4.2383   -6.1428   -0.0433 H        1 ZINC000115922684    0.1500
41     H41    -3.0899  -10.6725   -0.0644 H        1 ZINC000115922684    0.1900
42     H42     2.4746   -7.1440   -0.0459 H        1 ZINC000115922684    0.2200
43     H43     2.1990   -2.4409   -0.0218 H        1 ZINC000115922684    0.1600
@<TRIPOS>BOND
1     1     2     1
2     1     33    1
3     1     34    1
4     2     32    ar
5     2     3     ar
6     3     4     ar
7     3     35    1
8     4     5     ar
9     4     36    1
10    5     6     1
11    5     31    ar
12    6     7     3
13    7     8     1
14    8     30    1
15    8     9     2
16    9     28    1
17    9     10    1
18    10    11    2
19    11    12    1
20    11    22    1
21    12    21    ar
22    12    13    ar
23    13    14    ar
24    13    37    1
25    14    15    ar
26    14    38    1
27    15    16    1
28    15    20    ar
29    16    17    1
30    16    18    1
31    16    19    1
32    20    21    ar
33    20    39    1
34    21    40    1
35    22    23    2
36    22    41    1
37    23    24    1
38    23    28    1
39    24    25    1
40    24    26    1
41    24    27    1
42    28    29    1
43    29    30    2
44    30    42    1
45    31    32    ar
46    31    43    1
@<TRIPOS>SUBSTRUCTURE
1   ZINC000115922684 1     RESIDUE    1   A     ZIN   1
