@<TRIPOS>MOLECULE
ZINC000000006562
  31   32    0    0    0
SMALL
USER_CHARGES
NO_NAME
@<TRIPOS>ATOM
    1 C1       -0.0184     1.5028     0.0103 C.3    1 <0>      -0.1000
    2 C2        0.0021    -0.0041     0.0020 C.ar   1 <0>       0.1200
    3 N3        0.0055    -0.6500    -1.1470 N.ar   1 <0>      -0.4500
    4 C4        0.0235    -1.9675    -1.2031 C.ar   1 <0>       0.0900
    5 C5        0.0397    -2.7266    -0.0482 C.ar   1 <0>      -0.1400
    6 C6        0.0368    -2.0878     1.1815 C.ar   1 <0>      -0.1500
    7 C7        0.0229    -0.6970     1.2039 C.ar   1 <0>       0.0600
    8 O8        0.0195    -0.0267     2.3862 O.3    1 <0>      -0.3200
    9 C9        0.0308    -0.8142     3.5785 C.3    1 <0>       0.0300
   10 C10       0.0250     0.1083     4.7991 C.3    1 <0>       0.0300
   11 H11      -0.0683    -0.4829     5.7101 H      1 <0>       0.1600
   12 C12      -1.1484     1.1054     4.6980 C.3    1 <0>      -0.1400
   13 C13      -0.5396     2.4192     5.2550 C.3    1 <0>      -0.1400
   14 C14       0.9181     2.3324     4.7380 C.3    1 <0>      -0.0100
   15 N15       1.2705     0.8965     4.8380 N.4    1 <0>      -0.5100
   16 H16       1.7571     0.7259     5.7053 H      1 <0>       0.4300
   17 H17       1.8588     0.6363     4.0607 H      1 <0>       0.4300
   18 H18       1.0042     1.8801     0.0026 H      1 <0>       0.0800
   19 H19      -0.5455     1.8639    -0.8728 H      1 <0>       0.0800
   20 H20      -0.5286     1.8543     0.9071 H      1 <0>       0.0700
   21 H21       0.0254    -2.4598    -2.1643 H      1 <0>       0.1700
   22 H22       0.0541    -3.8051    -0.1036 H      1 <0>       0.1500
   23 H23       0.0488    -2.6558     2.1000 H      1 <0>       0.1400
   24 H24      -0.8527    -1.4522     3.6010 H      1 <0>       0.1100
   25 H25       0.9272    -1.4342     3.5959 H      1 <0>       0.0900
   26 H26      -1.4571     1.2333     3.6604 H      1 <0>       0.1100
   27 H27      -1.9865     0.7779     5.3130 H      1 <0>       0.1100
   28 H28      -1.0486     3.2907     4.8433 H      1 <0>       0.1200
   29 H29      -0.5674     2.4312     6.3446 H      1 <0>       0.1000
   30 H30       0.9739     2.6668     3.7021 H      1 <0>       0.1400
   31 H31       1.5797     2.9286     5.3664 H      1 <0>       0.1400
@<TRIPOS>BOND
   1    1    2 1
   2    1   18 1
   3    1   19 1
   4    1   20 1
   5    2    7 ar
   6    2    3 ar
   7    3    4 ar
   8    4    5 ar
   9    4   21 1
  10    5    6 ar
  11    5   22 1
  12    6    7 ar
  13    6   23 1
  14    7    8 1
  15    8    9 1
  16    9   10 1
  17    9   24 1
  18    9   25 1
  19   10   11 1
  20   10   15 1
  21   10   12 1
  22   12   13 1
  23   12   26 1
  24   12   27 1
  25   13   14 1
  26   13   28 1
  27   13   29 1
  28   14   15 1
  29   14   30 1
  30   14   31 1
  31   15   16 1
  32   15   17 1




