@<TRIPOS>MOLECULE
ZINC000043207440
59    62    1     0     0
SMALL
USER_CHARGES
@<TRIPOS>ATOM
1      C1     -2.7022   -0.3919   -0.6256 C.3      1 ZINC000043207440    0.0200
2      O2     -1.4498   -1.0108   -0.3251 O.3      1 ZINC000043207440   -0.3000
3      C3     -0.7633   -1.5507   -1.3655 C.ar     1 ZINC000043207440    0.1700
4      C4      0.4694   -2.1770   -1.1325 C.ar     1 ZINC000043207440    0.1100
5      O5      0.9641   -2.2375    0.1326 O.3      1 ZINC000043207440   -0.3000
6      C6      2.2244   -2.8884    0.3059 C.3      1 ZINC000043207440    0.0200
7      C7      1.1786   -2.7273   -2.1618 C.ar     1 ZINC000043207440   -0.1300
8      C8      0.6698   -2.6659   -3.4653 C.ar     1 ZINC000043207440   -0.1500
9      C9     -0.5759   -2.0343   -3.7083 C.ar     1 ZINC000043207440    0.2000
10     C10    -1.2883   -1.4819   -2.6368 C.ar     1 ZINC000043207440   -0.1900
11     N11    -1.0411   -1.9895   -4.9660 N.ar     1 ZINC000043207440   -0.5300
12     C12    -0.3529   -2.5212   -5.9478 C.ar     1 ZINC000043207440    0.3400
13     N13     0.8138   -3.1204   -5.7667 N.ar     1 ZINC000043207440   -0.5700
14     C14     1.3627   -3.2195   -4.5654 C.ar     1 ZINC000043207440    0.4000
15     O15     2.5561   -3.8345   -4.3960 O.3      1 ZINC000043207440   -0.2400
16     C16     3.1227   -4.4359   -5.4748 C.ar     1 ZINC000043207440    0.1000
17     C17     3.7247   -3.6677   -6.4615 C.ar     1 ZINC000043207440   -0.1200
18     C18     4.3013   -4.2780   -7.5593 C.ar     1 ZINC000043207440   -0.0900
19     C19     4.2805   -5.6540   -7.6781 C.ar     1 ZINC000043207440   -0.1300
20     C20     3.6789   -6.4281   -6.6937 C.ar     1 ZINC000043207440    0.1700
21     N21     3.6578   -7.8221   -6.8140 N.am     1 ZINC000043207440   -0.6700
22     C22     2.5940   -8.5208   -6.3705 C.2      1 ZINC000043207440    0.7200
23     O23     1.6906   -7.9499   -5.7908 O.2      1 ZINC000043207440   -0.5400
24     N24     2.5318   -9.8523   -6.5695 N.am     1 ZINC000043207440   -0.6400
25     C25     1.4310  -10.5754   -6.1104 C.2      1 ZINC000043207440    0.2700
26     N26     1.2349  -11.8628   -6.2240 N.2      1 ZINC000043207440   -0.3800
27     O27     0.1850  -12.1963   -5.7254 O.3      1 ZINC000043207440    0.1200
28     C28    -0.4710  -11.1504   -5.2023 C.2      1 ZINC000043207440   -0.0300
29     C29    -1.8053  -11.1829   -4.5025 C.3      1 ZINC000043207440   -0.0200
30     C30    -2.3287  -12.6202   -4.4690 C.3      1 ZINC000043207440   -0.1600
31     C31    -1.6435  -10.6656   -3.0717 C.3      1 ZINC000043207440   -0.1500
32     C32    -2.7982  -10.2959   -5.2563 C.3      1 ZINC000043207440    0.4600
33     F33    -2.9461  -10.7690   -6.5646 F        1 ZINC000043207440   -0.1800
34     F34    -4.0369  -10.3261   -4.6067 F        1 ZINC000043207440   -0.1700
35     F35    -2.3195   -8.9817   -5.2870 F        1 ZINC000043207440   -0.1700
36     C36     0.3009  -10.0616   -5.4203 C.2      1 ZINC000043207440   -0.1900
37     C37     3.1049   -5.8176   -5.5878 C.ar     1 ZINC000043207440   -0.1100
38     H38    -2.5438    0.4264   -1.3280 H        1 ZINC000043207440    0.0600
39     H39    -3.3736   -1.1270   -1.0695 H        1 ZINC000043207440    0.0600
40     H40    -3.1446   -0.0029    0.2915 H        1 ZINC000043207440    0.1100
41     H41     2.1481   -3.9230   -0.0285 H        1 ZINC000043207440    0.0600
42     H42     2.9839   -2.3719   -0.2811 H        1 ZINC000043207440    0.0600
43     H43     2.5027   -2.8668    1.3596 H        1 ZINC000043207440    0.1100
44     H44     2.1273   -3.2071   -1.9716 H        1 ZINC000043207440    0.1500
45     H45    -2.2385   -0.9977   -2.8073 H        1 ZINC000043207440    0.1600
46     H46    -0.7560   -2.4682   -6.9484 H        1 ZINC000043207440    0.2000
47     H47     3.7422   -2.5916   -6.3716 H        1 ZINC000043207440    0.1300
48     H48     4.7688   -3.6779   -8.3259 H        1 ZINC000043207440    0.1400
49     H49     4.7318   -6.1285   -8.5369 H        1 ZINC000043207440    0.1300
50     H50     4.4088   -8.2855   -7.2167 H        1 ZINC000043207440    0.4100
51     H51     3.2526  -10.3078   -7.0319 H        1 ZINC000043207440    0.4200
52     H52    -1.6214  -13.2521   -3.9319 H        1 ZINC000043207440    0.0900
53     H53    -3.2938  -12.6436   -3.9628 H        1 ZINC000043207440    0.0800
54     H54    -2.4440  -12.9887   -5.4883 H        1 ZINC000043207440    0.0800
55     H55    -1.2705   -9.6416   -3.0956 H        1 ZINC000043207440    0.0800
56     H56    -2.6086  -10.6890   -2.5656 H        1 ZINC000043207440    0.0900
57     H57    -0.9361  -11.2975   -2.5347 H        1 ZINC000043207440    0.0900
58     H58     0.1016   -9.0378   -5.1398 H        1 ZINC000043207440    0.2000
59     H59     2.6366   -6.4171   -4.8211 H        1 ZINC000043207440    0.1500
@<TRIPOS>BOND
1     1     2     1
2     1     38    1
3     1     39    1
4     1     40    1
5     2     3     1
6     3     10    ar
7     3     4     ar
8     4     5     1
9     4     7     ar
10    5     6     1
11    6     41    1
12    6     42    1
13    6     43    1
14    7     8     ar
15    7     44    1
16    8     14    ar
17    8     9     ar
18    9     10    ar
19    9     11    ar
20    10    45    1
21    11    12    ar
22    12    13    ar
23    12    46    1
24    13    14    ar
25    14    15    1
26    15    16    1
27    16    37    ar
28    16    17    ar
29    17    18    ar
30    17    47    1
31    18    19    ar
32    18    48    1
33    19    20    ar
34    19    49    1
35    20    21    1
36    20    37    ar
37    21    22    am
38    21    50    1
39    22    23    2
40    22    24    am
41    24    25    1
42    24    51    1
43    25    36    1
44    25    26    2
45    26    27    1
46    27    28    1
47    28    29    1
48    28    36    2
49    29    30    1
50    29    31    1
51    29    32    1
52    30    52    1
53    30    53    1
54    30    54    1
55    31    55    1
56    31    56    1
57    31    57    1
58    32    33    1
59    32    34    1
60    32    35    1
61    36    58    1
62    37    59    1
@<TRIPOS>SUBSTRUCTURE
1   ZINC000043207440 1     RESIDUE    1   A     ZIN   1
