@<TRIPOS>MOLECULE
ZINC000004623738
  55   54    0    0    0
SMALL
USER_CHARGES
NO_NAME
@<TRIPOS>ATOM
    1 C1       -0.1387     1.7198    -0.3940 C.3    1 <0>      -0.1500
    2 C2       -0.0915     0.1908    -0.4203 C.3    1 <0>      -0.1200
    3 C3       -1.4944    -0.3672    -0.1730 C.3    1 <0>      -0.1200
    4 C4       -1.4472    -1.8963    -0.1994 C.3    1 <0>      -0.1100
    5 C5       -2.8501    -2.4542     0.0480 C.3    1 <0>      -0.1000
    6 C6       -2.8036    -3.9603     0.0220 C.2    1 <0>      -0.1600
    7 C7       -3.3042    -4.6484     1.0180 C.2    1 <0>      -0.1500
    8 C8       -4.0752    -3.9467     2.1063 C.3    1 <0>      -0.1300
    9 C9       -5.4455    -4.6077     2.2679 C.3    1 <0>       0.1400
   10 H10      -5.9602    -4.6166     1.3071 H      1 <0>       0.1000
   11 O11      -5.2758    -5.9493     2.7297 O.3    1 <0>      -0.5600
   12 C12      -6.2627    -3.8317     3.2684 C.2    1 <0>      -0.1900
   13 C13      -7.4236    -3.2883     2.9026 C.2    1 <0>      -0.1000
   14 C14      -8.2178    -2.5340     3.8751 C.2    1 <0>      -0.1300
   15 C15      -9.3927    -1.9840     3.5049 C.2    1 <0>      -0.1100
   16 C16     -10.1870    -1.2298     4.4773 C.2    1 <0>      -0.1300
   17 C17     -11.3013    -0.6095     4.0899 C.2    1 <0>      -0.1600
   18 C18     -11.8249    -0.8051     2.6903 C.3    1 <0>       0.1200
   19 H19     -11.2169    -1.5491     2.1756 H      1 <0>       0.1100
   20 O20     -13.1803    -1.2541     2.7472 O.3    1 <0>      -0.5500
   21 C21     -11.7585     0.5216     1.9310 C.3    1 <0>      -0.1500
   22 C22     -12.1720     0.2971     0.4751 C.3    1 <0>      -0.0900
   23 C23     -12.1057     1.6237    -0.2842 C.3    1 <0>      -0.1800
   24 C24     -12.5129     1.4026    -1.7182 C.2    1 <0>       0.4900
   25 O25     -12.8271     0.2874    -2.0977 O.co2  1 <0>      -0.7000
   26 O26     -12.5282     2.3390    -2.4989 O.co2  1 <0>      -0.7100
   27 H27       0.8608     2.1173    -0.5702 H      1 <0>       0.0500
   28 H28      -0.8138     2.0759    -1.1722 H      1 <0>       0.0500
   29 H29      -0.4969     2.0555     0.5793 H      1 <0>       0.0500
   30 H30       0.2667    -0.1449    -1.3935 H      1 <0>       0.0600
   31 H31       0.5836    -0.1654     0.3579 H      1 <0>       0.0600
   32 H32      -1.8526    -0.0315     0.8002 H      1 <0>       0.0600
   33 H33      -2.1695    -0.0111    -0.9512 H      1 <0>       0.0600
   34 H34      -1.0890    -2.2320    -1.1726 H      1 <0>       0.0600
   35 H35      -0.7721    -2.2524     0.5788 H      1 <0>       0.0600
   36 H36      -3.2083    -2.1186     1.0212 H      1 <0>       0.0800
   37 H37      -3.5252    -2.0981    -0.7302 H      1 <0>       0.0700
   38 H38      -2.3574    -4.4724    -0.8177 H      1 <0>       0.1100
   39 H39      -3.1644    -5.7185     1.0592 H      1 <0>       0.1100
   40 H40      -3.5249    -4.0170     3.0446 H      1 <0>       0.0700
   41 H41      -4.2068    -2.8980     1.8400 H      1 <0>       0.0900
   42 H42      -4.8237    -6.0178     3.5817 H      1 <0>       0.3700
   43 H43      -5.9078    -3.7159     4.2818 H      1 <0>       0.1100
   44 H44      -7.7785    -3.4041     1.8892 H      1 <0>       0.1200
   45 H45      -7.8629    -2.4182     4.8885 H      1 <0>       0.1100
   46 H46      -9.7476    -2.0999     2.4914 H      1 <0>       0.1200
   47 H47      -9.8697    -1.1762     5.5083 H      1 <0>       0.1200
   48 H48     -11.8290     0.0332     4.7789 H      1 <0>       0.1200
   49 H49     -13.7930    -0.6084     3.1249 H      1 <0>       0.3700
   50 H50     -12.4352     1.2396     2.3943 H      1 <0>       0.0600
   51 H51     -10.7401     0.9085     1.9639 H      1 <0>       0.0700
   52 H52     -11.4953    -0.4210     0.0118 H      1 <0>       0.0600
   53 H53     -13.1905    -0.0899     0.4422 H      1 <0>       0.0700
   54 H54     -12.7823     2.3418     0.1791 H      1 <0>       0.0500
   55 H55     -11.0872     2.0107    -0.2513 H      1 <0>       0.0500
@<TRIPOS>BOND
   1    1    2 1
   2    1   27 1
   3    1   28 1
   4    1   29 1
   5    2    3 1
   6    2   30 1
   7    2   31 1
   8    3    4 1
   9    3   32 1
  10    3   33 1
  11    4    5 1
  12    4   34 1
  13    4   35 1
  14    5    6 1
  15    5   36 1
  16    5   37 1
  17    6    7 2
  18    6   38 1
  19    7    8 1
  20    7   39 1
  21    8    9 1
  22    8   40 1
  23    8   41 1
  24    9   10 1
  25    9   11 1
  26    9   12 1
  27   11   42 1
  28   12   13 2
  29   12   43 1
  30   13   14 1
  31   13   44 1
  32   14   15 2
  33   14   45 1
  34   15   16 1
  35   15   46 1
  36   16   17 2
  37   16   47 1
  38   17   18 1
  39   17   48 1
  40   18   19 1
  41   18   20 1
  42   18   21 1
  43   20   49 1
  44   21   22 1
  45   21   50 1
  46   21   51 1
  47   22   23 1
  48   22   52 1
  49   22   53 1
  50   23   24 1
  51   23   54 1
  52   23   55 1
  53   24   25 ar
  54   24   26 ar
