@<TRIPOS>MOLECULE
ZINC000053165707
26    27    1     0     0
SMALL
USER_CHARGES
@<TRIPOS>ATOM
1      F1      0.0585    0.0223   -0.0142 F        1 ZINC000053165707   -0.1700
2      C2      0.3650    1.3869    0.0202 C.3      1 ZINC000053165707    0.5100
3      F3      1.7403    1.5512    0.2170 F        1 ZINC000053165707   -0.1700
4      F4     -0.0067    1.9790   -1.1917 F        1 ZINC000053165707   -0.1800
5      C5     -0.3860    2.0422    1.1505 C.ar     1 ZINC000053165707   -0.1500
6      C6     -1.6483    2.5616    0.9311 C.ar     1 ZINC000053165707   -0.0900
7      C7     -2.3412    3.1638    1.9655 C.ar     1 ZINC000053165707   -0.0800
8      C8     -1.7730    3.2485    3.2222 C.ar     1 ZINC000053165707   -0.0600
9      Cl9    -2.6430    4.0044    4.5204 Cl       1 ZINC000053165707   -0.0600
10     C10    -0.5040    2.7270    3.4456 C.ar     1 ZINC000053165707    0.1900
11     N11     0.0747    2.8104    4.7170 N.pl3    1 ZINC000053165707   -0.6500
12     C12     1.1499    2.0131    5.0374 C.2      1 ZINC000053165707    0.5900
13     N13     1.5982    1.0899    4.2507 N.2      1 ZINC000053165707   -0.6100
14     C14     2.7479    0.4148    4.8684 C.3      1 ZINC000053165707    0.0400
15     C15     2.9160    1.1290    6.2243 C.3      1 ZINC000053165707    0.0900
16     N16     1.8394    2.1335    6.2129 N.pl3    1 ZINC000053165707   -0.7600
17     C17     0.1856    2.1179    2.4060 C.ar     1 ZINC000053165707   -0.0900
18     H18    -2.0942    2.4973   -0.0505 H        1 ZINC000053165707    0.1500
19     H19    -3.3271    3.5686    1.7908 H        1 ZINC000053165707    0.1500
20     H20    -0.2820    3.4301    5.3725 H        1 ZINC000053165707    0.4200
21     H21     2.5345   -0.6436    5.0179 H        1 ZINC000053165707    0.0900
22     H22     3.6405    0.5427    4.2560 H        1 ZINC000053165707    0.0900
23     H23     2.7830    0.4272    7.0477 H        1 ZINC000053165707    0.0800
24     H24     3.8899    1.6146    6.2851 H        1 ZINC000053165707    0.0800
25     H25     1.6484    2.7689    6.9205 H        1 ZINC000053165707    0.4100
26     H26     1.1716    1.7115    2.5764 H        1 ZINC000053165707    0.1900
@<TRIPOS>BOND
1     1     2     1
2     2     3     1
3     2     4     1
4     2     5     1
5     5     17    ar
6     5     6     ar
7     6     7     ar
8     6     18    1
9     7     8     ar
10    7     19    1
11    8     9     1
12    8     10    ar
13    10    11    1
14    10    17    ar
15    11    12    1
16    11    20    1
17    12    16    1
18    12    13    2
19    13    14    1
20    14    15    1
21    14    21    1
22    14    22    1
23    15    16    1
24    15    23    1
25    15    24    1
26    16    25    1
27    17    26    1
@<TRIPOS>SUBSTRUCTURE
1   ZINC000053165707 1     RESIDUE    1   A     ZIN   1
