@<TRIPOS>MOLECULE
ZINC000003950898
81    87    1     0     0
SMALL
USER_CHARGES
@<TRIPOS>ATOM
1      C1      0.7170    1.5911   -2.2395 C.3      1 ZINC000003950898   -0.1900
2      C2      0.3691    0.1075   -2.3764 C.3      1 ZINC000003950898   -0.0200
3      N3      0.8737   -0.6238   -1.2066 N.4      1 ZINC000003950898   -0.3800
4      H4      1.8622   -0.4504   -1.1022 H        1 ZINC000003950898    0.4200
5      C5      0.1668   -0.1684   -0.0020 C.3      1 ZINC000003950898   -0.0100
6      C6      0.7982   -0.8123    1.2339 C.3      1 ZINC000003950898   -0.1900
7      C7      0.6461   -2.0630   -1.3932 C.3      1 ZINC000003950898   -0.0400
8      C8      1.4833   -2.5631   -2.5720 C.3      1 ZINC000003950898    0.0900
9      N9      1.3513   -4.0180   -2.6824 N.am     1 ZINC000003950898   -0.5800
10     C10     2.1494   -4.9054   -2.0619 C.2      1 ZINC000003950898    0.5900
11     O11     3.0813   -4.6317   -1.3319 O.2      1 ZINC000003950898   -0.4500
12     C12     1.7043   -6.2651   -2.4157 C.ar     1 ZINC000003950898   -0.1100
13     C13     0.6043   -6.1000   -3.2754 C.ar     1 ZINC000003950898   -0.1100
14     C14     0.4122   -4.6453   -3.4131 C.2      1 ZINC000003950898    0.5900
15     O15    -0.4464   -4.1033   -4.0805 O.2      1 ZINC000003950898   -0.4500
16     C16    -0.0518   -7.2244   -3.7925 C.ar     1 ZINC000003950898    0.0000
17     C17     0.3854   -8.5153   -3.4551 C.ar     1 ZINC000003950898    0.1700
18     C18     1.4816   -8.6797   -2.5984 C.ar     1 ZINC000003950898    0.1600
19     C19     2.1405   -7.5533   -2.0805 C.ar     1 ZINC000003950898   -0.0100
20     C20     3.2291   -8.0622   -1.2293 C.ar     1 ZINC000003950898   -0.1000
21     C21     4.2125   -7.4439   -0.4584 C.ar     1 ZINC000003950898   -0.0400
22     C22     5.1140   -8.2123    0.2458 C.ar     1 ZINC000003950898   -0.1300
23     C23     5.0464   -9.5961    0.1903 C.ar     1 ZINC000003950898   -0.0600
24     C24     4.0790  -10.2216   -0.5688 C.ar     1 ZINC000003950898   -0.0600
25     Cl25    4.0084  -11.9552   -0.6274 Cl       1 ZINC000003950898   -0.0600
26     C26     3.1588   -9.4628   -1.2870 C.ar     1 ZINC000003950898    0.1600
27     N27     2.1062   -9.8121   -2.1128 N.pl3    1 ZINC000003950898   -0.5900
28     N28    -0.4272   -9.4317   -4.0938 N.pl3    1 ZINC000003950898   -0.4700
29     C29    -0.2899  -10.8867   -3.9910 C.3      1 ZINC000003950898    0.3300
30     H30     0.6842  -11.1309   -3.5673 H        1 ZINC000003950898    0.0800
31     O31    -0.4038  -11.4691   -5.2910 O.3      1 ZINC000003950898   -0.3400
32     C32    -0.2582  -12.8906   -5.3083 C.3      1 ZINC000003950898    0.1000
33     H33     0.7163  -13.1612   -4.9017 H        1 ZINC000003950898    0.0900
34     C34    -0.3692  -13.3974   -6.7476 C.3      1 ZINC000003950898    0.0900
35     O35     0.7270  -12.8959   -7.5150 O.3      1 ZINC000003950898   -0.5600
36     C36    -1.3608  -13.5254   -4.4568 C.3      1 ZINC000003950898    0.0700
37     H37    -2.3343  -13.2888   -4.8861 H        1 ZINC000003950898    0.0800
38     O38    -1.1841  -14.9431   -4.4264 O.3      1 ZINC000003950898   -0.3700
39     C39    -2.4018  -15.6777   -4.2858 C.3      1 ZINC000003950898    0.0300
40     C40    -1.2802  -12.9676   -3.0325 C.3      1 ZINC000003950898    0.0600
41     H41    -0.3262  -13.2466   -2.5851 H        1 ZINC000003950898    0.0800
42     O42    -2.3498  -13.5008   -2.2490 O.3      1 ZINC000003950898   -0.5400
43     C43    -1.3936  -11.4410   -3.0864 C.3      1 ZINC000003950898    0.0300
44     H44    -2.3678  -11.1620   -3.4880 H        1 ZINC000003950898    0.1000
45     O45    -1.2485  -10.9045   -1.7699 O.3      1 ZINC000003950898   -0.5500
46     C46    -1.3888   -8.7799   -4.8435 C.ar     1 ZINC000003950898    0.1600
47     C47    -1.2035   -7.3971   -4.6937 C.ar     1 ZINC000003950898   -0.1000
48     C48    -2.0488   -6.5039   -5.3516 C.ar     1 ZINC000003950898   -0.0400
49     C49    -3.0651   -6.9841   -6.1481 C.ar     1 ZINC000003950898   -0.1300
50     C50    -3.2502   -8.3505   -6.2976 C.ar     1 ZINC000003950898   -0.0600
51     C51    -2.4220   -9.2454   -5.6531 C.ar     1 ZINC000003950898   -0.0500
52     Cl52   -2.6676  -10.9526   -5.8510 Cl       1 ZINC000003950898   -0.0400
53     H53     0.2572    1.9902   -1.3354 H        1 ZINC000003950898    0.0800
54     H54     1.7992    1.7063   -2.1780 H        1 ZINC000003950898    0.0800
55     H55     0.3426    2.1337   -3.1075 H        1 ZINC000003950898    0.1100
56     H56    -0.7131   -0.0078   -2.4379 H        1 ZINC000003950898    0.1300
57     H57     0.8289   -0.2916   -3.2805 H        1 ZINC000003950898    0.1300
58     H58     0.2418    0.9163    0.0749 H        1 ZINC000003950898    0.1400
59     H59    -0.8825   -0.4565   -0.0658 H        1 ZINC000003950898    0.1300
60     H60     0.2398   -0.5176    2.1225 H        1 ZINC000003950898    0.1100
61     H61     0.7724   -1.8971    1.1317 H        1 ZINC000003950898    0.0800
62     H62     1.8323   -0.4807    1.3282 H        1 ZINC000003950898    0.0800
63     H63     0.9368   -2.5971   -0.4886 H        1 ZINC000003950898    0.1400
64     H64    -0.4100   -2.2405   -1.5963 H        1 ZINC000003950898    0.1400
65     H65     1.1316   -2.0956   -3.4917 H        1 ZINC000003950898    0.1200
66     H66     2.5298   -2.3045   -2.4101 H        1 ZINC000003950898    0.1200
67     H67     4.2678   -6.3662   -0.4135 H        1 ZINC000003950898    0.1500
68     H68     5.8765   -7.7347    0.8431 H        1 ZINC000003950898    0.1400
69     H69     5.7575  -10.1894    0.7458 H        1 ZINC000003950898    0.1500
70     H70     1.8437  -10.7223   -2.3213 H        1 ZINC000003950898    0.4200
71     H71    -0.3472  -14.4872   -6.7518 H        1 ZINC000003950898    0.0800
72     H72    -1.3063  -13.0512   -7.1835 H        1 ZINC000003950898    0.0600
73     H73     0.7212  -13.1778   -8.4400 H        1 ZINC000003950898    0.3900
74     H74    -2.8914  -15.3946   -3.3540 H        1 ZINC000003950898    0.0600
75     H75    -3.0603  -15.4535   -5.1249 H        1 ZINC000003950898    0.0400
76     H76    -2.1824  -16.7453   -4.2712 H        1 ZINC000003950898    0.0900
77     H77    -2.3601  -13.1892   -1.3337 H        1 ZINC000003950898    0.3800
78     H78    -1.9140  -11.2177   -1.1420 H        1 ZINC000003950898    0.3900
79     H79    -1.9073   -5.4394   -5.2367 H        1 ZINC000003950898    0.1500
80     H80    -3.7207   -6.2937   -6.6579 H        1 ZINC000003950898    0.1400
81     H81    -4.0498   -8.7169   -6.9242 H        1 ZINC000003950898    0.1500
@<TRIPOS>BOND
1     1     2     1
2     1     53    1
3     1     54    1
4     1     55    1
5     2     3     1
6     2     56    1
7     2     57    1
8     3     4     1
9     3     5     1
10    3     7     1
11    5     6     1
12    5     58    1
13    5     59    1
14    6     60    1
15    6     61    1
16    6     62    1
17    7     8     1
18    7     63    1
19    7     64    1
20    8     9     1
21    8     65    1
22    8     66    1
23    9     14    am
24    9     10    am
25    10    11    2
26    10    12    1
27    12    19    ar
28    12    13    ar
29    13    14    1
30    13    16    ar
31    14    15    2
32    16    47    1
33    16    17    ar
34    17    18    ar
35    17    28    1
36    18    27    1
37    18    19    ar
38    19    20    1
39    20    26    ar
40    20    21    ar
41    21    22    ar
42    21    67    1
43    22    23    ar
44    22    68    1
45    23    24    ar
46    23    69    1
47    24    25    1
48    24    26    ar
49    26    27    1
50    27    70    1
51    28    29    1
52    28    46    1
53    29    30    1
54    29    43    1
55    29    31    1
56    31    32    1
57    32    33    1
58    32    34    1
59    32    36    1
60    34    35    1
61    34    71    1
62    34    72    1
63    35    73    1
64    36    37    1
65    36    38    1
66    36    40    1
67    38    39    1
68    39    74    1
69    39    75    1
70    39    76    1
71    40    41    1
72    40    42    1
73    40    43    1
74    42    77    1
75    43    44    1
76    43    45    1
77    45    78    1
78    46    51    ar
79    46    47    ar
80    47    48    ar
81    48    49    ar
82    48    79    1
83    49    50    ar
84    49    80    1
85    50    51    ar
86    50    81    1
87    51    52    1
@<TRIPOS>SUBSTRUCTURE
1   ZINC000003950898 1     RESIDUE    1   A     ZIN   1
