@<TRIPOS>MOLECULE
ZINC000034630490
60    63    1     0     0
SMALL
USER_CHARGES
@<TRIPOS>ATOM
1      C1      2.9895    3.0590    0.9373 C.3      1 ZINC000034630490   -0.1500
2      C2      2.4526    1.8020    1.6248 C.3      1 ZINC000034630490   -0.0900
3      C3      3.6237    0.9613    2.1373 C.3      1 ZINC000034630490   -0.1400
4      C4      1.5611    2.2054    2.8010 C.3      1 ZINC000034630490   -0.1400
5      C5      1.6361    0.9824    0.6236 C.3      1 ZINC000034630490    0.1100
6      N6      2.5150    0.5000   -0.4446 N.pl3    1 ZINC000034630490   -0.5000
7      C7      2.8325    1.1670   -1.5945 C.2      1 ZINC000034630490    0.5600
8      N8      2.3688    2.4195   -1.9375 N.pl3    1 ZINC000034630490   -0.8300
9      N9      3.6432    0.4394   -2.3218 N.2      1 ZINC000034630490   -0.5400
10     C10     3.8938   -0.7334   -1.6853 C.ar     1 ZINC000034630490    0.0400
11     C11     4.6712   -1.8539   -1.9987 C.ar     1 ZINC000034630490   -0.0400
12     C12     4.7037   -2.8945   -1.1087 C.ar     1 ZINC000034630490   -0.1400
13     C13     3.9680   -2.8119    0.0764 C.ar     1 ZINC000034630490    0.2200
14     C14     4.0050   -3.9375    1.0359 C.2      1 ZINC000034630490    0.0700
15     C15     3.0082   -4.2830    1.9313 C.2      1 ZINC000034630490    0.0500
16     C16     1.7089   -3.6061    2.1160 C.ar     1 ZINC000034630490   -0.0400
17     C17     1.6626   -2.2305    2.3528 C.ar     1 ZINC000034630490   -0.0200
18     C18     0.4463   -1.6036    2.5240 C.ar     1 ZINC000034630490   -0.1700
19     C19    -0.7286   -2.3360    2.4614 C.ar     1 ZINC000034630490    0.1100
20     F20    -1.9174   -1.7166    2.6295 F        1 ZINC000034630490   -0.1400
21     C21    -0.6888   -3.7014    2.2267 C.ar     1 ZINC000034630490   -0.1600
22     C22     0.5214   -4.3381    2.0487 C.ar     1 ZINC000034630490   -0.0700
23     N23     3.4701   -5.3833    2.6143 N.pl3    1 ZINC000034630490   -0.5600
24     C24     4.7042   -5.6711    2.1289 C.2      1 ZINC000034630490    0.2400
25     C25     5.5796   -6.8061    2.5943 C.3      1 ZINC000034630490    0.0200
26     C26     5.0418   -8.1261    2.0381 C.3      1 ZINC000034630490   -0.1400
27     C27     7.0086   -6.5863    2.0938 C.3      1 ZINC000034630490   -0.1300
28     C28     5.5771   -6.8582    4.1234 C.3      1 ZINC000034630490   -0.1500
29     N29     5.0127   -4.8173    1.1938 N.2      1 ZINC000034630490   -0.4600
30     N30     3.2367   -1.7397    0.3555 N.ar     1 ZINC000034630490   -0.4600
31     C31     3.1809   -0.7110   -0.4725 C.ar     1 ZINC000034630490    0.2500
32     H32     3.6246    2.7716    0.0993 H        1 ZINC000034630490    0.0600
33     H33     2.1552    3.6579    0.5721 H        1 ZINC000034630490    0.0600
34     H34     3.5712    3.6429    1.6505 H        1 ZINC000034630490    0.0600
35     H35     4.2503    1.5702    2.7890 H        1 ZINC000034630490    0.0600
36     H36     3.2408    0.1071    2.6958 H        1 ZINC000034630490    0.0600
37     H37     4.2144    0.6077    1.2922 H        1 ZINC000034630490    0.0600
38     H38     0.7268    2.8043    2.4358 H        1 ZINC000034630490    0.0600
39     H39     1.1786    1.3099    3.2908 H        1 ZINC000034630490    0.0600
40     H40     2.1428    2.7893    3.5142 H        1 ZINC000034630490    0.0700
41     H41     1.1836    0.1319    1.1336 H        1 ZINC000034630490    0.1000
42     H42     0.8529    1.6078    0.1951 H        1 ZINC000034630490    0.0900
43     H43     1.7691    2.8947   -1.3414 H        1 ZINC000034630490    0.4100
44     H44     2.6424    2.8253   -2.7750 H        1 ZINC000034630490    0.4300
45     H45     5.2320   -1.8973   -2.9206 H        1 ZINC000034630490    0.1400
46     H46     5.2939   -3.7735   -1.3217 H        1 ZINC000034630490    0.1500
47     H47     2.5776   -1.6588    2.4020 H        1 ZINC000034630490    0.1500
48     H48     0.4093   -0.5400    2.7075 H        1 ZINC000034630490    0.1400
49     H49    -1.6076   -4.2671    2.1790 H        1 ZINC000034630490    0.1400
50     H50     0.5512   -5.4020    1.8656 H        1 ZINC000034630490    0.1300
51     H51     3.0008   -5.8645    3.3137 H        1 ZINC000034630490    0.4200
52     H52     5.0436   -8.0890    0.9487 H        1 ZINC000034630490    0.0600
53     H53     5.6749   -8.9470    2.3747 H        1 ZINC000034630490    0.0700
54     H54     4.0237   -8.2826    2.3947 H        1 ZINC000034630490    0.0500
55     H55     7.3918   -5.6459    2.4900 H        1 ZINC000034630490    0.0600
56     H56     7.6418   -7.4072    2.4304 H        1 ZINC000034630490    0.0600
57     H57     7.0104   -6.5492    1.0044 H        1 ZINC000034630490    0.0700
58     H58     4.5590   -7.0147    4.4799 H        1 ZINC000034630490    0.0500
59     H59     6.2102   -7.6791    4.4600 H        1 ZINC000034630490    0.0700
60     H60     5.9602   -5.9178    4.5196 H        1 ZINC000034630490    0.0600
@<TRIPOS>BOND
1     1     2     1
2     1     32    1
3     1     33    1
4     1     34    1
5     2     3     1
6     2     4     1
7     2     5     1
8     3     35    1
9     3     36    1
10    3     37    1
11    4     38    1
12    4     39    1
13    4     40    1
14    5     6     1
15    5     41    1
16    5     42    1
17    6     31    1
18    6     7     1
19    7     8     1
20    7     9     2
21    8     43    1
22    8     44    1
23    9     10    1
24    10    31    ar
25    10    11    ar
26    11    12    ar
27    11    45    1
28    12    13    ar
29    12    46    1
30    13    14    1
31    13    30    ar
32    14    29    1
33    14    15    2
34    15    16    1
35    15    23    1
36    16    22    ar
37    16    17    ar
38    17    18    ar
39    17    47    1
40    18    19    ar
41    18    48    1
42    19    20    1
43    19    21    ar
44    21    22    ar
45    21    49    1
46    22    50    1
47    23    24    1
48    23    51    1
49    24    25    1
50    24    29    2
51    25    26    1
52    25    27    1
53    25    28    1
54    26    52    1
55    26    53    1
56    26    54    1
57    27    55    1
58    27    56    1
59    27    57    1
60    28    58    1
61    28    59    1
62    28    60    1
63    30    31    ar
@<TRIPOS>SUBSTRUCTURE
1   ZINC000034630490 1     RESIDUE    1   A     ZIN   1
