@<TRIPOS>MOLECULE
ZINC000254005599
44    46    1     0     0
SMALL
USER_CHARGES
@<TRIPOS>ATOM
1      C1     -0.0974    1.2229    0.0055 C.3      1 ZINC000254005599    0.0300
2      O2     -0.0765   -0.2055    0.0408 O.3      1 ZINC000254005599   -0.2100
3      N3      0.6029   -0.7441    1.1604 N.2      1 ZINC000254005599   -0.2800
4      C4      0.6926   -2.0371    1.3090 C.2      1 ZINC000254005599    0.1900
5      C5      1.4038   -2.6009    2.4811 C.2      1 ZINC000254005599    0.5800
6      O6      1.4874   -3.8051    2.6194 O.2      1 ZINC000254005599   -0.4900
7      N7      1.9576   -1.7777    3.3933 N.am     1 ZINC000254005599   -0.6800
8      C8      2.6604   -2.3349    4.5516 C.3      1 ZINC000254005599    0.1200
9      H9      3.0518   -3.3357    4.3688 H        1 ZINC000254005599    0.1500
10     C10     1.8851   -2.2117    5.8524 C.2      1 ZINC000254005599    0.5300
11     O11     0.9314   -2.7904    6.3286 O.2      1 ZINC000254005599   -0.4300
12     N12     2.6763   -1.2069    6.2660 N.am     1 ZINC000254005599   -0.5600
13     C13     2.6474   -0.1680    7.2123 C.2      1 ZINC000254005599    0.1000
14     C14     1.8974   -0.3356    8.4676 C.2      1 ZINC000254005599    0.5200
15     O15     1.9588    0.5237    9.3364 O.co2    1 ZINC000254005599   -0.6600
16     O16     1.2126   -1.3343    8.6424 O.co2    1 ZINC000254005599   -0.6500
17     C17     3.2969    0.9634    6.9732 C.2      1 ZINC000254005599   -0.1900
18     C18     3.1566    2.0356    8.0228 C.3      1 ZINC000254005599    0.1600
19     O19     3.8217    3.2448    7.5714 O.3      1 ZINC000254005599   -0.3900
20     C20     3.8785    4.2719    8.4401 C.2      1 ZINC000254005599    0.6500
21     N21     4.4819    5.4232    8.0840 N.am     1 ZINC000254005599   -0.8400
22     O22     3.3856    4.1608    9.5452 O.2      1 ZINC000254005599   -0.5600
23     C23     4.1491    1.3114    5.7973 C.3      1 ZINC000254005599   -0.0100
24     S24     3.8067    0.2502    4.3606 S.3      1 ZINC000254005599   -0.2400
25     C25     3.6805   -1.3815    5.1654 C.3      1 ZINC000254005599    0.1300
26     H26     4.6365   -1.8201    5.4514 H        1 ZINC000254005599    0.1500
27     C27     0.0872   -2.9369    0.3118 C.2      1 ZINC000254005599   -0.0200
28     C28    -0.5863   -2.5522   -0.8088 C.2      1 ZINC000254005599   -0.1400
29     C29    -0.9870   -3.7305   -1.4650 C.2      1 ZINC000254005599   -0.2300
30     C30    -0.5446   -4.7669   -0.7231 C.2      1 ZINC000254005599   -0.0100
31     O31     0.1079   -4.2839    0.3456 O.3      1 ZINC000254005599   -0.1400
32     H32     0.9246    1.6006   -0.0261 H        1 ZINC000254005599    0.0600
33     H33    -0.6357    1.5566   -0.8816 H        1 ZINC000254005599    0.1000
34     H34    -0.5971    1.6010    0.8974 H        1 ZINC000254005599    0.0600
35     H35     1.8909   -0.8163    3.2828 H        1 ZINC000254005599    0.4200
36     H36     2.0999    2.2434    8.1909 H        1 ZINC000254005599    0.1000
37     H37     3.6125    1.6957    8.9527 H        1 ZINC000254005599    0.1000
38     H38     4.8753    5.5118    7.2018 H        1 ZINC000254005599    0.4000
39     H39     4.5228    6.1631    8.7098 H        1 ZINC000254005599    0.4200
40     H40     3.9645    2.3498    5.5219 H        1 ZINC000254005599    0.1300
41     H41     5.1973    1.2023    6.0757 H        1 ZINC000254005599    0.1000
42     H42    -0.7761   -1.5389   -1.1306 H        1 ZINC000254005599    0.1700
43     H43    -1.5441   -3.7934   -2.3880 H        1 ZINC000254005599    0.1500
44     H44    -0.6885   -5.8122   -0.9531 H        1 ZINC000254005599    0.2100
@<TRIPOS>BOND
1     1     2     1
2     1     32    1
3     1     33    1
4     1     34    1
5     2     3     1
6     3     4     2
7     4     5     1
8     4     27    1
9     5     6     2
10    5     7     am
11    7     8     1
12    7     35    1
13    8     9     1
14    8     25    1
15    8     10    1
16    10    11    2
17    10    12    am
18    12    25    1
19    12    13    1
20    13    14    1
21    13    17    2
22    14    15    ar
23    14    16    ar
24    17    18    1
25    17    23    1
26    18    19    1
27    18    36    1
28    18    37    1
29    19    20    1
30    20    21    am
31    20    22    2
32    21    38    1
33    21    39    1
34    23    24    1
35    23    40    1
36    23    41    1
37    24    25    1
38    25    26    1
39    27    31    1
40    27    28    2
41    28    29    1
42    28    42    1
43    29    30    2
44    29    43    1
45    30    31    1
46    30    44    1
@<TRIPOS>SUBSTRUCTURE
1   ZINC000254005599 1     RESIDUE    1   A     ZIN   1
