@<TRIPOS>MOLECULE
ZINC000043206238
66    69    1     0     0
SMALL
USER_CHARGES
@<TRIPOS>ATOM
1      C1     -0.6062    1.1862    0.0398 C.3      1 ZINC000043206238   -0.1600
2      C2     -0.5179   -0.3395   -0.0333 C.3      1 ZINC000043206238    0.1700
3      C3      0.2078   -0.8682    1.2055 C.3      1 ZINC000043206238   -0.1700
4      C4     -1.9283   -0.9299   -0.0890 C.3      1 ZINC000043206238   -0.1600
5      N5      0.2223   -0.7287   -1.2362 N.am     1 ZINC000043206238   -0.7200
6      C6      1.4954   -0.3204   -1.4056 C.2      1 ZINC000043206238    0.5700
7      O7      2.0297    0.3710   -0.5602 O.2      1 ZINC000043206238   -0.5200
8      C8      2.2412   -0.7126   -2.6176 C.ar     1 ZINC000043206238   -0.1000
9      C9      1.6268   -1.5021   -3.5923 C.ar     1 ZINC000043206238   -0.0900
10     C10     2.3237   -1.8681   -4.7240 C.ar     1 ZINC000043206238   -0.0900
11     C11     3.6367   -1.4546   -4.8987 C.ar     1 ZINC000043206238    0.0900
12     O12     4.3189   -1.8183   -6.0150 O.3      1 ZINC000043206238   -0.2400
13     C13     5.1702   -2.8739   -5.9269 C.ar     1 ZINC000043206238    0.1200
14     C14     5.2375   -3.6160   -4.7574 C.ar     1 ZINC000043206238   -0.2200
15     C15     6.1050   -4.6908   -4.6706 C.ar     1 ZINC000043206238    0.1500
16     F16     6.1711   -5.4148   -3.5319 F        1 ZINC000043206238   -0.1200
17     C17     6.9048   -5.0248   -5.7504 C.ar     1 ZINC000043206238   -0.0700
18     C18     7.8484   -6.1958   -5.6540 C.3      1 ZINC000043206238   -0.1600
19     C19     7.1099   -7.4652   -5.9924 C.2      1 ZINC000043206238    0.5000
20     O20     5.9270   -7.4228   -6.2847 O.co2    1 ZINC000043206238   -0.6900
21     O21     7.6953   -8.5345   -5.9739 O.co2    1 ZINC000043206238   -0.7000
22     C22     6.8386   -4.2857   -6.9171 C.ar     1 ZINC000043206238   -0.0500
23     C23     5.9700   -3.2147   -7.0102 C.ar     1 ZINC000043206238   -0.0600
24     Cl24    5.8877   -2.2882   -8.4759 Cl       1 ZINC000043206238   -0.0600
25     C25     4.2576   -0.6649   -3.9290 C.ar     1 ZINC000043206238    0.1600
26     N26     5.5819   -0.2485   -4.1076 N.am     1 ZINC000043206238   -1.0400
27     S27     6.5673   -0.0356   -2.7938 S.o2     1 ZINC000043206238    2.6800
28     O28     6.3826   -1.1749   -1.9649 O.2      1 ZINC000043206238   -0.9300
29     O29     7.8343    0.3584   -3.3023 O.2      1 ZINC000043206238   -0.9300
30     C30     5.9427    1.3428   -1.8914 C.ar     1 ZINC000043206238   -0.6900
31     C31     5.4737    1.1702   -0.6030 C.ar     1 ZINC000043206238    0.0000
32     C32     4.9836    2.2518    0.1053 C.ar     1 ZINC000043206238   -0.1100
33     C33     4.9620    3.5061   -0.4749 C.ar     1 ZINC000043206238    0.0200
34     C34     4.4276    4.6845    0.2977 C.3      1 ZINC000043206238   -0.1300
35     C35     4.6139    6.0741   -0.3148 C.3      1 ZINC000043206238   -0.1700
36     C36     3.2269    5.4287   -0.2899 C.3      1 ZINC000043206238   -0.1600
37     C37     5.4309    3.6800   -1.7636 C.ar     1 ZINC000043206238   -0.1300
38     C38     5.9270    2.5994   -2.4705 C.ar     1 ZINC000043206238    0.0600
39     Cl39    6.5161    2.8170   -4.0890 Cl       1 ZINC000043206238   -0.0400
40     C40     3.5615   -0.2899   -2.7946 C.ar     1 ZINC000043206238   -0.1100
41     H41     0.3986    1.6068    0.0794 H        1 ZINC000043206238    0.0800
42     H42    -1.1232    1.5629   -0.8428 H        1 ZINC000043206238    0.0500
43     H43    -1.1569    1.4758    0.9347 H        1 ZINC000043206238    0.0600
44     H44    -0.3429   -0.5786    2.1005 H        1 ZINC000043206238    0.0600
45     H45     0.2707   -1.9552    1.1534 H        1 ZINC000043206238    0.0600
46     H46     1.2126   -0.4476    1.2451 H        1 ZINC000043206238    0.0800
47     H47    -2.4453   -0.5532   -0.9715 H        1 ZINC000043206238    0.0600
48     H48    -1.8654   -2.0168   -0.1410 H        1 ZINC000043206238    0.0600
49     H49    -2.4790   -0.6403    0.8060 H        1 ZINC000043206238    0.0700
50     H50    -0.2040   -1.2803   -1.9107 H        1 ZINC000043206238    0.4000
51     H51     0.6053   -1.8262   -3.4591 H        1 ZINC000043206238    0.1400
52     H52     1.8466   -2.4787   -5.4764 H        1 ZINC000043206238    0.1500
53     H53     4.6139   -3.3552   -3.9151 H        1 ZINC000043206238    0.1400
54     H54     8.6722   -6.0572   -6.3541 H        1 ZINC000043206238    0.0800
55     H55     8.2411   -6.2635   -4.6395 H        1 ZINC000043206238    0.0800
56     H56     7.4637   -4.5479   -7.7579 H        1 ZINC000043206238    0.1500
57     H57     5.9225   -0.0847   -5.0010 H        1 ZINC000043206238    0.4400
58     H58     5.4897    0.1902   -0.1494 H        1 ZINC000043206238    0.1600
59     H59     4.6171    2.1164    1.1122 H        1 ZINC000043206238    0.1400
60     H60     4.4858    4.6005    1.3830 H        1 ZINC000043206238    0.1200
61     H61     4.7948    6.9047    0.3675 H        1 ZINC000043206238    0.1000
62     H62     5.1230    6.1360   -1.2766 H        1 ZINC000043206238    0.1000
63     H63     2.8235    5.0661   -1.2353 H        1 ZINC000043206238    0.1000
64     H64     2.4953    5.8347    0.4088 H        1 ZINC000043206238    0.1000
65     H65     5.4139    4.6602   -2.2169 H        1 ZINC000043206238    0.1400
66     H66     4.0396    0.3212   -2.0434 H        1 ZINC000043206238    0.1500
@<TRIPOS>BOND
1     1     2     1
2     1     41    1
3     1     42    1
4     1     43    1
5     2     3     1
6     2     4     1
7     2     5     1
8     3     44    1
9     3     45    1
10    3     46    1
11    4     47    1
12    4     48    1
13    4     49    1
14    5     6     am
15    5     50    1
16    6     7     2
17    6     8     1
18    8     40    ar
19    8     9     ar
20    9     10    ar
21    9     51    1
22    10    11    ar
23    10    52    1
24    11    12    1
25    11    25    ar
26    12    13    1
27    13    23    ar
28    13    14    ar
29    14    15    ar
30    14    53    1
31    15    16    1
32    15    17    ar
33    17    18    1
34    17    22    ar
35    18    19    1
36    18    54    1
37    18    55    1
38    19    20    ar
39    19    21    ar
40    22    23    ar
41    22    56    1
42    23    24    1
43    25    26    1
44    25    40    ar
45    26    27    am
46    26    57    1
47    27    28    2
48    27    29    2
49    27    30    1
50    30    38    ar
51    30    31    ar
52    31    32    ar
53    31    58    1
54    32    33    ar
55    32    59    1
56    33    34    1
57    33    37    ar
58    34    36    1
59    34    35    1
60    34    60    1
61    35    36    1
62    35    61    1
63    35    62    1
64    36    63    1
65    36    64    1
66    37    38    ar
67    37    65    1
68    38    39    1
69    40    66    1
@<TRIPOS>SUBSTRUCTURE
1   ZINC000043206238 1     RESIDUE    1   A     ZIN   1
