@<TRIPOS>MOLECULE
ZINC000003995923
  47   49    0    0    0
SMALL
USER_CHARGES
NO_NAME
@<TRIPOS>ATOM
    1 O1       -0.0173     1.4248     0.0099 O.3    1 <0>      -0.5500
    2 C2        0.0021    -0.0041     0.0020 C.3    1 <0>       0.1500
    3 H3       -1.0205    -0.3814     0.0098 H      1 <0>       0.1100
    4 C4        0.7421    -0.5109     1.2415 C.3    1 <0>      -0.1500
    5 C5       -0.0416    -0.1236     2.4973 C.3    1 <0>      -0.1200
    6 C6        0.6984    -0.6305     3.7368 C.3    1 <0>       0.0600
    7 N7       -0.0540    -0.2586     4.9424 N.3    1 <0>      -0.5400
    8 C8       -0.4920     1.1421     4.8785 C.3    1 <0>       0.0300
    9 C9       -1.4212     1.4377     6.0606 C.3    1 <0>       0.1300
   10 N10      -0.7320     1.0576     7.3031 N.pl3  1 <0>      -0.5800
   11 C11      -0.6389     1.9435     8.3641 C.ar   1 <0>       0.5600
   12 N12      -1.1850     3.1450     8.2523 N.ar   1 <0>      -0.5500
   13 C13      -1.1147     4.0155     9.2460 C.ar   1 <0>       0.1800
   14 C14      -0.4589     3.6559    10.4151 C.ar   1 <0>      -0.0800
   15 F15      -0.3684     4.5197    11.4499 F      1 <0>      -0.1300
   16 C16       0.1015     2.3890    10.4974 C.ar   1 <0>       0.1800
   17 N17      -0.0106     1.5662     9.4675 N.ar   1 <0>      -0.5500
   18 C18      -0.1448    -0.2881     7.3895 C.3    1 <0>       0.1300
   19 C19       0.7342    -0.5157     6.1551 C.3    1 <0>       0.0400
   20 C20       0.7074    -0.4901    -1.2379 C.ar   1 <0>      -0.1300
   21 C21       1.8429     0.1590    -1.6858 C.ar   1 <0>      -0.0800
   22 C22       2.4906    -0.2857    -2.8227 C.ar   1 <0>      -0.1500
   23 C23       2.0021    -1.3822    -3.5129 C.ar   1 <0>       0.1000
   24 F24       2.6348    -1.8182    -4.6242 F      1 <0>      -0.1400
   25 C25       0.8652    -2.0318    -3.0630 C.ar   1 <0>      -0.1500
   26 C26       0.2219    -1.5881    -1.9232 C.ar   1 <0>      -0.0800
   27 H27       0.8606     1.8301     0.0037 H      1 <0>       0.3700
   28 H28       0.8346    -1.5958     1.1912 H      1 <0>       0.0800
   29 H29       1.7350    -0.0630     1.2804 H      1 <0>       0.0700
   30 H30      -0.1341     0.9613     2.5476 H      1 <0>       0.0700
   31 H31      -1.0345    -0.5716     2.4584 H      1 <0>       0.0700
   32 H32       0.7909    -1.7154     3.6864 H      1 <0>       0.0800
   33 H33       1.6914    -0.1825     3.7756 H      1 <0>       0.0300
   34 H34       0.3776     1.7976     4.9267 H      1 <0>       0.0400
   35 H35      -1.0262     1.3139     3.9441 H      1 <0>       0.1000
   36 H36      -1.6574     2.5015     6.0836 H      1 <0>       0.1000
   37 H37      -2.3388     0.8581     5.9589 H      1 <0>       0.0800
   38 H38      -1.5616     4.9939     9.1486 H      1 <0>       0.1800
   39 H39       0.6192     2.0771    11.3925 H      1 <0>       0.1800
   40 H40       0.4630    -0.3652     8.2910 H      1 <0>       0.1000
   41 H41      -0.9396    -1.0335     7.4155 H      1 <0>       0.0800
   42 H42       1.0893    -1.5462     6.1464 H      1 <0>       0.0900
   43 H43       1.5867     0.1629     6.1854 H      1 <0>       0.0400
   44 H44       2.2236     1.0143    -1.1473 H      1 <0>       0.1300
   45 H45       3.3771     0.2219    -3.1729 H      1 <0>       0.1400
   46 H46       0.4831    -2.8870    -3.6008 H      1 <0>       0.1400
   47 H47      -0.6648    -2.0949    -1.5719 H      1 <0>       0.1400
@<TRIPOS>BOND
   1    1    2 1
   2    1   27 1
   3    2    3 1
   4    2    4 1
   5    2   20 1
   6    4    5 1
   7    4   28 1
   8    4   29 1
   9    5    6 1
  10    5   30 1
  11    5   31 1
  12    6    7 1
  13    6   32 1
  14    6   33 1
  15    7   19 1
  16    7    8 1
  17    8    9 1
  18    8   34 1
  19    8   35 1
  20    9   10 1
  21    9   36 1
  22    9   37 1
  23   10   11 1
  24   10   18 1
  25   11   17 ar
  26   11   12 ar
  27   12   13 ar
  28   13   14 ar
  29   13   38 1
  30   14   15 1
  31   14   16 ar
  32   16   17 ar
  33   16   39 1
  34   18   19 1
  35   18   40 1
  36   18   41 1
  37   19   42 1
  38   19   43 1
  39   20   26 ar
  40   20   21 ar
  41   21   22 ar
  42   21   44 1
  43   22   23 ar
  44   22   45 1
  45   23   24 1
  46   23   25 ar
  47   25   26 ar
  48   25   46 1
  49   26   47 1
