@<TRIPOS>MOLECULE
ZINC000005161047
  48   50    0    0    0
SMALL
USER_CHARGES
NO_NAME
@<TRIPOS>ATOM
    1 C1       -0.0184     1.5028     0.0103 C.3    1 <0>      -0.1100
    2 C2        0.0021    -0.0041     0.0020 C.ar   1 <0>       0.1700
    3 C3        0.0055    -0.6786    -1.2027 C.ar   1 <0>      -0.1900
    4 C4        0.0225    -2.0665    -1.1993 C.ar   1 <0>      -0.0400
    5 C5        0.0364    -2.7256     0.0183 C.ar   1 <0>      -0.2000
    6 C6        0.0544    -4.2282     0.0486 C.3    1 <0>      -0.0300
    7 C7       -0.3564    -4.7328     1.4055 C.ar   1 <0>      -0.1500
    8 C8       -0.7566    -6.0494     1.5468 C.ar   1 <0>      -0.0700
    9 C9       -1.1366    -6.5320     2.7849 C.ar   1 <0>      -0.1000
   10 C10      -1.5716    -7.9672     2.9329 C.3    1 <0>      -0.0300
   11 H11      -1.5215    -8.4638     1.9640 H      1 <0>       0.1200
   12 C12      -0.6465    -8.6812     3.9205 C.3    1 <0>      -0.1500
   13 C13      -2.9871    -8.0125     3.4480 C.2    1 <0>       0.4700
   14 O14      -3.5817    -6.9848     3.6719 O.2    1 <0>      -0.4900
   15 O15      -3.5874    -9.1946     3.6580 O.3    1 <0>      -0.3300
   16 C16      -4.9514    -9.1622     4.1549 C.3    1 <0>       0.0500
   17 C17      -5.4563   -10.5714     4.3286 C.2    1 <0>       0.5100
   18 O18      -4.7374   -11.5106     4.0600 O.2    1 <0>      -0.5100
   19 N19      -6.7068   -10.7881     4.7823 N.am   1 <0>      -0.6200
   20 C20      -7.1976   -12.1580     4.9511 C.3    1 <0>       0.0900
   21 C21      -7.5751    -9.6537     5.1066 C.3    1 <0>       0.0700
   22 C22      -1.1173    -5.6984     3.8877 C.ar   1 <0>      -0.0500
   23 C23      -0.7186    -4.3837     3.7525 C.ar   1 <0>      -0.1200
   24 C24      -0.3368    -3.8947     2.5084 C.ar   1 <0>       0.1300
   25 O25       0.0504    -2.6015     2.3976 O.3    1 <0>      -0.2300
   26 C26       0.0338    -1.9865     1.1917 C.ar   1 <0>       0.3300
   27 N27       0.0218    -0.6603     1.1447 N.ar   1 <0>      -0.4900
   28 H28       1.0042     1.8801     0.0026 H      1 <0>       0.0800
   29 H29      -0.5455     1.8639    -0.8728 H      1 <0>       0.0800
   30 H30      -0.5286     1.8543     0.9071 H      1 <0>       0.0800
   31 H31      -0.0052    -0.1337    -2.1350 H      1 <0>       0.1400
   32 H32       0.0246    -2.6204    -2.1265 H      1 <0>       0.1400
   33 H33      -0.6368    -4.6115    -0.7021 H      1 <0>       0.0900
   34 H34       1.0609    -4.5805    -0.1767 H      1 <0>       0.1000
   35 H35      -0.7726    -6.7024     0.6867 H      1 <0>       0.1300
   36 H36      -0.6966    -8.1846     4.8894 H      1 <0>       0.0600
   37 H37      -0.9611    -9.7193     4.0275 H      1 <0>       0.0800
   38 H38       0.3774    -8.6485     3.5479 H      1 <0>       0.0800
   39 H39      -4.9762    -8.6464     5.1148 H      1 <0>       0.1000
   40 H40      -5.5852    -8.6344     3.4423 H      1 <0>       0.1000
   41 H41      -6.9678   -12.5048     5.9586 H      1 <0>       0.0600
   42 H42      -8.2765   -12.1790     4.7969 H      1 <0>       0.0700
   43 H43      -6.7138   -12.8096     4.2234 H      1 <0>       0.0800
   44 H44      -7.0412    -8.7221     4.9189 H      1 <0>       0.0800
   45 H45      -8.4696    -9.6914     4.4849 H      1 <0>       0.0700
   46 H46      -7.8607    -9.7034     6.1574 H      1 <0>       0.0700
   47 H47      -1.4137    -6.0760     4.8551 H      1 <0>       0.1300
   48 H48      -0.7042    -3.7336     4.6147 H      1 <0>       0.1400
@<TRIPOS>BOND
   1    1    2 1
   2    1   28 1
   3    1   29 1
   4    1   30 1
   5    2   27 ar
   6    2    3 ar
   7    3    4 ar
   8    3   31 1
   9    4    5 ar
  10    4   32 1
  11    5   26 ar
  12    5    6 1
  13    6    7 1
  14    6   33 1
  15    6   34 1
  16    7   24 ar
  17    7    8 ar
  18    8    9 ar
  19    8   35 1
  20    9   10 1
  21    9   22 ar
  22   10   11 1
  23   10   12 1
  24   10   13 1
  25   12   36 1
  26   12   37 1
  27   12   38 1
  28   13   14 2
  29   13   15 1
  30   15   16 1
  31   16   17 1
  32   16   39 1
  33   16   40 1
  34   17   18 2
  35   17   19 am
  36   19   20 1
  37   19   21 1
  38   20   41 1
  39   20   42 1
  40   20   43 1
  41   21   44 1
  42   21   45 1
  43   21   46 1
  44   22   23 ar
  45   22   47 1
  46   23   24 ar
  47   23   48 1
  48   24   25 1
  49   25   26 1
  50   26   27 ar
