@<TRIPOS>MOLECULE
ZINC000013513592
55    58    1     0     0
SMALL
USER_CHARGES
@<TRIPOS>ATOM
1      C1     -0.7877    1.4335   -0.3338 C.3      1 ZINC000013513592   -0.1300
2      C2     -0.8669   -0.0941   -0.3030 C.3      1 ZINC000013513592   -0.0500
3      C3     -2.2211   -0.5443    0.2155 C.3      1 ZINC000013513592   -0.1400
4      C4     -2.4242    0.1192    1.5865 C.3      1 ZINC000013513592    0.1100
5      H5     -3.3778   -0.2072    2.0016 H        1 ZINC000013513592    0.0600
6      O6     -2.4511    1.5380    1.4180 O.3      1 ZINC000013513592   -0.5400
7      C7     -1.3075   -0.2433    2.5609 C.3      1 ZINC000013513592   -0.0600
8      H8     -1.3605   -1.3097    2.7801 H        1 ZINC000013513592    0.0800
9      C9      0.0786    0.0802    1.9843 C.3      1 ZINC000013513592   -0.0800
10     H10     0.1744    1.1543    1.8257 H        1 ZINC000013513592    0.1000
11     C11     1.1506   -0.4007    2.9667 C.3      1 ZINC000013513592   -0.1100
12     C12     1.0456    0.4091    4.2607 C.3      1 ZINC000013513592   -0.1000
13     C13    -0.3704    0.2971    4.7954 C.2      1 ZINC000013513592   -0.0100
14     C14    -0.5243   -0.0067    6.0841 C.2      1 ZINC000013513592   -0.2500
15     C15    -1.8701   -0.1127    6.6579 C.2      1 ZINC000013513592    0.3900
16     O16    -2.0830   -0.7372    7.6761 O.2      1 ZINC000013513592   -0.4600
17     C17    -2.9810    0.5999    5.9115 C.3      1 ZINC000013513592   -0.1700
18     C18    -2.8744    0.1982    4.4411 C.3      1 ZINC000013513592   -0.1000
19     C19    -1.5001    0.5435    3.8632 C.3      1 ZINC000013513592   -0.0300
20     C20    -1.4976    2.0305    3.5030 C.3      1 ZINC000013513592   -0.1400
21     C21     0.2001   -0.6763    0.6624 C.3      1 ZINC000013513592   -0.0800
22     H22     0.0194   -1.7384    0.8283 H        1 ZINC000013513592    0.0700
23     C23     1.5004   -0.4901   -0.1124 C.3      1 ZINC000013513592   -0.1100
24     C24     1.1018   -0.5728   -1.6070 C.3      1 ZINC000013513592   -0.1100
25     C25    -0.4213   -0.6812   -1.6472 C.3      1 ZINC000013513592   -0.1300
26     H26    -0.7325   -1.7246   -1.6983 H        1 ZINC000013513592    0.0900
27     C27    -0.9809    0.0975   -2.8097 C.2      1 ZINC000013513592    0.3600
28     O28    -1.2006    1.2794   -2.6949 O.2      1 ZINC000013513592   -0.4200
29     C29    -1.2662   -0.5986   -4.1155 C.3      1 ZINC000013513592    0.0200
30     O30    -1.7867    0.3446   -5.0543 O.3      1 ZINC000013513592   -0.5600
31     H31     0.0922    1.7404   -0.8991 H        1 ZINC000013513592    0.0400
32     H32    -1.6830    1.8343   -0.8091 H        1 ZINC000013513592    0.0600
33     H33    -0.7159    1.8142    0.6851 H        1 ZINC000013513592    0.0900
34     H34    -3.0060   -0.2265   -0.4708 H        1 ZINC000013513592    0.0700
35     H35    -2.2362   -1.6290    0.3219 H        1 ZINC000013513592    0.0700
36     H36    -3.1577    1.8518    0.8372 H        1 ZINC000013513592    0.3700
37     H37     0.9969   -1.4576    3.1849 H        1 ZINC000013513592    0.0600
38     H38     2.1378   -0.2584    2.5270 H        1 ZINC000013513592    0.0700
39     H39     1.7461    0.0143    4.9965 H        1 ZINC000013513592    0.0800
40     H40     1.2775    1.4545    4.0571 H        1 ZINC000013513592    0.0800
41     H41     0.3424   -0.1753    6.7060 H        1 ZINC000013513592    0.1300
42     H42    -3.9491    0.2957    6.3094 H        1 ZINC000013513592    0.0900
43     H43    -2.8611    1.6787    6.0105 H        1 ZINC000013513592    0.1000
44     H44    -3.0351   -0.8764    4.3537 H        1 ZINC000013513592    0.0600
45     H45    -3.6458    0.7188    3.8737 H        1 ZINC000013513592    0.0800
46     H46    -1.2923    2.6204    4.3962 H        1 ZINC000013513592    0.0400
47     H47    -0.7273    2.2222    2.7560 H        1 ZINC000013513592    0.0700
48     H48    -2.4716    2.3083    3.1000 H        1 ZINC000013513592    0.0900
49     H49     1.9358    0.4844    0.1090 H        1 ZINC000013513592    0.0700
50     H50     2.2047   -1.2843    0.1352 H        1 ZINC000013513592    0.0700
51     H51     1.4030    0.3374   -2.1255 H        1 ZINC000013513592    0.0700
52     H52     1.5696   -1.4408   -2.0715 H        1 ZINC000013513592    0.0700
53     H53    -0.3445   -1.0296   -4.5064 H        1 ZINC000013513592    0.0800
54     H54    -1.9972   -1.3906   -3.9528 H        1 ZINC000013513592    0.0800
55     H55    -1.9936   -0.0347   -5.9194 H        1 ZINC000013513592    0.3900
@<TRIPOS>BOND
1     1     2     1
2     1     31    1
3     1     32    1
4     1     33    1
5     2     21    1
6     2     25    1
7     2     3     1
8     3     4     1
9     3     34    1
10    3     35    1
11    4     5     1
12    4     6     1
13    4     7     1
14    6     36    1
15    7     8     1
16    7     19    1
17    7     9     1
18    9     10    1
19    9     11    1
20    9     21    1
21    11    12    1
22    11    37    1
23    11    38    1
24    12    13    1
25    12    39    1
26    12    40    1
27    13    19    1
28    13    14    2
29    14    15    1
30    14    41    1
31    15    16    2
32    15    17    1
33    17    18    1
34    17    42    1
35    17    43    1
36    18    19    1
37    18    44    1
38    18    45    1
39    19    20    1
40    20    46    1
41    20    47    1
42    20    48    1
43    21    22    1
44    21    23    1
45    23    24    1
46    23    49    1
47    23    50    1
48    24    25    1
49    24    51    1
50    24    52    1
51    25    26    1
52    25    27    1
53    27    28    2
54    27    29    1
55    29    30    1
56    29    53    1
57    29    54    1
58    30    55    1
@<TRIPOS>SUBSTRUCTURE
1   ZINC000013513592 1     RESIDUE    1   A     ZIN   1
