@<TRIPOS>MOLECULE
ZINC000034380900
25    25    1     0     0
SMALL
USER_CHARGES
@<TRIPOS>ATOM
1      C1      0.4116    1.9496    0.3412 C.3      1 ZINC000034380900   -0.1900
2      C2      0.3144    0.4346    0.1505 C.3      1 ZINC000034380900    0.3700
3      H3      0.8498    0.1477   -0.7545 H        1 ZINC000034380900    0.1500
4      N4     -1.0994    0.0461    0.0271 N.pl3    1 ZINC000034380900   -0.7400
5      C5     -1.8068   -0.0857    1.2176 C.2      1 ZINC000034380900    0.6000
6      N6     -2.9751    0.4591    1.4044 N.2      1 ZINC000034380900   -0.6500
7      N7     -1.1683   -0.8462    2.1936 N.pl3    1 ZINC000034380900   -0.6700
8      C8      0.2120   -0.8033    2.2343 C.cat    1 ZINC000034380900    0.7400
9      N9      0.8645   -1.3779    3.2990 N.pl3    1 ZINC000034380900   -0.6200
10     C10     2.1467   -2.0559    3.0930 C.3      1 ZINC000034380900    0.0700
11     C11     0.2778   -1.3122    4.6398 C.3      1 ZINC000034380900    0.0700
12     N12     0.9092   -0.2399    1.3023 N.pl3    1 ZINC000034380900   -0.6400
13     H13     1.8764   -0.2663    1.3709 H        1 ZINC000034380900    0.4400
14     H14     1.4588    2.2380    0.4316 H        1 ZINC000034380900    0.0900
15     H15    -0.0311    2.4531   -0.5182 H        1 ZINC000034380900    0.1000
16     H16    -0.1238    2.2370    1.2461 H        1 ZINC000034380900    0.0700
17     H17    -1.5148   -0.1089   -0.8356 H        1 ZINC000034380900    0.4500
18     H18    -3.4349    0.3424    2.2505 H        1 ZINC000034380900    0.3700
19     H19    -1.6736   -1.3857    2.8216 H        1 ZINC000034380900    0.4500
20     H20     2.3766   -2.0826    2.0278 H        1 ZINC000034380900    0.0800
21     H21     2.9325   -1.5155    3.6208 H        1 ZINC000034380900    0.0900
22     H22     2.0851   -3.0742    3.4770 H        1 ZINC000034380900    0.1000
23     H23    -0.3629   -2.1796    4.7989 H        1 ZINC000034380900    0.0800
24     H24     1.0735   -1.3067    5.3847 H        1 ZINC000034380900    0.1100
25     H25    -0.3138   -0.4015    4.7333 H        1 ZINC000034380900    0.0800
@<TRIPOS>BOND
1     1     2     1
2     1     14    1
3     1     15    1
4     1     16    1
5     2     3     1
6     2     12    1
7     2     4     1
8     4     5     1
9     4     17    1
10    5     6     2
11    5     7     1
12    6     18    1
13    7     8     ar
14    7     19    1
15    8     9     ar
16    8     12    ar
17    9     10    1
18    9     11    1
19    10    20    1
20    10    21    1
21    10    22    1
22    11    23    1
23    11    24    1
24    11    25    1
25    12    13    1
@<TRIPOS>SUBSTRUCTURE
1   ZINC000034380900 1     RESIDUE    1   A     ZIN   1
