@<TRIPOS>MOLECULE
ZINC000052509437
57    59    1     0     0
SMALL
USER_CHARGES
@<TRIPOS>ATOM
1      C1     -0.3680   -0.1633    5.1378 C.3      1 ZINC000052509437   -0.1500
2      C2     -0.3728   -1.5808    4.5619 C.3      1 ZINC000052509437   -0.0800
3      C3     -0.0887   -2.5863    5.6796 C.3      1 ZINC000052509437   -0.1600
4      C4     -1.7418   -1.8763    3.9459 C.3      1 ZINC000052509437   -0.1300
5      C5     -1.7088   -3.2235    3.2713 C.2      1 ZINC000052509437    0.5100
6      O6     -0.6905   -3.8824    3.2821 O.2      1 ZINC000052509437   -0.4800
7      N7     -2.8108   -3.6961    2.6559 N.am     1 ZINC000052509437   -0.6400
8      C8     -2.7801   -4.9491    2.0285 C.2      1 ZINC000052509437    0.3400
9      N9     -1.7495   -5.7582    1.9737 N.2      1 ZINC000052509437   -0.2500
10     N10    -2.1292   -6.9013    1.2599 N.pl3    1 ZINC000052509437   -0.4400
11     C11    -3.4208   -6.7526    0.8879 C.2      1 ZINC000052509437    0.0900
12     C12    -3.8511   -5.5612    1.3526 C.2      1 ZINC000052509437   -0.2900
13     C13    -5.2919   -5.3610    0.9553 C.3      1 ZINC000052509437    0.1900
14     N14    -5.7097   -6.5469    0.1987 N.am     1 ZINC000052509437   -0.6100
15     C15    -6.9236   -6.7751   -0.3407 C.2      1 ZINC000052509437    0.5500
16     O16    -7.1089   -7.7615   -1.0215 O.2      1 ZINC000052509437   -0.5200
17     C17    -8.0506   -5.8046   -0.0978 C.3      1 ZINC000052509437   -0.1000
18     C18    -8.1166   -4.7983   -1.2500 C.3      1 ZINC000052509437   -0.1000
19     C19    -9.3001   -3.8536   -1.0286 C.3      1 ZINC000052509437    0.0600
20     N20   -10.5436   -4.6318   -0.9629 N.3      1 ZINC000052509437   -0.5400
21     C21   -11.7146   -3.7479   -0.8896 C.3      1 ZINC000052509437    0.0200
22     C22   -10.5226   -5.5721    0.1649 C.3      1 ZINC000052509437    0.0600
23     C23    -9.3757   -6.5681   -0.0208 C.3      1 ZINC000052509437   -0.1000
24     C24    -4.5437   -7.4365    0.1498 C.3      1 ZINC000052509437    0.2400
25     C25    -4.1329   -7.6750   -1.3046 C.3      1 ZINC000052509437   -0.1600
26     C26    -4.8786   -8.7693    0.8224 C.3      1 ZINC000052509437   -0.1600
27     H27     0.6073    0.0473    5.5767 H        1 ZINC000052509437    0.0600
28     H28    -0.5705    0.5531    4.3416 H        1 ZINC000052509437    0.0600
29     H29    -1.1374   -0.0804    5.9054 H        1 ZINC000052509437    0.0600
30     H30     0.3965   -1.6637    3.7943 H        1 ZINC000052509437    0.0800
31     H31    -0.0921   -3.5961    5.2693 H        1 ZINC000052509437    0.0700
32     H32     0.8866   -2.3757    6.1184 H        1 ZINC000052509437    0.0500
33     H33    -0.8580   -2.5033    6.4472 H        1 ZINC000052509437    0.0500
34     H34    -2.4995   -1.8808    4.7295 H        1 ZINC000052509437    0.1000
35     H35    -1.9833   -1.1080    3.2115 H        1 ZINC000052509437    0.1000
36     H36    -3.6251   -3.1692    2.6473 H        1 ZINC000052509437    0.4200
37     H37    -1.5646   -7.6657    1.0658 H        1 ZINC000052509437    0.4400
38     H38    -5.9101   -5.2539    1.8467 H        1 ZINC000052509437    0.0800
39     H39    -5.3835   -4.4723    0.3308 H        1 ZINC000052509437    0.0800
40     H40    -7.8800   -5.2756    0.8398 H        1 ZINC000052509437    0.0900
41     H41    -7.1921   -4.2219   -1.2831 H        1 ZINC000052509437    0.0700
42     H42    -8.2477   -5.3313   -2.1916 H        1 ZINC000052509437    0.0800
43     H43    -9.1615   -3.3108   -0.0935 H        1 ZINC000052509437    0.0400
44     H44    -9.3584   -3.1448   -1.8546 H        1 ZINC000052509437    0.0800
45     H45   -11.7462   -3.1126   -1.7748 H        1 ZINC000052509437    0.0700
46     H46   -12.6219   -4.3500   -0.8419 H        1 ZINC000052509437    0.0700
47     H47   -11.6445   -3.1251    0.0023 H        1 ZINC000052509437    0.0300
48     H48   -10.3783   -5.0212    1.0944 H        1 ZINC000052509437    0.0300
49     H49   -11.4689   -6.1114    0.2058 H        1 ZINC000052509437    0.0800
50     H50    -9.5266   -7.1290   -0.9432 H        1 ZINC000052509437    0.0900
51     H51    -9.3507   -7.2561    0.8242 H        1 ZINC000052509437    0.0700
52     H52    -3.8793   -6.7232   -1.7713 H        1 ZINC000052509437    0.0600
53     H53    -3.2668   -8.3362   -1.3338 H        1 ZINC000052509437    0.0700
54     H54    -4.9600   -8.1356   -1.8449 H        1 ZINC000052509437    0.0900
55     H55    -5.7124   -9.2398    0.3014 H        1 ZINC000052509437    0.0800
56     H56    -4.0088   -9.4250    0.7827 H        1 ZINC000052509437    0.0700
57     H57    -5.1532   -8.5926    1.8623 H        1 ZINC000052509437    0.0600
@<TRIPOS>BOND
1     1     2     1
2     1     27    1
3     1     28    1
4     1     29    1
5     2     3     1
6     2     4     1
7     2     30    1
8     3     31    1
9     3     32    1
10    3     33    1
11    4     5     1
12    4     34    1
13    4     35    1
14    5     6     2
15    5     7     am
16    7     8     1
17    7     36    1
18    8     12    1
19    8     9     2
20    9     10    1
21    10    11    1
22    10    37    1
23    11    24    1
24    11    12    2
25    12    13    1
26    13    14    1
27    13    38    1
28    13    39    1
29    14    15    am
30    14    24    1
31    15    16    2
32    15    17    1
33    17    23    1
34    17    18    1
35    17    40    1
36    18    19    1
37    18    41    1
38    18    42    1
39    19    20    1
40    19    43    1
41    19    44    1
42    20    21    1
43    20    22    1
44    21    45    1
45    21    46    1
46    21    47    1
47    22    23    1
48    22    48    1
49    22    49    1
50    23    50    1
51    23    51    1
52    24    25    1
53    24    26    1
54    25    52    1
55    25    53    1
56    25    54    1
57    26    55    1
58    26    56    1
59    26    57    1
@<TRIPOS>SUBSTRUCTURE
1   ZINC000052509437 1     RESIDUE    1   A     ZIN   1
