@<TRIPOS>MOLECULE
ZINC000095558579
  30   32    0    0    0
SMALL
USER_CHARGES
NO_NAME
@<TRIPOS>ATOM
    1 N1        0.0384     1.2358    -0.1113 N.2    1 <0>      -0.7400
    2 C2        0.0390    -0.0674    -0.1869 C.2    1 <0>       0.4800
    3 N3        1.2312    -0.7506    -0.3132 N.pl3  1 <0>      -0.8900
    4 C4       -1.2331    -0.8088    -0.1374 C.2    1 <0>      -0.1500
    5 C5       -2.4368    -0.2435    -0.0225 C.2    1 <0>      -0.0500
    6 C6       -3.5251    -1.1325     0.0062 C.ar   1 <0>      -0.0800
    7 C7       -4.9053    -0.8409     0.1192 C.ar   1 <0>      -0.0500
    8 C8       -5.8245    -1.8416     0.1308 C.ar   1 <0>      -0.1200
    9 C9       -5.4254    -3.1735     0.0317 C.ar   1 <0>       0.1100
   10 O10      -6.3557    -4.1638     0.0447 O.3    1 <0>      -0.2900
   11 C11      -6.4059    -4.9715     1.1241 C.2    1 <0>       0.5400
   12 O12      -5.7056    -4.7387     2.0910 O.2    1 <0>      -0.4800
   13 C13      -7.3032    -6.1281     1.1317 C.2    1 <0>      -0.2700
   14 C14      -7.4472    -7.0139     2.1637 C.2    1 <0>      -0.0400
   15 C15      -8.3601    -8.0074     1.9035 C.2    1 <0>      -0.1600
   16 C16      -8.9452    -7.9406     0.7014 C.2    1 <0>      -0.2200
   17 S17      -8.3742    -6.5970    -0.1817 S.3    1 <0>       0.2600
   18 C18      -4.0861    -3.4870    -0.0801 C.ar   1 <0>      -0.0900
   19 C19      -3.1267    -2.4715    -0.0938 C.ar   1 <0>      -0.1200
   20 S20      -1.3739    -2.5555    -0.2291 S.3    1 <0>       0.1300
   21 H21       0.8760     1.7240    -0.1439 H      1 <0>       0.3400
   22 H22       2.0688    -0.2625    -0.3457 H      1 <0>       0.4000
   23 H23       1.2317    -1.7190    -0.3693 H      1 <0>       0.3900
   24 H24      -2.5659     0.8267     0.0445 H      1 <0>       0.1600
   25 H25      -5.2308     0.1859     0.1972 H      1 <0>       0.1400
   26 H26      -6.8741    -1.6028     0.2181 H      1 <0>       0.1400
   27 H27      -6.8978    -6.9401     3.0906 H      1 <0>       0.1600
   28 H28      -8.5887    -8.7855     2.6167 H      1 <0>       0.1500
   29 H29      -9.6833    -8.6414     0.3402 H      1 <0>       0.1800
   30 H30      -3.7790    -4.5196    -0.1564 H      1 <0>       0.1300
@<TRIPOS>BOND
   1    1    2 2
   2    1   21 1
   3    2    3 1
   4    2    4 1
   5    3   22 1
   6    3   23 1
   7    4   20 1
   8    4    5 2
   9    5    6 1
  10    5   24 1
  11    6   19 ar
  12    6    7 ar
  13    7    8 ar
  14    7   25 1
  15    8    9 ar
  16    8   26 1
  17    9   10 1
  18    9   18 ar
  19   10   11 1
  20   11   12 2
  21   11   13 1
  22   13   17 1
  23   13   14 2
  24   14   15 1
  25   14   27 1
  26   15   16 2
  27   15   28 1
  28   16   17 1
  29   16   29 1
  30   18   19 ar
  31   18   30 1
  32   19   20 1
