@<TRIPOS>MOLECULE
ZINC000003830407
  42   45    0    0    0
SMALL
USER_CHARGES
NO_NAME
@<TRIPOS>ATOM
    1 C1        0.0401     1.5049    -0.0200 C.3    1 <0>      -0.0700
    2 C2        0.0533    -0.0020    -0.0234 C.2    1 <0>       0.0200
    3 N3        0.0193    -0.7612    -1.0698 N.2    1 <0>      -0.2500
    4 N4        0.0378    -2.0099    -0.8954 N.2    1 <0>      -0.2700
    5 C5        0.0901    -2.4477     0.3308 C.2    1 <0>       0.0100
    6 S6        0.1257    -4.1367     0.8314 S.3    1 <0>       0.0400
    7 C7        0.0689    -4.9454    -0.7869 C.3    1 <0>      -0.0400
    8 C8        0.0901    -6.4409    -0.6021 C.2    1 <0>      -0.2200
    9 C9       -1.0764    -7.0600    -0.7334 C.2    1 <0>       0.1700
   10 C10      -2.2973    -6.2791    -0.9905 C.2    1 <0>       0.5300
   11 O11      -2.6889    -6.1161    -2.1381 O.co2  1 <0>      -0.6500
   12 O12      -2.9205    -5.7929    -0.0566 O.co2  1 <0>      -0.6500
   13 N13      -1.1483    -8.4553    -0.6283 N.am   1 <0>      -0.5500
   14 C14      -1.8713    -9.5063    -0.9944 C.2    1 <0>       0.5200
   15 O15      -3.0200    -9.6133    -1.3689 O.2    1 <0>      -0.4600
   16 C16      -0.7743   -10.5239    -0.7851 C.3    1 <0>       0.1400
   17 H17      -0.2541   -10.8195    -1.6962 H      1 <0>       0.1700
   18 N18      -1.1527   -11.6566     0.0635 N.am   1 <0>      -0.7000
   19 C19      -1.4106   -12.8575    -0.4912 C.2    1 <0>       0.5100
   20 O20      -1.3294   -13.0005    -1.6928 O.2    1 <0>      -0.4900
   21 C21      -1.7999   -14.0227     0.3817 C.3    1 <0>       0.1000
   22 N22      -2.0252   -15.2049    -0.4537 N.pl3  1 <0>      -0.3000
   23 C23      -1.4340   -16.4061    -0.3153 C.2    1 <0>       0.1600
   24 N24      -1.9160   -17.1739    -1.2619 N.2    1 <0>      -0.3100
   25 N25      -2.7592   -16.4805    -1.9460 N.2    1 <0>      -0.0800
   26 N26      -2.8318   -15.2918    -1.4569 N.2    1 <0>      -0.0600
   27 C27      -0.1290    -9.3686    -0.0405 C.3    1 <0>       0.1100
   28 H28      -0.1639    -9.4544     1.0456 H      1 <0>       0.1300
   29 S29       1.4925    -8.8321    -0.6815 S.3    1 <0>      -0.2300
   30 C30       1.4225    -7.0446    -0.2995 C.3    1 <0>      -0.0100
   31 S31       0.1257    -1.0435     1.3995 S.3    1 <0>       0.0800
   32 H32       1.0635     1.8774    -0.0647 H      1 <0>       0.0900
   33 H33      -0.5158     1.8654    -0.8855 H      1 <0>       0.0900
   34 H34      -0.4369     1.8620     0.8927 H      1 <0>       0.0800
   35 H35      -0.8451    -4.6563    -1.3056 H      1 <0>       0.1200
   36 H36       0.9334    -4.6398    -1.3763 H      1 <0>       0.1000
   37 H37      -1.2177   -11.5422     1.0245 H      1 <0>       0.4100
   38 H38      -0.9994   -14.2274     1.0927 H      1 <0>       0.1500
   39 H39      -2.7142   -13.7811     0.9237 H      1 <0>       0.1400
   40 H40      -0.7038   -16.6833     0.4306 H      1 <0>       0.2400
   41 H41       2.1956    -6.5302    -0.8704 H      1 <0>       0.1200
   42 H42       1.6162    -6.9021     0.7636 H      1 <0>       0.0900
@<TRIPOS>BOND
   1    1    2 1
   2    1   32 1
   3    1   33 1
   4    1   34 1
   5    2   31 1
   6    2    3 2
   7    3    4 1
   8    4    5 2
   9    5    6 1
  10    5   31 1
  11    6    7 1
  12    7    8 1
  13    7   35 1
  14    7   36 1
  15    8   30 1
  16    8    9 2
  17    9   10 1
  18    9   13 1
  19   10   11 ar
  20   10   12 ar
  21   13   27 1
  22   13   14 am
  23   14   15 2
  24   14   16 1
  25   16   17 1
  26   16   18 1
  27   16   27 1
  28   18   19 am
  29   18   37 1
  30   19   20 2
  31   19   21 1
  32   21   22 1
  33   21   38 1
  34   21   39 1
  35   22   26 1
  36   22   23 1
  37   23   24 2
  38   23   40 1
  39   24   25 1
  40   25   26 2
  41   27   28 1
  42   27   29 1
  43   29   30 1
  44   30   41 1
  45   30   42 1
