@<TRIPOS>MOLECULE
ZINC000013900750
62    65    1     0     0
SMALL
USER_CHARGES
@<TRIPOS>ATOM
1      C1      0.3051    1.5168   -0.1743 C.3      1 ZINC000013900750   -0.1500
2      C2      0.4608   -0.0048   -0.2126 C.3      1 ZINC000013900750    0.0600
3      O3      0.8528   -0.4761    1.0783 O.3      1 ZINC000013900750   -0.3600
4      C4      1.0340   -1.8062    1.2158 C.2      1 ZINC000013900750    0.5200
5      O5      0.8634   -2.5450    0.2642 O.2      1 ZINC000013900750   -0.5200
6      C6      1.4224   -2.3418    2.4668 C.2      1 ZINC000013900750   -0.3000
7      C7      1.4677   -3.6767    2.6432 C.2      1 ZINC000013900750    0.2600
8      C8      0.8805   -4.6120    1.6096 C.3      1 ZINC000013900750   -0.1100
9      C9      0.1007   -5.7022    2.3583 C.3      1 ZINC000013900750   -0.0700
10     C10    -1.0002   -5.0577    3.2029 C.3      1 ZINC000013900750   -0.1500
11     C11    -0.5247   -6.6694    1.3512 C.3      1 ZINC000013900750   -0.1100
12     C12    -1.3009   -7.7544    2.1004 C.3      1 ZINC000013900750   -0.1600
13     C13     1.0691   -6.4594    3.2688 C.3      1 ZINC000013900750   -0.1300
14     C14     1.8693   -5.5001    4.1013 C.2      1 ZINC000013900750    0.5200
15     O15     2.3774   -5.9067    5.1244 O.2      1 ZINC000013900750   -0.5200
16     N16     2.0533   -4.2162    3.7631 N.am     1 ZINC000013900750   -0.5300
17     C17     2.8888   -3.3659    4.6146 C.3      1 ZINC000013900750    0.1400
18     C18     4.3039   -3.3720    4.0964 C.ar     1 ZINC000013900750   -0.1100
19     C19     5.2002   -4.3223    4.5515 C.ar     1 ZINC000013900750   -0.1200
20     C20     6.4973   -4.3328    4.0805 C.ar     1 ZINC000013900750   -0.1100
21     C21     6.9036   -3.3836    3.1440 C.ar     1 ZINC000013900750   -0.0400
22     C22     8.2955   -3.3899    2.6338 C.ar     1 ZINC000013900750   -0.0400
23     C23     9.3661   -3.4441    3.5218 C.ar     1 ZINC000013900750   -0.1100
24     C24    10.6608   -3.4503    3.0424 C.ar     1 ZINC000013900750   -0.1400
25     C25    10.9028   -3.4028    1.6805 C.ar     1 ZINC000013900750   -0.1200
26     C26     9.8520   -3.3487    0.7862 C.ar     1 ZINC000013900750   -0.1000
27     C27     8.5410   -3.3471    1.2524 C.ar     1 ZINC000013900750    0.0500
28     C28     7.4092   -3.2896    0.2953 C.2      1 ZINC000013900750    0.0700
29     N29     6.1149   -3.2756    0.5967 N.2      1 ZINC000013900750   -0.3500
30     N30     5.4583   -3.2217   -0.5116 N.pl3    1 ZINC000013900750   -0.1900
31     N31     6.2901   -3.2014   -1.4939 N.2      1 ZINC000013900750   -0.1900
32     N32     7.4925   -3.2362   -1.0300 N.2      1 ZINC000013900750   -0.3700
33     C33     5.9958   -2.4286    2.6886 C.ar     1 ZINC000013900750    0.0100
34     C34     4.6999   -2.4309    3.1631 C.ar     1 ZINC000013900750   -0.1100
35     H35     1.2549    1.9723    0.1058 H        1 ZINC000013900750    0.0700
36     H36     0.0062    1.8763   -1.1589 H        1 ZINC000013900750    0.0800
37     H37    -0.4567    1.7858    0.5574 H        1 ZINC000013900750    0.0600
38     H38    -0.4890   -0.4603   -0.4927 H        1 ZINC000013900750    0.0600
39     H39     1.2226   -0.2738   -0.9443 H        1 ZINC000013900750    0.0700
40     H40     1.6825   -1.6804    3.2800 H        1 ZINC000013900750    0.1400
41     H41     0.2074   -4.0612    0.9526 H        1 ZINC000013900750    0.1400
42     H42     1.6805   -5.0654    1.0245 H        1 ZINC000013900750    0.1000
43     H43    -1.6808   -4.5069    2.5536 H        1 ZINC000013900750    0.0600
44     H44    -1.5524   -5.8334    3.7334 H        1 ZINC000013900750    0.0600
45     H45    -0.5519   -4.3735    3.9234 H        1 ZINC000013900750    0.0500
46     H46    -1.2039   -6.1232    0.6966 H        1 ZINC000013900750    0.0700
47     H47     0.2618   -7.1316    0.7546 H        1 ZINC000013900750    0.0700
48     H48    -1.7465   -8.4434    1.3829 H        1 ZINC000013900750    0.0500
49     H49    -0.6218   -8.3005    2.7550 H        1 ZINC000013900750    0.0600
50     H50    -2.0874   -7.2922    2.6970 H        1 ZINC000013900750    0.0600
51     H51     0.5031   -7.1199    3.9257 H        1 ZINC000013900750    0.1100
52     H52     1.7461   -7.0557    2.6570 H        1 ZINC000013900750    0.1100
53     H53     2.5017   -2.3470    4.6021 H        1 ZINC000013900750    0.0900
54     H54     2.8741   -3.7477    5.6354 H        1 ZINC000013900750    0.1000
55     H55     4.8843   -5.0572    5.2772 H        1 ZINC000013900750    0.1200
56     H56     7.1964   -5.0747    4.4371 H        1 ZINC000013900750    0.1100
57     H57     9.1840   -3.4810    4.5857 H        1 ZINC000013900750    0.1200
58     H58    11.4893   -3.4921    3.7339 H        1 ZINC000013900750    0.1200
59     H59    11.9191   -3.4077    1.3152 H        1 ZINC000013900750    0.1200
60     H60    10.0477   -3.3114   -0.2753 H        1 ZINC000013900750    0.1300
61     H61     6.3051   -1.6906    1.9633 H        1 ZINC000013900750    0.1100
62     H62     3.9957   -1.6918    2.8108 H        1 ZINC000013900750    0.1100
@<TRIPOS>BOND
1     1     2     1
2     1     35    1
3     1     36    1
4     1     37    1
5     2     3     1
6     2     38    1
7     2     39    1
8     3     4     1
9     4     5     2
10    4     6     1
11    6     7     2
12    6     40    1
13    7     16    1
14    7     8     1
15    8     9     1
16    8     41    1
17    8     42    1
18    9     10    1
19    9     11    1
20    9     13    1
21    10    43    1
22    10    44    1
23    10    45    1
24    11    12    1
25    11    46    1
26    11    47    1
27    12    48    1
28    12    49    1
29    12    50    1
30    13    14    1
31    13    51    1
32    13    52    1
33    14    15    2
34    14    16    am
35    16    17    1
36    17    18    1
37    17    53    1
38    17    54    1
39    18    34    ar
40    18    19    ar
41    19    20    ar
42    19    55    1
43    20    21    ar
44    20    56    1
45    21    22    1
46    21    33    ar
47    22    27    ar
48    22    23    ar
49    23    24    ar
50    23    57    1
51    24    25    ar
52    24    58    1
53    25    26    ar
54    25    59    1
55    26    27    ar
56    26    60    1
57    27    28    1
58    28    32    1
59    28    29    2
60    29    30    1
61    30    31    1
62    31    32    2
63    33    34    ar
64    33    61    1
65    34    62    1
@<TRIPOS>SUBSTRUCTURE
1   ZINC000013900750 1     RESIDUE    1   A     ZIN   1
