@<TRIPOS>MOLECULE
ZINC000000125025
28    28    1     0     0
SMALL
USER_CHARGES
@<TRIPOS>ATOM
1      C1     -0.0187    1.5258    0.0104 C.3      1 ZINC000000125025   -0.1600
2      C2      0.0021   -0.0041    0.0020 C.3      1 ZINC000000125025   -0.0100
3      N3      0.7126   -0.4907    1.1921 N.4      1 ZINC000000125025   -0.6100
4      H4      0.2403   -0.1653    2.0223 H        1 ZINC000000125025    0.4100
5      H5      0.7262   -1.4996    1.1866 H        1 ZINC000000125025    0.4300
6      H6      1.6592   -0.1415    1.1850 H        1 ZINC000000125025    0.4300
7      C7     -1.4333   -0.5336    0.0129 C.3      1 ZINC000000125025   -0.0800
8      C8     -2.1387   -0.0476    1.2528 C.ar     1 ZINC000000125025   -0.1000
9      C9     -2.0920   -0.7989    2.4119 C.ar     1 ZINC000000125025   -0.1400
10     C10    -2.7380   -0.3575    3.5521 C.ar     1 ZINC000000125025   -0.1200
11     C11    -3.4335    0.8403    3.5343 C.ar     1 ZINC000000125025    0.0800
12     O12    -4.0690    1.2760    4.6549 O.3      1 ZINC000000125025   -0.4900
13     C13    -3.4801    1.5972    2.3671 C.ar     1 ZINC000000125025    0.0900
14     O14    -4.1613    2.7741    2.3447 O.3      1 ZINC000000125025   -0.4800
15     C15    -2.8265    1.1518    1.2298 C.ar     1 ZINC000000125025   -0.1200
16     C16     0.7074   -0.4901   -1.2379 C.2      1 ZINC000000125025    0.5000
17     O17     1.7092   -1.1780   -1.1392 O.co2    1 ZINC000000125025   -0.6700
18     O18     0.2764   -0.1953   -2.3396 O.co2    1 ZINC000000125025   -0.6300
19     H19     1.0039    1.9031    0.0027 H        1 ZINC000000125025    0.0700
20     H20    -0.5459    1.8868   -0.8726 H        1 ZINC000000125025    0.1000
21     H21    -0.5289    1.8773    0.9072 H        1 ZINC000000125025    0.0700
22     H22    -1.9605   -0.1726   -0.8702 H        1 ZINC000000125025    0.1200
23     H23    -1.4185   -1.6235    0.0069 H        1 ZINC000000125025    0.0900
24     H24    -1.5501   -1.7330    2.4270 H        1 ZINC000000125025    0.1300
25     H25    -2.7005   -0.9469    4.4564 H        1 ZINC000000125025    0.1400
26     H26    -3.5212    1.8305    5.2272 H        1 ZINC000000125025    0.3900
27     H27    -3.6266    3.5426    2.5867 H        1 ZINC000000125025    0.3900
28     H28    -2.8612    1.7371    0.3229 H        1 ZINC000000125025    0.1400
@<TRIPOS>BOND
1     1     2     1
2     1     19    1
3     1     20    1
4     1     21    1
5     2     3     1
6     2     7     1
7     2     16    1
8     3     4     1
9     3     5     1
10    3     6     1
11    7     8     1
12    7     22    1
13    7     23    1
14    8     15    ar
15    8     9     ar
16    9     10    ar
17    9     24    1
18    10    11    ar
19    10    25    1
20    11    12    1
21    11    13    ar
22    12    26    1
23    13    14    1
24    13    15    ar
25    14    27    1
26    15    28    1
27    16    17    ar
28    16    18    ar
@<TRIPOS>SUBSTRUCTURE
1   ZINC000000125025 1     RESIDUE    1   A     ZIN   1
