@<TRIPOS>MOLECULE
ZINC000043199551
  49   51    0    0    0
SMALL
USER_CHARGES
NO_NAME
@<TRIPOS>ATOM
    1 C1       -0.0173     1.4248     0.0099 C.3    1 <0>       0.0200
    2 O2        0.0021    -0.0041     0.0020 O.3    1 <0>      -0.3000
    3 C3        0.6051    -0.6064    -1.0545 C.ar   1 <0>       0.2200
    4 C4        1.1711     0.1728    -2.0593 C.ar   1 <0>      -0.3300
    5 C5        1.7899    -0.4222    -3.1435 C.ar   1 <0>       0.2500
    6 O6        2.3402     0.3415    -4.1206 O.3    1 <0>      -0.2800
    7 C7        2.2452     1.7590    -3.9670 C.3    1 <0>       0.0200
    8 C8        1.8444    -1.8188    -3.2249 C.ar   1 <0>      -0.2700
    9 C9        2.4881    -2.5010    -4.3511 C.2    1 <0>       0.5600
   10 O10       3.0005    -1.8726    -5.2597 O.2    1 <0>      -0.4900
   11 N11       2.4931    -3.8539    -4.3449 N.am   1 <0>      -0.6600
   12 C12       1.9135    -4.5465    -3.3166 C.2    1 <0>       0.4600
   13 C13       1.9447    -6.0221    -3.3554 C.ar   1 <0>      -0.0800
   14 C14       2.5609    -6.6818    -4.4215 C.ar   1 <0>      -0.0900
   15 C15       2.5883    -8.0587    -4.4537 C.ar   1 <0>      -0.1000
   16 C16       3.2532    -8.7714    -5.6031 C.3    1 <0>      -0.1200
   17 C17       2.0042    -8.7913    -3.4276 C.ar   1 <0>       0.1200
   18 O18       2.0333   -10.1482    -3.4631 O.3    1 <0>      -0.3200
   19 C19       3.1515   -10.7894    -2.8462 C.3    1 <0>       0.0700
   20 C20       3.0101   -12.3065    -2.9856 C.3    1 <0>       0.0800
   21 O21       3.0822   -12.6667    -4.3665 O.3    1 <0>      -0.5700
   22 C22       1.3907    -8.1389    -2.3652 C.ar   1 <0>      -0.1100
   23 C23       0.7596    -8.9384    -1.2545 C.3    1 <0>      -0.1100
   24 C24       1.3632    -6.7623    -2.3230 C.ar   1 <0>      -0.0400
   25 N25       1.3331    -3.9606    -2.2999 N.2    1 <0>      -0.5200
   26 C26       1.2690    -2.6114    -2.2027 C.ar   1 <0>       0.2300
   27 C27       0.6549    -1.9886    -1.1170 C.ar   1 <0>      -0.1900
   28 H28       1.0053     1.8021     0.0021 H      1 <0>       0.0600
   29 H29      -0.5445     1.7859    -0.8732 H      1 <0>       0.0600
   30 H30      -0.5275     1.7763     0.9067 H      1 <0>       0.1100
   31 H31       1.1265     1.2498    -1.9920 H      1 <0>       0.1400
   32 H32       1.1957     2.0502    -3.9238 H      1 <0>       0.0600
   33 H33       2.7436     2.0589    -3.0452 H      1 <0>       0.0600
   34 H34       2.7237     2.2493    -4.8148 H      1 <0>       0.1100
   35 H35       2.9104    -4.3368    -5.0753 H      1 <0>       0.4200
   36 H36       3.0149    -6.1131    -5.2196 H      1 <0>       0.1300
   37 H37       4.3046    -8.9375    -5.3683 H      1 <0>       0.0700
   38 H38       2.7621    -9.7303    -5.7690 H      1 <0>       0.0800
   39 H39       3.1738    -8.1620    -6.5033 H      1 <0>       0.0700
   40 H40       4.0709   -10.4639    -3.3329 H      1 <0>       0.0600
   41 H41       3.1857   -10.5232    -1.7898 H      1 <0>       0.0700
   42 H42       3.8151   -12.7981    -2.4393 H      1 <0>       0.0700
   43 H43       2.0494   -12.6209    -2.5778 H      1 <0>       0.0600
   44 H44       2.9998   -13.6162    -4.5302 H      1 <0>       0.3800
   45 H45       1.4990    -9.1251    -0.4757 H      1 <0>       0.0700
   46 H46      -0.0771    -8.3799    -0.8349 H      1 <0>       0.0700
   47 H47       0.4004    -9.8886    -1.6497 H      1 <0>       0.0800
   48 H48       0.8862    -6.2560    -1.4969 H      1 <0>       0.1500
   49 H49       0.2164    -2.5825    -0.3287 H      1 <0>       0.1500
@<TRIPOS>BOND
   1    1    2 1
   2    1   28 1
   3    1   29 1
   4    1   30 1
   5    2    3 1
   6    3   27 ar
   7    3    4 ar
   8    4    5 ar
   9    4   31 1
  10    5    6 1
  11    5    8 ar
  12    6    7 1
  13    7   32 1
  14    7   33 1
  15    7   34 1
  16    8   26 ar
  17    8    9 1
  18    9   10 2
  19    9   11 am
  20   11   12 1
  21   11   35 1
  22   12   13 1
  23   12   25 2
  24   13   24 ar
  25   13   14 ar
  26   14   15 ar
  27   14   36 1
  28   15   16 1
  29   15   17 ar
  30   16   37 1
  31   16   38 1
  32   16   39 1
  33   17   18 1
  34   17   22 ar
  35   18   19 1
  36   19   20 1
  37   19   40 1
  38   19   41 1
  39   20   21 1
  40   20   42 1
  41   20   43 1
  42   21   44 1
  43   22   23 1
  44   22   24 ar
  45   23   45 1
  46   23   46 1
  47   23   47 1
  48   24   48 1
  49   25   26 1
  50   26   27 ar
  51   27   49 1
