@<TRIPOS>MOLECULE
ZINC000006069063
  40   41    0    0    0
SMALL
USER_CHARGES
NO_NAME
@<TRIPOS>ATOM
    1 C1       -1.4761     0.2226    -0.4754 C.3    1 <0>      -0.1300
    2 C2       -1.3027    -1.2475    -0.7579 C.2    1 <0>      -0.1000
    3 C3       -1.5212    -2.2566     0.3398 C.3    1 <0>      -0.1200
    4 C4       -0.9620    -1.6482    -1.9577 C.2    1 <0>      -0.1800
    5 C5       -0.7435    -0.6391    -3.0554 C.3    1 <0>       0.0900
    6 O6        0.4517    -0.9627    -3.7688 O.3    1 <0>      -0.2900
    7 C7        0.7959    -0.1453    -4.7988 C.ar   1 <0>       0.1500
    8 C8        0.0033     0.9472    -5.1115 C.ar   1 <0>      -0.2000
    9 C9        0.3576     1.7802    -6.1642 C.ar   1 <0>       0.1400
   10 N10      -0.4399     2.8841    -6.4823 N.am   1 <0>      -0.5900
   11 C11       0.1309     4.0815    -6.7211 C.2    1 <0>       0.4100
   12 S12       1.8366     4.2277    -6.7420 S.2    1 <0>      -0.5300
   13 C13      -0.7123     5.2637    -6.9639 C.2    1 <0>      -0.2400
   14 C14      -0.2937     6.5361    -7.2243 C.2    1 <0>       0.1300
   15 C15       1.1400     6.9910    -7.3171 C.3    1 <0>      -0.1100
   16 O16      -1.3722     7.3106    -7.3838 O.3    1 <0>      -0.1700
   17 C17      -2.4996     6.5972    -7.2385 C.2    1 <0>      -0.0200
   18 C18      -2.1815     5.3189    -6.9830 C.2    1 <0>      -0.1900
   19 C19       1.5052     1.5163    -6.9009 C.ar   1 <0>      -0.0900
   20 C20       2.2936     0.4260    -6.5865 C.ar   1 <0>      -0.0600
   21 C21       1.9456    -0.4015    -5.5350 C.ar   1 <0>      -0.0600
   22 Cl22      2.9392    -1.7700    -5.1430 Cl     1 <0>      -0.0500
   23 H23      -0.5257     0.6442    -0.1481 H      1 <0>       0.0700
   24 H24      -1.8058     0.7303    -1.3819 H      1 <0>       0.0600
   25 H25      -2.2221     0.3566     0.3079 H      1 <0>       0.0700
   26 H26      -1.7965    -1.7396     1.2591 H      1 <0>       0.0700
   27 H27      -2.3218    -2.9382     0.0526 H      1 <0>       0.0700
   28 H28      -0.6034    -2.8218     0.5017 H      1 <0>       0.0700
   29 H29      -0.8377    -2.7018    -2.1601 H      1 <0>       0.1200
   30 H30      -1.5915    -0.6575    -3.7399 H      1 <0>       0.0700
   31 H31      -0.6490     0.3560    -2.6207 H      1 <0>       0.0700
   32 H32      -0.8887     1.1503    -4.5376 H      1 <0>       0.1400
   33 H33      -1.4039     2.7881    -6.5310 H      1 <0>       0.4100
   34 H34       1.4859     6.8946    -8.3463 H      1 <0>       0.1000
   35 H35       1.2114     8.0332    -7.0059 H      1 <0>       0.0800
   36 H36       1.7598     6.3742    -6.6663 H      1 <0>       0.1400
   37 H37      -3.5030     6.9886    -7.3191 H      1 <0>       0.2100
   38 H38      -2.8651     4.4993    -6.8173 H      1 <0>       0.1600
   39 H39       1.7813     2.1636    -7.7201 H      1 <0>       0.1600
   40 H40       3.1856     0.2223    -7.1603 H      1 <0>       0.1500
@<TRIPOS>BOND
   1    1    2 1
   2    1   23 1
   3    1   24 1
   4    1   25 1
   5    2    3 1
   6    2    4 2
   7    3   26 1
   8    3   27 1
   9    3   28 1
  10    4    5 1
  11    4   29 1
  12    5    6 1
  13    5   30 1
  14    5   31 1
  15    6    7 1
  16    7   21 ar
  17    7    8 ar
  18    8    9 ar
  19    8   32 1
  20    9   10 1
  21    9   19 ar
  22   10   11 am
  23   10   33 1
  24   11   12 2
  25   11   13 1
  26   13   18 1
  27   13   14 2
  28   14   15 1
  29   14   16 1
  30   15   34 1
  31   15   35 1
  32   15   36 1
  33   16   17 1
  34   17   18 2
  35   17   37 1
  36   18   38 1
  37   19   20 ar
  38   19   39 1
  39   20   21 ar
  40   20   40 1
  41   21   22 1
