@<TRIPOS>MOLECULE
ZINC000117196041
47    49    1     0     0
SMALL
USER_CHARGES
@<TRIPOS>ATOM
1      C1     -0.0187    1.5258    0.0104 C.3      1 ZINC000117196041   -0.1800
2      C2      0.0021   -0.0041    0.0020 C.3      1 ZINC000117196041    0.1900
3      H3     -1.0205   -0.3814    0.0098 H        1 ZINC000117196041    0.1200
4      O4      0.6932   -0.4774    1.1597 O.3      1 ZINC000117196041   -0.5500
5      C5      0.7074   -0.4901   -1.2379 C.2      1 ZINC000117196041   -0.0100
6      N6      0.4089   -0.1677   -2.4705 N.2      1 ZINC000117196041   -0.2500
7      N7      1.1983   -0.7486   -3.3007 N.pl3    1 ZINC000117196041   -0.3700
8      C8      2.0969   -1.5179   -2.6176 C.2      1 ZINC000117196041   -0.0400
9      C9      3.1703   -2.3436   -3.1933 C.2      1 ZINC000117196041    0.6000
10     O10     3.9040   -2.9827   -2.4634 O.2      1 ZINC000117196041   -0.5200
11     N11     3.3406   -2.3917   -4.5294 N.am     1 ZINC000117196041   -0.7100
12     C12     4.4092   -3.2137   -5.1026 C.3      1 ZINC000117196041    0.1300
13     H13     5.2751   -3.1971   -4.4407 H        1 ZINC000117196041    0.1000
14     C14     3.9160   -4.6534   -5.2610 C.3      1 ZINC000117196041   -0.1700
15     C15     4.8030   -2.6560   -6.4718 C.3      1 ZINC000117196041    0.1200
16     N16     5.3862   -1.3223   -6.3065 N.pl3    1 ZINC000117196041   -0.3700
17     C17     6.5957   -0.9248   -6.7574 C.2      1 ZINC000117196041    0.0600
18     C18     6.7675    0.3681   -6.4070 C.2      1 ZINC000117196041   -0.2500
19     C19     5.6150    0.7837   -5.7110 C.2      1 ZINC000117196041    0.1000
20     C20     5.3772    2.1330   -5.1438 C.ar     1 ZINC000117196041    0.0300
21     C21     6.3448    3.1282   -5.2843 C.ar     1 ZINC000117196041   -0.0900
22     C22     6.1266    4.3813   -4.7584 C.ar     1 ZINC000117196041   -0.0600
23     C23     4.9344    4.6575   -4.0833 C.ar     1 ZINC000117196041   -0.0100
24     C24     4.7059    5.9609   -3.5360 C.1      1 ZINC000117196041    0.2500
25     N25     4.5246    6.9949   -3.1019 N.1      1 ZINC000117196041   -0.3900
26     C26     3.9643    3.6591   -3.9432 C.ar     1 ZINC000117196041    0.0000
27     Cl27    2.4825    3.9989   -3.1052 Cl       1 ZINC000117196041   -0.0400
28     C28     4.1841    2.4073   -4.4756 C.ar     1 ZINC000117196041   -0.0900
29     N29     4.7838   -0.2364   -5.6585 N.2      1 ZINC000117196041   -0.2700
30     C30     1.7997   -1.3598   -1.2751 C.2      1 ZINC000117196041   -0.1400
31     H31     1.0039    1.9031    0.0027 H        1 ZINC000117196041    0.0600
32     H32    -0.5459    1.8868   -0.8726 H        1 ZINC000117196041    0.0700
33     H33    -0.5289    1.8773    0.9072 H        1 ZINC000117196041    0.0700
34     H34     1.6114   -0.1800    1.2187 H        1 ZINC000117196041    0.3800
35     H35     1.1619   -0.6553   -4.2655 H        1 ZINC000117196041    0.4400
36     H36     2.7555   -1.8821   -5.1115 H        1 ZINC000117196041    0.4000
37     H37     3.0501   -4.6701   -5.9228 H        1 ZINC000117196041    0.0600
38     H38     4.7111   -5.2650   -5.6874 H        1 ZINC000117196041    0.0700
39     H39     3.6355   -5.0507   -4.2855 H        1 ZINC000117196041    0.0700
40     H40     5.5342   -3.3172   -6.9368 H        1 ZINC000117196041    0.1200
41     H41     3.9184   -2.5897   -7.1052 H        1 ZINC000117196041    0.0900
42     H42     7.3016   -1.5340   -7.3025 H        1 ZINC000117196041    0.1800
43     H43     7.6343    0.9754   -6.6217 H        1 ZINC000117196041    0.1500
44     H44     7.2661    2.9150   -5.8060 H        1 ZINC000117196041    0.1500
45     H45     6.8766    5.1508   -4.8671 H        1 ZINC000117196041    0.1500
46     H46     3.4358    1.6360   -4.3683 H        1 ZINC000117196041    0.1400
47     H47     2.3016   -1.8169   -0.4351 H        1 ZINC000117196041    0.1700
@<TRIPOS>BOND
1     1     2     1
2     1     31    1
3     1     32    1
4     1     33    1
5     2     3     1
6     2     4     1
7     2     5     1
8     4     34    1
9     5     30    1
10    5     6     2
11    6     7     1
12    7     8     1
13    7     35    1
14    8     9     1
15    8     30    2
16    9     10    2
17    9     11    am
18    11    12    1
19    11    36    1
20    12    13    1
21    12    14    1
22    12    15    1
23    14    37    1
24    14    38    1
25    14    39    1
26    15    16    1
27    15    40    1
28    15    41    1
29    16    29    1
30    16    17    1
31    17    18    2
32    17    42    1
33    18    19    1
34    18    43    1
35    19    20    1
36    19    29    2
37    20    28    ar
38    20    21    ar
39    21    22    ar
40    21    44    1
41    22    23    ar
42    22    45    1
43    23    24    1
44    23    26    ar
45    24    25    3
46    26    27    1
47    26    28    ar
48    28    46    1
49    30    47    1
@<TRIPOS>SUBSTRUCTURE
1   ZINC000117196041 1     RESIDUE    1   A     ZIN   1
