@<TRIPOS>MOLECULE
ZINC000059047505
  61   64    0    0    0
SMALL
USER_CHARGES
NO_NAME
@<TRIPOS>ATOM
    1 O1       -0.0173     1.4248     0.0099 O.3    1 <0>      -0.5700
    2 C2        0.0021    -0.0041     0.0020 C.3    1 <0>       0.0900
    3 C3       -1.4333    -0.5336     0.0129 C.3    1 <0>       0.1000
    4 H4       -1.9703    -0.1110     0.8621 H      1 <0>       0.0800
    5 O5       -2.0889    -0.1583    -1.2001 O.3    1 <0>      -0.3400
    6 C6       -3.4509    -0.5831    -1.2828 C.3    1 <0>       0.1400
    7 H7       -4.0143    -0.1613    -0.4505 H      1 <0>       0.0800
    8 C8       -4.0466    -0.1105    -2.5839 C.ar   1 <0>      -0.0700
    9 C9       -3.2985    -0.1612    -3.7450 C.ar   1 <0>      -0.0800
   10 C10      -3.8446     0.2717    -4.9389 C.ar   1 <0>      -0.1100
   11 C11      -5.1400     0.7558    -4.9713 C.ar   1 <0>      -0.0200
   12 Cl12     -5.8267     1.2992    -6.4703 Cl     1 <0>      -0.0700
   13 C13      -5.8885     0.8064    -3.8085 C.ar   1 <0>      -0.0700
   14 C14      -7.3000     1.3332    -3.8431 C.3    1 <0>      -0.0400
   15 C15      -7.2738     2.8400    -3.8471 C.ar   1 <0>      -0.1200
   16 C16      -7.2840     3.5336    -2.6511 C.ar   1 <0>      -0.0700
   17 C17      -7.2601     4.9149    -2.6521 C.ar   1 <0>      -0.1500
   18 C18      -7.2254     5.6060    -3.8545 C.ar   1 <0>       0.1300
   19 O19      -7.2013     6.9648    -3.8581 O.3    1 <0>      -0.3100
   20 C20      -7.1660     7.6096    -5.1328 C.3    1 <0>       0.0600
   21 C21      -7.1430     9.1268    -4.9364 C.3    1 <0>       0.0700
   22 O22      -5.9270     9.5047    -4.2878 O.3    1 <0>      -0.3500
   23 C23      -5.8043    10.9094    -4.0557 C.3    1 <0>       0.0100
   24 C24      -5.1705    11.3547    -2.7363 C.3    1 <0>      -0.1900
   25 C25      -4.3944    11.5033    -4.0464 C.3    1 <0>      -0.1800
   26 C26      -7.2147     4.9077    -5.0532 C.ar   1 <0>      -0.2100
   27 C27      -7.2339     3.5264    -5.0467 C.ar   1 <0>      -0.0700
   28 C28      -5.3433     0.3684    -2.6166 C.ar   1 <0>      -0.0700
   29 C29      -3.5121    -2.1114    -1.2183 C.3    1 <0>       0.1000
   30 H30      -2.9830    -2.5335    -2.0727 H      1 <0>       0.0700
   31 O31      -4.8763    -2.5362    -1.2440 O.3    1 <0>      -0.5500
   32 C32      -2.8509    -2.5868     0.0790 C.3    1 <0>       0.0400
   33 H33      -3.4093    -2.2053     0.9339 H      1 <0>       0.0800
   34 O34      -2.8398    -4.0154     0.1143 O.3    1 <0>      -0.5600
   35 C35      -1.4135    -2.0600     0.1297 C.3    1 <0>       0.0500
   36 H36      -0.8419    -2.4810    -0.6974 H      1 <0>       0.0800
   37 O37      -0.8098    -2.4378     1.3686 O.3    1 <0>      -0.5500
   38 H38       0.8606     1.8301     0.0037 H      1 <0>       0.3800
   39 H39       0.5123    -0.3556    -0.8948 H      1 <0>       0.0500
   40 H40       0.5293    -0.3651     0.8851 H      1 <0>       0.0700
   41 H41      -2.2870    -0.5389    -3.7195 H      1 <0>       0.1300
   42 H42      -3.2599     0.2323    -5.8460 H      1 <0>       0.1300
   43 H43      -7.7991     0.9761    -4.7439 H      1 <0>       0.0900
   44 H44      -7.8406     0.9816    -2.9644 H      1 <0>       0.0900
   45 H45      -7.3111     2.9951    -1.7153 H      1 <0>       0.1300
   46 H46      -7.2688     5.4562    -1.7176 H      1 <0>       0.1300
   47 H47      -6.2711     7.2994    -5.6722 H      1 <0>       0.0700
   48 H48      -8.0505     7.3308    -5.7056 H      1 <0>       0.0800
   49 H49      -7.2057     9.6197    -5.9065 H      1 <0>       0.0700
   50 H50      -7.9913     9.4264    -4.3211 H      1 <0>       0.0600
   51 H51      -6.6071    11.5248    -4.4618 H      1 <0>       0.1100
   52 H52      -5.5563    12.2633    -2.2740 H      1 <0>       0.1000
   53 H53      -4.8471    10.5762    -2.0453 H      1 <0>       0.1000
   54 H54      -3.5604    10.8227    -4.2173 H      1 <0>       0.1000
   55 H55      -4.2696    12.5097    -4.4460 H      1 <0>       0.1000
   56 H56      -7.1880     5.4434    -5.9905 H      1 <0>       0.1300
   57 H57      -7.2252     2.9823    -5.9796 H      1 <0>       0.1300
   58 H58      -5.9274     0.4075    -1.7091 H      1 <0>       0.1300
   59 H59      -4.9902    -3.4957    -1.2060 H      1 <0>       0.3900
   60 H60      -2.4346    -4.3860     0.9102 H      1 <0>       0.3800
   61 H61      -0.7681    -3.3935     1.5105 H      1 <0>       0.3800
@<TRIPOS>BOND
   1    1    2 1
   2    1   38 1
   3    2    3 1
   4    2   39 1
   5    2   40 1
   6    3    4 1
   7    3   35 1
   8    3    5 1
   9    5    6 1
  10    6    7 1
  11    6    8 1
  12    6   29 1
  13    8   28 ar
  14    8    9 ar
  15    9   10 ar
  16    9   41 1
  17   10   11 ar
  18   10   42 1
  19   11   12 1
  20   11   13 ar
  21   13   14 1
  22   13   28 ar
  23   14   15 1
  24   14   43 1
  25   14   44 1
  26   15   27 ar
  27   15   16 ar
  28   16   17 ar
  29   16   45 1
  30   17   18 ar
  31   17   46 1
  32   18   19 1
  33   18   26 ar
  34   19   20 1
  35   20   21 1
  36   20   47 1
  37   20   48 1
  38   21   22 1
  39   21   49 1
  40   21   50 1
  41   22   23 1
  42   23   25 1
  43   23   24 1
  44   23   51 1
  45   24   25 1
  46   24   52 1
  47   24   53 1
  48   25   54 1
  49   25   55 1
  50   26   27 ar
  51   26   56 1
  52   27   57 1
  53   28   58 1
  54   29   30 1
  55   29   31 1
  56   29   32 1
  57   31   59 1
  58   32   33 1
  59   32   34 1
  60   32   35 1
  61   34   60 1
  62   35   36 1
  63   35   37 1
  64   37   61 1
