@<TRIPOS>MOLECULE
ZINC000003930732
91    94    1     0     0
SMALL
USER_CHARGES
@<TRIPOS>ATOM
1      C1      0.8109   -0.8644    1.1014 C.3      1 ZINC000003930732   -0.1400
2      C2      0.1223   -0.5093   -0.2180 C.3      1 ZINC000003930732   -0.1000
3      C3      0.5947   -1.4670   -1.3137 C.3      1 ZINC000003930732   -0.1500
4      C4     -1.3936   -0.6327   -0.0515 C.3      1 ZINC000003930732    0.1500
5      H5     -1.7249    0.0207    0.7556 H        1 ZINC000003930732    0.1100
6      N6     -1.7382   -2.0198    0.2705 N.am     1 ZINC000003930732   -0.6900
7      C7     -1.6930   -2.4461    1.5483 C.2      1 ZINC000003930732    0.6600
8      O8     -1.3665   -1.6801    2.4332 O.2      1 ZINC000003930732   -0.5600
9      O9     -2.0097   -3.7208    1.8442 O.3      1 ZINC000003930732   -0.3700
10     C10    -1.9390   -4.1103    3.2412 C.3      1 ZINC000003930732    0.1400
11     C11    -2.3249   -5.5606    3.3785 C.ar     1 ZINC000003930732    0.1200
12     C12    -2.6650   -6.2863    2.2528 C.ar     1 ZINC000003930732   -0.1500
13     C13    -3.0181   -7.6202    2.3899 C.ar     1 ZINC000003930732   -0.0700
14     C14    -3.0156   -8.1762    3.6598 C.ar     1 ZINC000003930732   -0.1700
15     C15    -2.6639   -7.3880    4.7395 C.ar     1 ZINC000003930732    0.1100
16     N16    -2.3288   -6.1240    4.5709 N.ar     1 ZINC000003930732   -0.4800
17     C17    -2.0743   -0.2309   -1.3346 C.2      1 ZINC000003930732    0.5200
18     O18    -2.5053   -1.0812   -2.0844 O.2      1 ZINC000003930732   -0.5000
19     N19    -2.2040    1.0732   -1.6488 N.am     1 ZINC000003930732   -0.7200
20     C20    -2.7681    1.4621   -2.9437 C.3      1 ZINC000003930732    0.1200
21     H21    -2.4616    0.7437   -3.7040 H        1 ZINC000003930732    0.1000
22     C22    -4.2950    1.4840   -2.8490 C.3      1 ZINC000003930732   -0.0900
23     C23    -4.8027    0.0879   -2.5960 C.ar     1 ZINC000003930732   -0.0600
24     C24    -5.1062   -0.7406   -3.6601 C.ar     1 ZINC000003930732   -0.1100
25     C25    -5.5719   -2.0213   -3.4281 C.ar     1 ZINC000003930732   -0.1100
26     C26    -5.7338   -2.4736   -2.1319 C.ar     1 ZINC000003930732   -0.1200
27     C27    -5.4295   -1.6454   -1.0677 C.ar     1 ZINC000003930732   -0.1100
28     C28    -4.9597   -0.3662   -1.2998 C.ar     1 ZINC000003930732   -0.1100
29     C29    -2.2606    2.8546   -3.3237 C.3      1 ZINC000003930732    0.1000
30     H30    -2.6803    3.1439   -4.2871 H        1 ZINC000003930732    0.1200
31     O31    -2.6625    3.7964   -2.3269 O.3      1 ZINC000003930732   -0.5400
32     C32    -0.7337    2.8326   -3.4184 C.3      1 ZINC000003930732   -0.1600
33     C33    -0.2342    4.1895   -3.9188 C.3      1 ZINC000003930732    0.1800
34     H34    -0.7247    4.4321   -4.8614 H        1 ZINC000003930732    0.0900
35     C35     1.2796    4.1285   -4.1325 C.3      1 ZINC000003930732   -0.1000
36     C36     1.7536    5.4233   -4.7406 C.ar     1 ZINC000003930732   -0.0700
37     C37     1.7928    5.5679   -6.1149 C.ar     1 ZINC000003930732   -0.1100
38     C38     2.2277    6.7555   -6.6727 C.ar     1 ZINC000003930732   -0.1100
39     C39     2.6228    7.7988   -5.8564 C.ar     1 ZINC000003930732   -0.1200
40     C40     2.5827    7.6545   -4.4822 C.ar     1 ZINC000003930732   -0.1200
41     C41     2.1438    6.4683   -3.9243 C.ar     1 ZINC000003930732   -0.1100
42     N42    -0.5461    5.2209   -2.9263 N.am     1 ZINC000003930732   -0.6900
43     C43    -0.6785    6.5064   -3.3091 C.2      1 ZINC000003930732    0.6500
44     O44    -0.5391    6.8098   -4.4774 O.2      1 ZINC000003930732   -0.5500
45     O45    -0.9651    7.4543   -2.3970 O.3      1 ZINC000003930732   -0.3700
46     C46    -1.0931    8.8173   -2.8807 C.3      1 ZINC000003930732    0.1400
47     C47    -1.4131    9.7320   -1.7266 C.ar     1 ZINC000003930732   -0.1500
48     C48    -2.7300    9.9782   -1.3703 C.ar     1 ZINC000003930732   -0.0500
49     C49    -2.9770   10.8263   -0.3013 C.ar     1 ZINC000003930732   -0.1800
50     C50    -1.9099   11.3938    0.3685 C.ar     1 ZINC000003930732    0.1100
51     N51    -0.6694   11.1369    0.0017 N.ar     1 ZINC000003930732   -0.4900
52     C52    -0.3971   10.3316   -1.0063 C.ar     1 ZINC000003930732    0.1300
53     H53     1.8810   -0.6765    1.0148 H        1 ZINC000003930732    0.0500
54     H54     0.3981   -0.2519    1.9030 H        1 ZINC000003930732    0.0700
55     H55     0.6440   -1.9178    1.3263 H        1 ZINC000003930732    0.0500
56     H56     0.3752    0.5139   -0.4959 H        1 ZINC000003930732    0.0800
57     H57     0.3418   -2.4902   -1.0358 H        1 ZINC000003930732    0.0600
58     H58     0.1041   -1.2140   -2.2536 H        1 ZINC000003930732    0.0600
59     H59     1.6746   -1.3791   -1.4323 H        1 ZINC000003930732    0.0600
60     H60    -1.9988   -2.6313   -0.4359 H        1 ZINC000003930732    0.4200
61     H61    -0.9220   -3.9687    3.6068 H        1 ZINC000003930732    0.1000
62     H62    -2.6239   -3.4953    3.8250 H        1 ZINC000003930732    0.1000
63     H63    -2.6563   -5.8203    1.2785 H        1 ZINC000003930732    0.1400
64     H64    -3.2889   -8.2119    1.5279 H        1 ZINC000003930732    0.1400
65     H65    -3.2855   -9.2120    3.8038 H        1 ZINC000003930732    0.1400
66     H66    -2.6598   -7.8135    5.7321 H        1 ZINC000003930732    0.1600
67     H67    -1.9238    1.7544   -1.0176 H        1 ZINC000003930732    0.4000
68     H68    -4.5988    2.1352   -2.0294 H        1 ZINC000003930732    0.0800
69     H69    -4.7117    1.8583   -3.7840 H        1 ZINC000003930732    0.0800
70     H70    -4.9797   -0.3872   -4.6728 H        1 ZINC000003930732    0.1100
71     H71    -5.8096   -2.6684   -4.2594 H        1 ZINC000003930732    0.1200
72     H72    -6.0983   -3.4739   -1.9506 H        1 ZINC000003930732    0.1100
73     H73    -5.5563   -1.9987   -0.0551 H        1 ZINC000003930732    0.1100
74     H74    -4.7219    0.2808   -0.4684 H        1 ZINC000003930732    0.1100
75     H75    -2.3245    3.6010   -1.4422 H        1 ZINC000003930732    0.3700
76     H76    -0.3114    2.6304   -2.4341 H        1 ZINC000003930732    0.0800
77     H77    -0.4240    2.0525   -4.1138 H        1 ZINC000003930732    0.1000
78     H78     1.7758    3.9739   -3.1744 H        1 ZINC000003930732    0.0800
79     H79     1.5189    3.3031   -4.8029 H        1 ZINC000003930732    0.0800
80     H80     1.4841    4.7528   -6.7526 H        1 ZINC000003930732    0.1100
81     H81     2.2590    6.8683   -7.7464 H        1 ZINC000003930732    0.1200
82     H82     2.9632    8.7265   -6.2922 H        1 ZINC000003930732    0.1200
83     H83     2.8917    8.4695   -3.8444 H        1 ZINC000003930732    0.1100
84     H84     2.1124    6.3556   -2.8506 H        1 ZINC000003930732    0.1100
85     H85    -0.6574    4.9787   -1.9936 H        1 ZINC000003930732    0.4000
86     H86    -0.1559    9.1287   -3.3421 H        1 ZINC000003930732    0.0800
87     H87    -1.8950    8.8677   -3.6173 H        1 ZINC000003930732    0.0800
88     H88    -3.5442    9.5207   -1.9126 H        1 ZINC000003930732    0.1400
89     H89    -3.9906   11.0408    0.0037 H        1 ZINC000003930732    0.1400
90     H90    -2.0938   12.0556    1.2019 H        1 ZINC000003930732    0.1600
91     H91     0.6315   10.1451   -1.2776 H        1 ZINC000003930732    0.1600
@<TRIPOS>BOND
1     1     2     1
2     1     53    1
3     1     54    1
4     1     55    1
5     2     3     1
6     2     4     1
7     2     56    1
8     3     57    1
9     3     58    1
10    3     59    1
11    4     5     1
12    4     6     1
13    4     17    1
14    6     7     am
15    6     60    1
16    7     8     2
17    7     9     1
18    9     10    1
19    10    11    1
20    10    61    1
21    10    62    1
22    11    16    ar
23    11    12    ar
24    12    13    ar
25    12    63    1
26    13    14    ar
27    13    64    1
28    14    15    ar
29    14    65    1
30    15    16    ar
31    15    66    1
32    17    18    2
33    17    19    am
34    19    20    1
35    19    67    1
36    20    21    1
37    20    22    1
38    20    29    1
39    22    23    1
40    22    68    1
41    22    69    1
42    23    28    ar
43    23    24    ar
44    24    25    ar
45    24    70    1
46    25    26    ar
47    25    71    1
48    26    27    ar
49    26    72    1
50    27    28    ar
51    27    73    1
52    28    74    1
53    29    30    1
54    29    31    1
55    29    32    1
56    31    75    1
57    32    33    1
58    32    76    1
59    32    77    1
60    33    34    1
61    33    35    1
62    33    42    1
63    35    36    1
64    35    78    1
65    35    79    1
66    36    41    ar
67    36    37    ar
68    37    38    ar
69    37    80    1
70    38    39    ar
71    38    81    1
72    39    40    ar
73    39    82    1
74    40    41    ar
75    40    83    1
76    41    84    1
77    42    43    am
78    42    85    1
79    43    44    2
80    43    45    1
81    45    46    1
82    46    47    1
83    46    86    1
84    46    87    1
85    47    52    ar
86    47    48    ar
87    48    49    ar
88    48    88    1
89    49    50    ar
90    49    89    1
91    50    51    ar
92    50    90    1
93    51    52    ar
94    52    91    1
@<TRIPOS>SUBSTRUCTURE
1   ZINC000003930732 1     RESIDUE    1   A     ZIN   1
