@<TRIPOS>MOLECULE
ZINC000003637723
  45   48    0    0    0
SMALL
USER_CHARGES
NO_NAME
@<TRIPOS>ATOM
    1 C1        0.1081     1.4560    -0.0814 C.3    1 <0>      -0.1800
    2 C2       -0.1739    -0.0217     0.0078 C.2    1 <0>      -0.1400
    3 C3       -0.7702    -0.6855    -1.0520 C.2    1 <0>       0.2100
    4 N4       -1.1140     0.0000    -2.2048 N.pl3  1 <0>      -0.6200
    5 C5       -1.0641     1.4587    -2.3813 C.3    1 <0>       0.1100
    6 C6       -1.5081     1.7606    -3.8282 C.3    1 <0>      -0.1500
    7 C7       -1.2406     0.4192    -4.5607 C.3    1 <0>       0.0000
    8 H8       -0.1945     0.3369    -4.8555 H      1 <0>       0.1600
    9 N9       -2.1257     0.2687    -5.7234 N.4    1 <0>      -0.6300
   10 H10      -1.9483     1.0140    -6.3800 H      1 <0>       0.4400
   11 H11      -1.9492    -0.6199    -6.1677 H      1 <0>       0.4400
   12 H12      -3.0876     0.3085    -5.4213 H      1 <0>       0.4400
   13 C13      -1.5846    -0.6123    -3.4606 C.3    1 <0>       0.1000
   14 C14      -1.0223    -2.0700    -0.9414 C.2    1 <0>      -0.0100
   15 F15      -1.6031    -2.7344    -1.9643 F      1 <0>      -0.1300
   16 C16      -0.6830    -2.7303     0.1859 C.2    1 <0>       0.1100
   17 N17      -0.0951    -2.0800     1.2337 N.am   1 <0>      -0.4100
   18 C18       0.2276    -2.7781     2.3420 C.2    1 <0>       0.5000
   19 O19      -0.0072    -3.9731     2.3960 O.2    1 <0>      -0.4800
   20 C20       0.8359    -2.1319     3.4386 C.2    1 <0>      -0.2500
   21 C21       1.1753    -2.8655     4.6016 C.2    1 <0>       0.5200
   22 O22       1.7035    -2.2989     5.5510 O.co2  1 <0>      -0.7000
   23 O23       0.9407    -4.0669     4.6583 O.co2  1 <0>      -0.6700
   24 C24       1.1037    -0.7482     3.3666 C.2    1 <0>       0.0200
   25 C25       0.7687    -0.0647     2.2381 C.2    1 <0>      -0.1700
   26 C26       1.0469     1.4133     2.1427 C.3    1 <0>      -0.0900
   27 C27       2.3744     1.9204     2.7096 C.3    1 <0>      -0.1800
   28 C28       2.1614     1.8628     1.1956 C.3    1 <0>      -0.1700
   29 C29       0.1689    -0.7379     1.1586 C.2    1 <0>       0.1800
   30 H30       1.1377     1.6106    -0.4040 H      1 <0>       0.0900
   31 H31      -0.5708     1.9127    -0.8016 H      1 <0>       0.0800
   32 H32      -0.0386     1.9136     0.8970 H      1 <0>       0.1100
   33 H33      -1.7424     1.9408    -1.6773 H      1 <0>       0.0900
   34 H34      -0.0468     1.8167    -2.2234 H      1 <0>       0.1000
   35 H35      -2.5678     2.0136    -3.8616 H      1 <0>       0.1000
   36 H36      -0.9056     2.5612    -4.2574 H      1 <0>       0.1100
   37 H37      -1.0651    -1.5524    -3.6462 H      1 <0>       0.1100
   38 H38      -2.6615    -0.7753    -3.4167 H      1 <0>       0.0800
   39 H39      -0.8796    -3.7896     0.2608 H      1 <0>       0.1900
   40 H40       1.5685    -0.2376     4.1970 H      1 <0>       0.1500
   41 H41       0.1768     2.0627     2.2400 H      1 <0>       0.1200
   42 H42       2.3779     2.9035     3.1803 H      1 <0>       0.1000
   43 H43       3.0466     1.1850     3.1517 H      1 <0>       0.1000
   44 H44       2.6934     1.0894     0.6416 H      1 <0>       0.0900
   45 H45       2.0247     2.8080     0.6703 H      1 <0>       0.1000
@<TRIPOS>BOND
   1    1    2 1
   2    1   30 1
   3    1   31 1
   4    1   32 1
   5    2   29 1
   6    2    3 2
   7    3    4 1
   8    3   14 1
   9    4   13 1
  10    4    5 1
  11    5    6 1
  12    5   33 1
  13    5   34 1
  14    6    7 1
  15    6   35 1
  16    6   36 1
  17    7    8 1
  18    7    9 1
  19    7   13 1
  20    9   10 1
  21    9   11 1
  22    9   12 1
  23   13   37 1
  24   13   38 1
  25   14   15 1
  26   14   16 2
  27   16   17 1
  28   16   39 1
  29   17   29 1
  30   17   18 am
  31   18   19 2
  32   18   20 1
  33   20   21 1
  34   20   24 2
  35   21   22 ar
  36   21   23 ar
  37   24   25 1
  38   24   40 1
  39   25   26 1
  40   25   29 2
  41   26   28 1
  42   26   27 1
  43   26   41 1
  44   27   28 1
  45   27   42 1
  46   27   43 1
  47   28   44 1
  48   28   45 1
