@<TRIPOS>MOLECULE
ZINC000001851238
26    27    1     0     0
SMALL
USER_CHARGES
@<TRIPOS>ATOM
1      O1      0.0021   -0.0041    0.0020 O.2      1 ZINC000001851238   -0.5800
2      C2     -0.0144    1.2136    0.0087 C.2      1 ZINC000001851238    0.5200
3      N3     -1.1875    1.8781    0.0291 N.pl3    1 ZINC000001851238   -0.6800
4      C4     -1.2052    3.2239    0.0365 C.2      1 ZINC000001851238    0.6500
5      O5     -2.2709    3.8091    0.0553 O.2      1 ZINC000001851238   -0.5900
6      N6     -0.0607    3.9309    0.0237 N.am     1 ZINC000001851238   -0.5400
7      C7     -0.1120    5.3950    0.0326 C.3      1 ZINC000001851238    0.3000
8      H8      0.8909    5.8125    0.1217 H        1 ZINC000001851238    0.0900
9      C9     -0.8121    5.9244   -1.2448 C.3      1 ZINC000001851238   -0.1800
10     C10    -1.3294    7.3080   -0.7815 C.3      1 ZINC000001851238    0.0700
11     H11    -2.3284    7.4935   -1.1759 H        1 ZINC000001851238    0.1100
12     F12    -0.4500    8.3192   -1.1832 F        1 ZINC000001851238   -0.2000
13     C13    -1.3675    7.2017    0.7554 C.3      1 ZINC000001851238    0.0600
14     H14    -0.6801    7.9249    1.1941 H        1 ZINC000001851238    0.0900
15     C15    -2.7882    7.4622    1.2598 C.3      1 ZINC000001851238    0.0800
16     O16    -2.7912    7.4768    2.6888 O.3      1 ZINC000001851238   -0.5600
17     O17    -0.9565    5.8676    1.1041 O.3      1 ZINC000001851238   -0.3400
18     C18     1.1519    3.2948    0.0029 C.2      1 ZINC000001851238    0.1400
19     C19     1.1987    1.9450    0.0011 C.2      1 ZINC000001851238   -0.2100
20     Cl20    2.7247    1.1177   -0.0246 Cl       1 ZINC000001851238   -0.0800
21     H21    -0.1001    6.0295   -2.0634 H        1 ZINC000001851238    0.0900
22     H22    -1.6398    5.2759   -1.5319 H        1 ZINC000001851238    0.1200
23     H23    -3.1357    8.4253    0.8859 H        1 ZINC000001851238    0.0600
24     H24    -3.4507    6.6735    0.9032 H        1 ZINC000001851238    0.0700
25     H25    -3.6614    7.6371    3.0787 H        1 ZINC000001851238    0.3800
26     H26     2.0662    3.8696   -0.0076 H        1 ZINC000001851238    0.1500
@<TRIPOS>BOND
1     1     2     2
2     2     19    1
3     2     3     1
4     3     4     1
5     4     5     2
6     4     6     am
7     6     7     1
8     6     18    1
9     7     8     1
10    7     17    1
11    7     9     1
12    9     10    1
13    9     21    1
14    9     22    1
15    10    11    1
16    10    12    1
17    10    13    1
18    13    14    1
19    13    15    1
20    13    17    1
21    15    16    1
22    15    23    1
23    15    24    1
24    16    25    1
25    18    19    2
26    18    26    1
27    19    20    1
@<TRIPOS>SUBSTRUCTURE
1   ZINC000001851238 1     RESIDUE    1   A     ZIN   1
