@<TRIPOS>MOLECULE
ZINC000001888486
  62   64    0    0    0
SMALL
USER_CHARGES
NO_NAME
@<TRIPOS>ATOM
    1 C1        0.5346     1.4398    -0.2591 C.3    1 <0>       0.0400
    2 O2        0.5675     0.0112    -0.2735 O.3    1 <0>      -0.3000
    3 C3        1.1730    -0.6013     0.7742 C.ar   1 <0>       0.3400
    4 C4        1.2367    -1.9989     0.8045 C.ar   1 <0>      -0.1600
    5 C5        1.8424    -2.6290     1.8515 C.ar   1 <0>       0.0100
    6 C6        1.9238    -4.1328     1.9063 C.3    1 <0>      -0.1300
    7 C7        2.3901    -1.8380     2.8798 C.ar   1 <0>      -0.0600
    8 C8        2.2929    -0.4282     2.7901 C.ar   1 <0>       0.1100
    9 N9        1.6911     0.1326     1.7349 N.ar   1 <0>      -0.5300
   10 C10       2.8403     0.3677     3.8182 C.ar   1 <0>       0.2800
   11 N11       2.7535     1.7617     3.7471 N.pl3  1 <0>      -0.7200
   12 C12       3.3227     2.5864     4.8158 C.3    1 <0>       0.1500
   13 H13       4.2274     2.1131     5.1974 H      1 <0>       0.0800
   14 C14       2.3041     2.7273     5.9487 C.3    1 <0>      -0.1800
   15 C15       3.6658     3.9713     4.2633 C.3    1 <0>      -0.1200
   16 C16       4.7748     3.8427     3.2171 C.3    1 <0>      -0.1500
   17 C17       5.1179     5.2276     2.6647 C.3    1 <0>      -0.0100
   18 N18       6.1827     5.1040     1.6602 N.4    1 <0>      -0.6400
   19 H19       6.4090     6.0173     1.2959 H      1 <0>       0.4400
   20 H20       7.0026     4.6996     2.0872 H      1 <0>       0.4400
   21 H21       5.8678     4.5102     0.9076 H      1 <0>       0.4400
   22 C22       3.4600    -0.2315     4.8920 C.ar   1 <0>      -0.2700
   23 C23       3.5550    -1.6206     4.9790 C.ar   1 <0>       0.1700
   24 O24       4.1723    -2.1879     6.0504 O.3    1 <0>      -0.3000
   25 C25       4.6961    -1.3017     7.0415 C.3    1 <0>       0.0200
   26 C26       3.0290    -2.4252     3.9878 C.ar   1 <0>       0.0100
   27 O27       3.1266    -3.7784     4.0825 O.3    1 <0>      -0.2300
   28 C28       2.2299    -4.4292     4.8688 C.ar   1 <0>       0.1200
   29 C29       1.2485    -3.7151     5.5414 C.ar   1 <0>      -0.1600
   30 C30       0.3380    -4.3793     6.3404 C.ar   1 <0>      -0.0800
   31 C31       0.4039    -5.7542     6.4700 C.ar   1 <0>      -0.1000
   32 C32       1.3810    -6.4683     5.8007 C.ar   1 <0>      -0.1400
   33 C33       1.4494    -7.9669     5.9440 C.3    1 <0>       0.5100
   34 F34       0.4294    -8.4008     6.7976 F      1 <0>      -0.1700
   35 F35       1.2918    -8.5632     4.6883 F      1 <0>      -0.1700
   36 F36       2.6905    -8.3280     6.4793 F      1 <0>      -0.1700
   37 C37       2.2902    -5.8100     4.9962 C.ar   1 <0>      -0.1000
   38 H38       1.5535     1.8265    -0.2428 H      1 <0>       0.0500
   39 H39       0.0234     1.8004    -1.1517 H      1 <0>       0.1000
   40 H40       0.0018     1.7820     0.6280 H      1 <0>       0.0600
   41 H41       0.8066    -2.5775     0.0003 H      1 <0>       0.1500
   42 H42       2.8998    -4.4572     1.5454 H      1 <0>       0.0900
   43 H43       1.7873    -4.4668     2.9348 H      1 <0>       0.0900
   44 H44       1.1432    -4.5620     1.2782 H      1 <0>       0.0700
   45 H45       2.3164     2.1824     2.9903 H      1 <0>       0.4100
   46 H46       2.0596     1.7407     6.3423 H      1 <0>       0.0700
   47 H47       2.7275     3.3410     6.7438 H      1 <0>       0.0700
   48 H48       1.3994     3.2007     5.5671 H      1 <0>       0.0600
   49 H49       2.7801     4.4082     3.8021 H      1 <0>       0.0800
   50 H50       4.0060     4.6128     5.0763 H      1 <0>       0.0900
   51 H51       5.6605     3.4058     3.6784 H      1 <0>       0.0900
   52 H52       4.4347     3.2012     2.4041 H      1 <0>       0.0900
   53 H53       4.2322     5.6644     2.2034 H      1 <0>       0.1300
   54 H54       5.4581     5.8690     3.4777 H      1 <0>       0.1300
   55 H55       3.8780     0.3818     5.6766 H      1 <0>       0.1400
   56 H56       5.1607    -1.8821     7.8387 H      1 <0>       0.1100
   57 H57       5.4403    -0.6476     6.5872 H      1 <0>       0.0600
   58 H58       3.8869    -0.6996     7.4547 H      1 <0>       0.0600
   59 H59       1.1968    -2.6411     5.4408 H      1 <0>       0.1300
   60 H60      -0.4258    -3.8240     6.8644 H      1 <0>       0.1400
   61 H61      -0.3087    -6.2714     7.0953 H      1 <0>       0.1400
   62 H62       3.0531    -6.3681     4.4737 H      1 <0>       0.1500
@<TRIPOS>BOND
   1    1    2 1
   2    1   38 1
   3    1   39 1
   4    1   40 1
   5    2    3 1
   6    3    9 ar
   7    3    4 ar
   8    4    5 ar
   9    4   41 1
  10    5    6 1
  11    5    7 ar
  12    6   42 1
  13    6   43 1
  14    6   44 1
  15    7   26 ar
  16    7    8 ar
  17    8    9 ar
  18    8   10 ar
  19   10   11 1
  20   10   22 ar
  21   11   12 1
  22   11   45 1
  23   12   13 1
  24   12   14 1
  25   12   15 1
  26   14   46 1
  27   14   47 1
  28   14   48 1
  29   15   16 1
  30   15   49 1
  31   15   50 1
  32   16   17 1
  33   16   51 1
  34   16   52 1
  35   17   18 1
  36   17   53 1
  37   17   54 1
  38   18   19 1
  39   18   20 1
  40   18   21 1
  41   22   23 ar
  42   22   55 1
  43   23   24 1
  44   23   26 ar
  45   24   25 1
  46   25   56 1
  47   25   57 1
  48   25   58 1
  49   26   27 1
  50   27   28 1
  51   28   37 ar
  52   28   29 ar
  53   29   30 ar
  54   29   59 1
  55   30   31 ar
  56   30   60 1
  57   31   32 ar
  58   31   61 1
  59   32   33 1
  60   32   37 ar
  61   33   34 1
  62   33   35 1
  63   33   36 1
  64   37   62 1
