@<TRIPOS>MOLECULE
ZINC000043120334
  42   45    0    0    0
SMALL
USER_CHARGES
NO_NAME
@<TRIPOS>ATOM
    1 C1       -0.0184     1.5028     0.0103 C.3    1 <0>      -0.0900
    2 C2        0.0021    -0.0041     0.0020 C.2    1 <0>       0.1400
    3 C3        0.0074    -0.7685    -1.1014 C.2    1 <0>      -0.2000
    4 C4       -0.0058    -0.2832    -2.5281 C.3    1 <0>       0.0100
    5 C5        1.4105    -0.1021    -3.0102 C.ar   1 <0>       0.1700
    6 C6        1.8190    -0.7509    -4.1731 C.ar   1 <0>      -0.1700
    7 C7        3.0989    -0.5980    -4.6253 C.ar   1 <0>      -0.0600
    8 C8        3.9706     0.2233    -3.8863 C.ar   1 <0>      -0.1100
    9 C9        5.3001     0.4282    -4.2896 C.ar   1 <0>      -0.1000
   10 C10       6.1121     1.2304    -3.5476 C.ar   1 <0>      -0.1200
   11 C11       5.6416     1.8515    -2.3921 C.ar   1 <0>      -0.1100
   12 C12       4.3594     1.6750    -1.9723 C.ar   1 <0>      -0.0800
   13 C13       3.4900     0.8539    -2.7117 C.ar   1 <0>       0.1400
   14 N14       2.2239     0.6662    -2.3267 N.ar   1 <0>      -0.4500
   15 C15       0.0293    -2.1639    -0.6560 C.ar   1 <0>      -0.0700
   16 C16       0.0430    -3.3930    -1.3184 C.ar   1 <0>      -0.1100
   17 C17       0.0627    -4.5611    -0.5869 C.ar   1 <0>       0.0600
   18 F18       0.0764    -5.7526    -1.2236 F      1 <0>      -0.1500
   19 C19       0.0689    -4.5193     0.8023 C.ar   1 <0>      -0.1500
   20 C20       0.0552    -3.3138     1.4687 C.ar   1 <0>      -0.0900
   21 C21       0.0357    -2.1235     0.7501 C.ar   1 <0>       0.1000
   22 N22       0.0239    -0.7953     1.1179 N.pl3  1 <0>      -0.4300
   23 C23       0.0306    -0.3041     2.4981 C.3    1 <0>       0.0300
   24 C24       1.4536    -0.1201     2.9589 C.2    1 <0>       0.4800
   25 O25       2.3766    -0.3756     2.2043 O.co2  1 <0>      -0.6700
   26 O26       1.6819     0.2843     4.0862 O.co2  1 <0>      -0.6900
   27 H27       1.0042     1.8801     0.0026 H      1 <0>       0.0900
   28 H28      -0.5455     1.8639    -0.8728 H      1 <0>       0.0800
   29 H29      -0.5286     1.8543     0.9071 H      1 <0>       0.0600
   30 H30      -0.5126    -1.0157    -3.1563 H      1 <0>       0.0800
   31 H31      -0.5329     0.6693    -2.5830 H      1 <0>       0.0900
   32 H32       1.1246    -1.3745    -4.7165 H      1 <0>       0.1300
   33 H33       3.4327    -1.0938    -5.5249 H      1 <0>       0.1300
   34 H34       5.6762    -0.0480    -5.1829 H      1 <0>       0.1200
   35 H35       7.1345     1.3872    -3.8583 H      1 <0>       0.1200
   36 H36       6.3056     2.4830    -1.8205 H      1 <0>       0.1300
   37 H37       4.0109     2.1635    -1.0743 H      1 <0>       0.1400
   38 H38       0.0378    -3.4283    -2.3978 H      1 <0>       0.1200
   39 H39       0.0844    -5.4411     1.3649 H      1 <0>       0.1300
   40 H40       0.0595    -3.2931     2.5485 H      1 <0>       0.1200
   41 H41      -0.4932     0.6506     2.5465 H      1 <0>       0.0900
   42 H42      -0.4697    -1.0262     3.1433 H      1 <0>       0.0800
@<TRIPOS>BOND
   1    1    2 1
   2    1   27 1
   3    1   28 1
   4    1   29 1
   5    2   22 1
   6    2    3 2
   7    3    4 1
   8    3   15 1
   9    4    5 1
  10    4   30 1
  11    4   31 1
  12    5   14 ar
  13    5    6 ar
  14    6    7 ar
  15    6   32 1
  16    7    8 ar
  17    7   33 1
  18    8   13 ar
  19    8    9 ar
  20    9   10 ar
  21    9   34 1
  22   10   11 ar
  23   10   35 1
  24   11   12 ar
  25   11   36 1
  26   12   13 ar
  27   12   37 1
  28   13   14 ar
  29   15   21 ar
  30   15   16 ar
  31   16   17 ar
  32   16   38 1
  33   17   18 1
  34   17   19 ar
  35   19   20 ar
  36   19   39 1
  37   20   21 ar
  38   20   40 1
  39   21   22 1
  40   22   23 1
  41   23   24 1
  42   23   41 1
  43   23   42 1
  44   24   25 ar
  45   24   26 ar
