@<TRIPOS>MOLECULE
ZINC000001530090
58    60    1     0     0
SMALL
USER_CHARGES
@<TRIPOS>ATOM
1      C1      0.9332   -1.3896    0.5595 C.3      1 ZINC000001530090   -0.1500
2      C2      0.2479   -0.0986    0.1071 C.3      1 ZINC000001530090   -0.0900
3      C3     -1.2325   -0.3399   -0.0379 C.2      1 ZINC000001530090   -0.0600
4      C4     -1.7475   -0.6915   -1.2421 C.2      1 ZINC000001530090   -0.0400
5      C5     -3.1748   -1.0637   -1.3560 C.ar     1 ZINC000001530090   -0.0400
6      C6     -3.6544   -2.2038   -0.7091 C.ar     1 ZINC000001530090   -0.0800
7      C7     -4.9849   -2.5474   -0.8177 C.ar     1 ZINC000001530090   -0.1400
8      C8     -5.8479   -1.7608   -1.5695 C.ar     1 ZINC000001530090    0.1000
9      O9     -7.1587   -2.1024   -1.6738 O.3      1 ZINC000001530090   -0.5000
10     C10    -5.3744   -0.6257   -2.2146 C.ar     1 ZINC000001530090   -0.1400
11     C11    -4.0465   -0.2724   -2.1061 C.ar     1 ZINC000001530090   -0.0900
12     C12    -0.8820   -0.7029   -2.4418 C.ar     1 ZINC000001530090   -0.0800
13     C13    -0.3365    0.4888   -2.9225 C.ar     1 ZINC000001530090   -0.0700
14     C14     0.4698    0.4740   -4.0403 C.ar     1 ZINC000001530090   -0.1500
15     C15     0.7394   -0.7243   -4.6886 C.ar     1 ZINC000001530090    0.1400
16     O16     1.5342   -0.7348   -5.7903 O.3      1 ZINC000001530090   -0.3000
17     C17     1.7702   -2.0016   -6.4080 C.3      1 ZINC000001530090    0.0700
18     C18     2.6802   -1.8146   -7.6236 C.3      1 ZINC000001530090    0.0500
19     N19     3.9916   -1.3210   -7.1824 N.3      1 ZINC000001530090   -0.5400
20     C20     4.7927   -2.4049   -6.5981 C.3      1 ZINC000001530090    0.0200
21     C21     4.7095   -0.6731   -8.2882 C.3      1 ZINC000001530090    0.0200
22     C22     0.1989   -1.9120   -4.2131 C.ar     1 ZINC000001530090   -0.2100
23     C23    -0.6041   -1.9061   -3.0927 C.ar     1 ZINC000001530090   -0.0600
24     C24    -2.1187   -0.1940    1.1265 C.ar     1 ZINC000001530090   -0.0400
25     C25    -3.0966    0.8062    1.1450 C.ar     1 ZINC000001530090   -0.1000
26     C26    -3.9236    0.9364    2.2405 C.ar     1 ZINC000001530090   -0.1200
27     C27    -3.7879    0.0811    3.3202 C.ar     1 ZINC000001530090   -0.1200
28     C28    -2.8226   -0.9108    3.3099 C.ar     1 ZINC000001530090   -0.1200
29     C29    -1.9922   -1.0584    2.2191 C.ar     1 ZINC000001530090   -0.1100
30     H30     2.0140   -1.2488    0.5528 H        1 ZINC000001530090    0.0600
31     H31     0.6056   -1.6405    1.5683 H        1 ZINC000001530090    0.0600
32     H32     0.6681   -2.1992   -0.1205 H        1 ZINC000001530090    0.0600
33     H33     0.4180    0.6821    0.8486 H        1 ZINC000001530090    0.0700
34     H34     0.6606    0.2150   -0.8518 H        1 ZINC000001530090    0.0800
35     H35    -2.9838   -2.8162   -0.1245 H        1 ZINC000001530090    0.1200
36     H36    -5.3566   -3.4295   -0.3177 H        1 ZINC000001530090    0.1300
37     H37    -7.7212   -1.7175   -0.9879 H        1 ZINC000001530090    0.3900
38     H38    -6.0486   -0.0165   -2.7984 H        1 ZINC000001530090    0.1300
39     H39    -3.6792    0.6106   -2.6078 H        1 ZINC000001530090    0.1300
40     H40    -0.5462    1.4211   -2.4193 H        1 ZINC000001530090    0.1300
41     H41     0.8923    1.3956   -4.4128 H        1 ZINC000001530090    0.1300
42     H42     2.2509   -2.6701   -5.6937 H        1 ZINC000001530090    0.0600
43     H43     0.8214   -2.4326   -6.7273 H        1 ZINC000001530090    0.0700
44     H44     2.8045   -2.7693   -8.1347 H        1 ZINC000001530090    0.0600
45     H45     2.2312   -1.0929   -8.3060 H        1 ZINC000001530090    0.0900
46     H46     4.9457   -3.1858   -7.3430 H        1 ZINC000001530090    0.0300
47     H47     5.7583   -2.0121   -6.2798 H        1 ZINC000001530090    0.0700
48     H48     4.2683   -2.8211   -5.7378 H        1 ZINC000001530090    0.0700
49     H49     4.1643    0.2165   -8.6035 H        1 ZINC000001530090    0.0700
50     H50     5.7079   -0.3886   -7.9560 H        1 ZINC000001530090    0.0700
51     H51     4.7890   -1.3664   -9.1255 H        1 ZINC000001530090    0.0300
52     H52     0.4107   -2.8419   -4.7199 H        1 ZINC000001530090    0.1300
53     H53    -1.0240   -2.8301   -2.7236 H        1 ZINC000001530090    0.1200
54     H54    -3.2033    1.4748    0.3035 H        1 ZINC000001530090    0.1200
55     H55    -4.6790    1.7081    2.2563 H        1 ZINC000001530090    0.1200
56     H56    -4.4385    0.1885    4.1755 H        1 ZINC000001530090    0.1200
57     H57    -2.7228   -1.5740    4.1564 H        1 ZINC000001530090    0.1200
58     H58    -1.2397   -1.8330    2.2124 H        1 ZINC000001530090    0.1200
@<TRIPOS>BOND
1     1     2     1
2     1     30    1
3     1     31    1
4     1     32    1
5     2     3     1
6     2     33    1
7     2     34    1
8     3     4     2
9     3     24    1
10    4     5     1
11    4     12    1
12    5     11    ar
13    5     6     ar
14    6     7     ar
15    6     35    1
16    7     8     ar
17    7     36    1
18    8     9     1
19    8     10    ar
20    9     37    1
21    10    11    ar
22    10    38    1
23    11    39    1
24    12    23    ar
25    12    13    ar
26    13    14    ar
27    13    40    1
28    14    15    ar
29    14    41    1
30    15    16    1
31    15    22    ar
32    16    17    1
33    17    18    1
34    17    42    1
35    17    43    1
36    18    19    1
37    18    44    1
38    18    45    1
39    19    20    1
40    19    21    1
41    20    46    1
42    20    47    1
43    20    48    1
44    21    49    1
45    21    50    1
46    21    51    1
47    22    23    ar
48    22    52    1
49    23    53    1
50    24    29    ar
51    24    25    ar
52    25    26    ar
53    25    54    1
54    26    27    ar
55    26    55    1
56    27    28    ar
57    27    56    1
58    28    29    ar
59    28    57    1
60    29    58    1
@<TRIPOS>SUBSTRUCTURE
1   ZINC000001530090 1     RESIDUE    1   A     ZIN   1
