@<TRIPOS>MOLECULE
ZINC000001886642
45    46    1     0     0
SMALL
USER_CHARGES
@<TRIPOS>ATOM
1      C1     -0.2975    1.0630    0.2571 C.3      1 ZINC000001886642    0.0200
2      N2     -0.2653   -0.4001    0.1298 N.3      1 ZINC000001886642   -0.5400
3      C3      0.3793   -1.0160    1.2973 C.3      1 ZINC000001886642    0.0200
4      C4     -1.6161   -0.9409   -0.0721 C.3      1 ZINC000001886642    0.0600
5      C5     -2.1574   -0.4698   -1.4234 C.3      1 ZINC000001886642    0.0700
6      O6     -1.3659   -1.0277   -2.4742 O.3      1 ZINC000001886642   -0.2000
7      N7     -1.7856   -0.6516   -3.7732 N.2      1 ZINC000001886642   -0.3300
8      C8     -1.1438   -1.0955   -4.8213 C.2      1 ZINC000001886642    0.2100
9      C9     -1.6480   -0.8025   -6.1701 C.2      1 ZINC000001886642   -0.1200
10     C10    -2.7707   -0.0769   -6.3260 C.2      1 ZINC000001886642   -0.0500
11     C11    -3.2757    0.2166   -7.6771 C.ar     1 ZINC000001886642   -0.0800
12     C12    -2.5937   -0.2623   -8.8004 C.ar     1 ZINC000001886642   -0.0900
13     C13    -3.0702    0.0151  -10.0626 C.ar     1 ZINC000001886642   -0.1500
14     C14    -4.2264    0.7693  -10.2210 C.ar     1 ZINC000001886642    0.1100
15     O15    -4.6926    1.0398  -11.4677 O.3      1 ZINC000001886642   -0.5000
16     C16    -4.9075    1.2473   -9.1083 C.ar     1 ZINC000001886642   -0.1500
17     C17    -4.4422    0.9704   -7.8417 C.ar     1 ZINC000001886642   -0.0800
18     C18     0.0928   -1.8947   -4.6496 C.ar     1 ZINC000001886642   -0.1200
19     C19     1.2310   -1.3124   -4.0946 C.ar     1 ZINC000001886642   -0.0500
20     C20     2.3794   -2.0612   -3.9367 C.ar     1 ZINC000001886642   -0.1300
21     C21     2.4040   -3.3879   -4.3281 C.ar     1 ZINC000001886642   -0.0800
22     C22     1.2793   -3.9733   -4.8800 C.ar     1 ZINC000001886642   -0.1600
23     C23     0.1205   -3.2359   -5.0379 C.ar     1 ZINC000001886642    0.1200
24     F24    -0.9782   -3.8078   -5.5771 F        1 ZINC000001886642   -0.1300
25     H25     0.7209    1.4435    0.3352 H        1 ZINC000001886642    0.0700
26     H26    -0.7798    1.4935   -0.6205 H        1 ZINC000001886642    0.0700
27     H27    -0.8576    1.3377    1.1509 H        1 ZINC000001886642    0.0300
28     H28    -0.2146   -0.8144    2.1887 H        1 ZINC000001886642    0.0300
29     H29     0.4530   -2.0929    1.1457 H        1 ZINC000001886642    0.0700
30     H30     1.3779   -0.5977    1.4238 H        1 ZINC000001886642    0.0700
31     H31    -1.5776   -2.0301   -0.0558 H        1 ZINC000001886642    0.0800
32     H32    -2.2713   -0.5885    0.7246 H        1 ZINC000001886642    0.0600
33     H33    -3.1913   -0.7966   -1.5345 H        1 ZINC000001886642    0.0600
34     H34    -2.1128    0.6181   -1.4733 H        1 ZINC000001886642    0.0600
35     H35    -1.1175   -1.1694   -7.0364 H        1 ZINC000001886642    0.1400
36     H36    -3.3011    0.2900   -5.4597 H        1 ZINC000001886642    0.1300
37     H37    -1.6947   -0.8483   -8.6783 H        1 ZINC000001886642    0.1300
38     H38    -2.5441   -0.3539  -10.9306 H        1 ZINC000001886642    0.1300
39     H39    -5.3121    0.3797  -11.8077 H        1 ZINC000001886642    0.3900
40     H40    -5.8058    1.8331   -9.2365 H        1 ZINC000001886642    0.1300
41     H41    -4.9725    1.3421   -6.9774 H        1 ZINC000001886642    0.1300
42     H42     1.2144   -0.2767   -3.7890 H        1 ZINC000001886642    0.1300
43     H43     3.2615   -1.6102   -3.5067 H        1 ZINC000001886642    0.1300
44     H44     3.3057   -3.9689   -4.2024 H        1 ZINC000001886642    0.1300
45     H45     1.3047   -5.0093   -5.1839 H        1 ZINC000001886642    0.1400
@<TRIPOS>BOND
1     1     2     1
2     1     25    1
3     1     26    1
4     1     27    1
5     2     3     1
6     2     4     1
7     3     28    1
8     3     29    1
9     3     30    1
10    4     5     1
11    4     31    1
12    4     32    1
13    5     6     1
14    5     33    1
15    5     34    1
16    6     7     1
17    7     8     2
18    8     9     1
19    8     18    1
20    9     10    2
21    9     35    1
22    10    11    1
23    10    36    1
24    11    17    ar
25    11    12    ar
26    12    13    ar
27    12    37    1
28    13    14    ar
29    13    38    1
30    14    15    1
31    14    16    ar
32    15    39    1
33    16    17    ar
34    16    40    1
35    17    41    1
36    18    23    ar
37    18    19    ar
38    19    20    ar
39    19    42    1
40    20    21    ar
41    20    43    1
42    21    22    ar
43    21    44    1
44    22    23    ar
45    22    45    1
46    23    24    1
@<TRIPOS>SUBSTRUCTURE
1   ZINC000001886642 1     RESIDUE    1   A     ZIN   1
