@<TRIPOS>MOLECULE
ZINC000005355152
  53   54    0    0    0
SMALL
USER_CHARGES
NO_NAME
@<TRIPOS>ATOM
    1 C1        0.8715    -0.3350     0.1574 C.3    1 <0>      -0.0100
    2 O2        0.5533    -1.5760    -0.4755 O.3    1 <0>      -0.1200
    3 N3       -0.8149    -1.9313    -0.3915 N.am   1 <0>      -0.4800
    4 C4       -1.4004    -2.7173     0.6964 C.3    1 <0>       0.1000
    5 C5       -2.8971    -2.8538     0.3700 C.3    1 <0>      -0.1000
    6 C6       -3.0607    -2.1035    -0.9353 C.2    1 <0>      -0.1800
    7 C7       -4.2057    -1.9386    -1.6309 C.2    1 <0>       0.0000
    8 C8       -5.4361    -2.6125    -1.1917 C.ar   1 <0>      -0.0800
    9 C9       -5.7198    -2.7366     0.1733 C.ar   1 <0>      -0.1000
   10 C10      -6.8736    -3.3681     0.5794 C.ar   1 <0>      -0.0900
   11 C11      -7.1803    -3.5025     2.0488 C.3    1 <0>      -0.0200
   12 C12      -6.0580    -2.8585     2.8651 C.3    1 <0>      -0.1500
   13 C13      -8.5041    -2.8012     2.3596 C.3    1 <0>      -0.1400
   14 C14      -7.2903    -4.9844     2.4133 C.3    1 <0>      -0.1400
   15 C15      -7.7566    -3.8817    -0.3636 C.ar   1 <0>       0.1300
   16 O16      -8.8934    -4.5028     0.0420 O.3    1 <0>      -0.4800
   17 C17      -7.4795    -3.7610    -1.7205 C.ar   1 <0>      -0.0900
   18 C18      -8.4411    -4.3201    -2.7372 C.3    1 <0>      -0.0200
   19 C19      -7.9046    -4.0566    -4.1456 C.3    1 <0>      -0.1500
   20 C20      -8.5911    -5.8275    -2.5224 C.3    1 <0>      -0.1400
   21 C21      -9.8041    -3.6439    -2.5759 C.3    1 <0>      -0.1400
   22 C22      -6.3308    -3.1270    -2.1372 C.ar   1 <0>      -0.0900
   23 C23      -1.7422    -1.5873    -1.2933 C.2    1 <0>       0.5500
   24 O24      -1.5132    -0.9320    -2.2931 O.2    1 <0>      -0.5200
   25 H25       1.9374    -0.1346     0.0490 H      1 <0>       0.1100
   26 H26       0.3015     0.4679    -0.3101 H      1 <0>       0.0600
   27 H27       0.6183    -0.3916     1.2161 H      1 <0>       0.0500
   28 H28      -0.9350    -3.7020     0.7398 H      1 <0>       0.0900
   29 H29      -1.2697    -2.1984     1.6460 H      1 <0>       0.0800
   30 H30      -3.1662    -3.9025     0.2438 H      1 <0>       0.1000
   31 H31      -3.5018    -2.3951     1.1523 H      1 <0>       0.1000
   32 H32      -4.2178    -1.3116    -2.5102 H      1 <0>       0.1400
   33 H33      -5.0344    -2.3380     0.9067 H      1 <0>       0.1400
   34 H34      -5.9796    -1.8028     2.6053 H      1 <0>       0.0600
   35 H35      -6.2798    -2.9557     3.9278 H      1 <0>       0.0600
   36 H36      -5.1149    -3.3581     2.6436 H      1 <0>       0.0600
   37 H37      -9.3037    -3.2601     1.7781 H      1 <0>       0.0600
   38 H38      -8.7260    -2.8984     3.4224 H      1 <0>       0.0600
   39 H39      -8.4257    -1.7455     2.0999 H      1 <0>       0.0500
   40 H40      -6.3472    -5.4840     2.1919 H      1 <0>       0.0500
   41 H41      -7.5122    -5.0816     3.4761 H      1 <0>       0.0500
   42 H42      -8.0899    -5.4433     1.8318 H      1 <0>       0.0800
   43 H43      -9.6515    -3.9105     0.1404 H      1 <0>       0.3800
   44 H44      -6.9336    -4.5383    -4.2605 H      1 <0>       0.0600
   45 H45      -8.6001    -4.4610    -4.8810 H      1 <0>       0.0600
   46 H46      -7.7977    -2.9827    -4.2986 H      1 <0>       0.0600
   47 H47      -8.9734    -6.0153    -1.5191 H      1 <0>       0.0800
   48 H48      -9.2867    -6.2319    -3.2578 H      1 <0>       0.0500
   49 H49      -7.6201    -6.3093    -2.6373 H      1 <0>       0.0500
   50 H50      -9.6972    -2.5700    -2.7289 H      1 <0>       0.0500
   51 H51     -10.4996    -4.0483    -3.3113 H      1 <0>       0.0600
   52 H52     -10.1863    -3.8317    -1.5725 H      1 <0>       0.0600
   53 H53      -6.1164    -3.0338    -3.1916 H      1 <0>       0.1400
@<TRIPOS>BOND
   1    1    2 1
   2    1   25 1
   3    1   26 1
   4    1   27 1
   5    2    3 1
   6    3   23 am
   7    3    4 1
   8    4    5 1
   9    4   28 1
  10    4   29 1
  11    5    6 1
  12    5   30 1
  13    5   31 1
  14    6    7 2
  15    6   23 1
  16    7    8 1
  17    7   32 1
  18    8   22 ar
  19    8    9 ar
  20    9   10 ar
  21    9   33 1
  22   10   11 1
  23   10   15 ar
  24   11   12 1
  25   11   13 1
  26   11   14 1
  27   12   34 1
  28   12   35 1
  29   12   36 1
  30   13   37 1
  31   13   38 1
  32   13   39 1
  33   14   40 1
  34   14   41 1
  35   14   42 1
  36   15   16 1
  37   15   17 ar
  38   16   43 1
  39   17   18 1
  40   17   22 ar
  41   18   19 1
  42   18   20 1
  43   18   21 1
  44   19   44 1
  45   19   45 1
  46   19   46 1
  47   20   47 1
  48   20   48 1
  49   20   49 1
  50   21   50 1
  51   21   51 1
  52   21   52 1
  53   22   53 1
  54   23   24 2
