@<TRIPOS>MOLECULE
ZINC000018825334
48    52    1     0     0
SMALL
USER_CHARGES
@<TRIPOS>ATOM
1      O1      0.9299    1.6362    0.6241 O.co2    1 ZINC000018825334   -0.6900
2      C2     -0.0128    1.2235   -0.0377 C.2      1 ZINC000018825334    0.5200
3      O3      0.1112    0.2117   -0.7143 O.co2    1 ZINC000018825334   -0.6900
4      C4     -1.2977    1.9407   -0.0150 C.ar     1 ZINC000018825334   -0.1400
5      C5     -2.3789    1.4669   -0.7669 C.ar     1 ZINC000018825334   -0.0700
6      C6     -3.5699    2.1353   -0.7434 C.ar     1 ZINC000018825334   -0.1300
7      C7     -3.7090    3.2870    0.0270 C.ar     1 ZINC000018825334    0.1400
8      N8     -4.9234    3.9652    0.0480 N.pl3    1 ZINC000018825334   -0.6300
9      C9     -6.1127    3.2601   -0.0486 C.ar     1 ZINC000018825334    0.5700
10     N10    -6.0789    1.9354   -0.0434 N.ar     1 ZINC000018825334   -0.5400
11     C11    -7.1938    1.2286   -0.1393 C.ar     1 ZINC000018825334    0.2200
12     C12    -8.4062    1.8916   -0.2462 C.ar     1 ZINC000018825334   -0.2600
13     C13    -9.6735    1.0967   -0.3836 C.3      1 ZINC000018825334    0.1000
14     N14   -10.2768    1.3645   -1.6847 N.2      1 ZINC000018825334   -0.4600
15     C15   -10.7375    2.5186   -2.0083 C.2      1 ZINC000018825334    0.2500
16     C16   -11.3178    2.6611   -3.3617 C.ar     1 ZINC000018825334   -0.1200
17     C17   -10.5077    3.0350   -4.4374 C.ar     1 ZINC000018825334    0.1600
18     F18    -9.1908    3.2672   -4.2449 F        1 ZINC000018825334   -0.1200
19     C19   -11.0574    3.1662   -5.6989 C.ar     1 ZINC000018825334   -0.1600
20     C20   -12.4052    2.9285   -5.8980 C.ar     1 ZINC000018825334   -0.0500
21     C21   -13.2136    2.5586   -4.8385 C.ar     1 ZINC000018825334   -0.1600
22     C22   -12.6777    2.4171   -3.5721 C.ar     1 ZINC000018825334    0.1500
23     F23   -13.4688    2.0553   -2.5385 F        1 ZINC000018825334   -0.1200
24     C24   -10.7374    3.7111   -1.1461 C.ar     1 ZINC000018825334   -0.0600
25     C25   -11.8833    4.5182   -1.1597 C.ar     1 ZINC000018825334   -0.0800
26     C26   -11.9508    5.6533   -0.3805 C.ar     1 ZINC000018825334   -0.0200
27     Cl27  -13.3785    6.6405   -0.4095 Cl       1 ZINC000018825334   -0.0600
28     C28   -10.8815    6.0075    0.4263 C.ar     1 ZINC000018825334   -0.1000
29     C29    -9.7482    5.2250    0.4533 C.ar     1 ZINC000018825334   -0.0600
30     C30    -9.6627    4.0677   -0.3302 C.ar     1 ZINC000018825334   -0.0100
31     C31    -8.4151    3.2775   -0.2388 C.ar     1 ZINC000018825334    0.2600
32     N32    -7.2507    3.9273   -0.1379 N.ar     1 ZINC000018825334   -0.5600
33     C33    -2.6356    3.7612    0.7768 C.ar     1 ZINC000018825334   -0.1600
34     C34    -1.4432    3.0950    0.7629 C.ar     1 ZINC000018825334   -0.0700
35     H35    -2.2716    0.5742   -1.3652 H        1 ZINC000018825334    0.1300
36     H36    -4.4047    1.7703   -1.3233 H        1 ZINC000018825334    0.1200
37     H37    -4.9378    4.9316    0.1303 H        1 ZINC000018825334    0.4200
38     H38    -7.1592    0.1491   -0.1345 H        1 ZINC000018825334    0.1800
39     H39    -9.4466    0.0339   -0.3001 H        1 ZINC000018825334    0.1100
40     H40   -10.3692    1.3828    0.4053 H        1 ZINC000018825334    0.0800
41     H41   -10.4328    3.4554   -6.5312 H        1 ZINC000018825334    0.1500
42     H42   -12.8288    3.0326   -6.8860 H        1 ZINC000018825334    0.1500
43     H43   -14.2652    2.3750   -5.0019 H        1 ZINC000018825334    0.1500
44     H44   -12.7205    4.2486   -1.7864 H        1 ZINC000018825334    0.1400
45     H45   -10.9364    6.8984    1.0343 H        1 ZINC000018825334    0.1500
46     H46    -8.9179    5.5070    1.0838 H        1 ZINC000018825334    0.1500
47     H47    -2.7472    4.6548    1.3731 H        1 ZINC000018825334    0.1200
48     H48    -0.6112    3.4634    1.3446 H        1 ZINC000018825334    0.1300
@<TRIPOS>BOND
1     1     2     ar
2     2     3     ar
3     2     4     1
4     4     34    ar
5     4     5     ar
6     5     6     ar
7     5     35    1
8     6     7     ar
9     6     36    1
10    7     8     1
11    7     33    ar
12    8     9     1
13    8     37    1
14    9     32    ar
15    9     10    ar
16    10    11    ar
17    11    12    ar
18    11    38    1
19    12    31    ar
20    12    13    1
21    13    14    1
22    13    39    1
23    13    40    1
24    14    15    2
25    15    16    1
26    15    24    1
27    16    22    ar
28    16    17    ar
29    17    18    1
30    17    19    ar
31    19    20    ar
32    19    41    1
33    20    21    ar
34    20    42    1
35    21    22    ar
36    21    43    1
37    22    23    1
38    24    30    ar
39    24    25    ar
40    25    26    ar
41    25    44    1
42    26    27    1
43    26    28    ar
44    28    29    ar
45    28    45    1
46    29    30    ar
47    29    46    1
48    30    31    1
49    31    32    ar
50    33    34    ar
51    33    47    1
52    34    48    1
@<TRIPOS>SUBSTRUCTURE
1   ZINC000018825334 1     RESIDUE    1   A     ZIN   1
