@<TRIPOS>MOLECULE
ZINC000001549629
51    52    1     0     0
SMALL
USER_CHARGES
@<TRIPOS>ATOM
1      C1     -0.0187    1.5258    0.0104 C.3      1 ZINC000001549629   -0.1500
2      C2      0.0021   -0.0041    0.0020 C.3      1 ZINC000001549629   -0.1000
3      C3      0.7421   -0.5109    1.2415 C.3      1 ZINC000001549629   -0.1600
4      C4     -1.4333   -0.5336    0.0129 C.3      1 ZINC000001549629   -0.1200
5      C5     -1.4157   -2.0577   -0.1212 C.3      1 ZINC000001549629   -0.0500
6      H6     -0.7891   -2.4841    0.6622 H        1 ZINC000001549629    0.1400
7      N7     -0.8750   -2.4273   -1.4361 N.4      1 ZINC000001549629   -0.4600
8      H8     -1.4990   -2.1029   -2.1596 H        1 ZINC000001549629    0.3900
9      H9      0.0318   -2.0021   -1.5585 H        1 ZINC000001549629    0.4100
10     C10    -0.7461   -3.8883   -1.5195 C.3      1 ZINC000001549629   -0.0700
11     H11    -1.7081   -4.3510   -1.2994 H        1 ZINC000001549629    0.1700
12     C12    -0.3017   -4.2814   -2.9297 C.3      1 ZINC000001549629   -0.0700
13     C13    -1.3822   -3.9196   -3.9160 C.2      1 ZINC000001549629    0.0600
14     C14    -1.5622   -2.7226   -4.5063 C.2      1 ZINC000001549629   -0.0200
15     N15    -2.6301   -2.8141   -5.3128 N.pl3    1 ZINC000001549629   -0.4700
16     H16    -2.9833   -2.0957   -5.8605 H        1 ZINC000001549629    0.4600
17     C17    -3.1186   -4.0223   -5.2446 C.cat    1 ZINC000001549629    0.3000
18     N18    -2.3657   -4.7461   -4.3885 N.pl3    1 ZINC000001549629   -0.3900
19     C19    -2.5694   -6.1508   -4.0258 C.3      1 ZINC000001549629    0.1400
20     C20    -3.3757   -6.2296   -2.7551 C.ar     1 ZINC000001549629   -0.1300
21     C21    -2.7354   -6.2407   -1.5302 C.ar     1 ZINC000001549629   -0.0800
22     C22    -3.4752   -6.3136   -0.3632 C.ar     1 ZINC000001549629    0.0100
23     Cl23   -2.6708   -6.3275    1.1751 Cl       1 ZINC000001549629   -0.0100
24     C24    -4.8559   -6.3748   -0.4225 C.ar     1 ZINC000001549629   -0.0700
25     C25    -5.4961   -6.3633   -1.6487 C.ar     1 ZINC000001549629   -0.0200
26     Cl26   -7.2288   -6.4396   -1.7241 Cl       1 ZINC000001549629   -0.0500
27     C27    -4.7555   -6.2852   -2.8148 C.ar     1 ZINC000001549629   -0.0900
28     C28     0.2786   -4.3600   -0.5201 C.2      1 ZINC000001549629    0.5000
29     O29     0.1791   -5.4683   -0.0220 O.co2    1 ZINC000001549629   -0.6200
30     O30     1.2070   -3.6332   -0.2098 O.co2    1 ZINC000001549629   -0.6600
31     C31    -2.8192   -2.5900    0.0125 C.2      1 ZINC000001549629    0.5000
32     O32    -3.3892   -3.0569   -0.9588 O.co2    1 ZINC000001549629   -0.6800
33     O33    -3.3846   -2.5537    1.0921 O.co2    1 ZINC000001549629   -0.6300
34     H34     1.0039    1.9031    0.0027 H        1 ZINC000001549629    0.0600
35     H35    -0.5459    1.8868   -0.8726 H        1 ZINC000001549629    0.0500
36     H36    -0.5289    1.8773    0.9072 H        1 ZINC000001549629    0.0600
37     H37     0.5123   -0.3556   -0.8948 H        1 ZINC000001549629    0.0600
38     H38     0.2319   -0.1594    2.1383 H        1 ZINC000001549629    0.0600
39     H39     0.7568   -1.6008    1.2356 H        1 ZINC000001549629    0.0800
40     H40     1.7647   -0.1336    1.2338 H        1 ZINC000001549629    0.0600
41     H41    -1.9156   -0.2570    0.9504 H        1 ZINC000001549629    0.1100
42     H42    -1.9862   -0.1019   -0.8214 H        1 ZINC000001549629    0.0700
43     H43     0.6149   -3.7490   -3.1835 H        1 ZINC000001549629    0.1300
44     H44    -0.1204   -5.3556   -2.9673 H        1 ZINC000001549629    0.1300
45     H45    -0.9535   -1.8432   -4.3566 H        1 ZINC000001549629    0.2200
46     H46    -3.9800   -4.3844   -5.7863 H        1 ZINC000001549629    0.2600
47     H47    -3.1045   -6.6592   -4.8278 H        1 ZINC000001549629    0.1400
48     H48    -1.6026   -6.6304   -3.8730 H        1 ZINC000001549629    0.1300
49     H49    -1.6575   -6.1929   -1.4840 H        1 ZINC000001549629    0.1500
50     H50    -5.4337   -6.4321    0.4881 H        1 ZINC000001549629    0.1500
51     H51    -5.2553   -6.2758   -3.7722 H        1 ZINC000001549629    0.1400
@<TRIPOS>BOND
1     1     2     1
2     1     34    1
3     1     35    1
4     1     36    1
5     2     3     1
6     2     4     1
7     2     37    1
8     3     38    1
9     3     39    1
10    3     40    1
11    4     5     1
12    4     41    1
13    4     42    1
14    5     6     1
15    5     7     1
16    5     31    1
17    7     8     1
18    7     9     1
19    7     10    1
20    10    11    1
21    10    12    1
22    10    28    1
23    12    13    1
24    12    43    1
25    12    44    1
26    13    18    1
27    13    14    2
28    14    15    1
29    14    45    1
30    15    16    1
31    15    17    ar
32    17    18    ar
33    17    46    1
34    18    19    1
35    19    20    1
36    19    47    1
37    19    48    1
38    20    27    ar
39    20    21    ar
40    21    22    ar
41    21    49    1
42    22    23    1
43    22    24    ar
44    24    25    ar
45    24    50    1
46    25    26    1
47    25    27    ar
48    27    51    1
49    28    29    ar
50    28    30    ar
51    31    32    ar
52    31    33    ar
@<TRIPOS>SUBSTRUCTURE
1   ZINC000001549629 1     RESIDUE    1   A     ZIN   1
