@<TRIPOS>MOLECULE
ZINC000014191207
66    67    1     0     0
SMALL
USER_CHARGES
@<TRIPOS>ATOM
1      C1      0.7858   -0.0453   -0.8902 C.3      1 ZINC000014191207   -0.1600
2      C2      0.6503   -1.3886   -0.1703 C.3      1 ZINC000014191207    0.1200
3      H3     -0.3997   -1.6793   -0.1382 H        1 ZINC000014191207    0.1300
4      N4      1.1647   -1.2646    1.1958 N.am     1 ZINC000014191207   -0.6700
5      C5      0.3648   -0.8042    2.1779 C.2      1 ZINC000014191207    0.5100
6      O6     -0.7817   -0.4923    1.9306 O.2      1 ZINC000014191207   -0.5200
7      C7      0.8892   -0.6778    3.5706 C.2      1 ZINC000014191207    0.5100
8      O8      2.0358   -0.9897    3.8180 O.2      1 ZINC000014191207   -0.4900
9      N9      0.0893   -0.2174    4.5527 N.am     1 ZINC000014191207   -0.6400
10     C10     0.5356   -0.2212    5.8768 C.ar     1 ZINC000014191207    0.1500
11     C11     1.8669   -0.4965    6.1618 C.ar     1 ZINC000014191207   -0.1600
12     C12     2.3047   -0.4994    7.4718 C.ar     1 ZINC000014191207   -0.1000
13     C13     1.4194   -0.2288    8.4989 C.ar     1 ZINC000014191207   -0.1400
14     C14     0.0930    0.0453    8.2187 C.ar     1 ZINC000014191207   -0.1000
15     C15    -0.3501    0.0560    6.9110 C.ar     1 ZINC000014191207   -0.1000
16     C16    -1.7955    0.3547    6.6066 C.3      1 ZINC000014191207   -0.0300
17     C17    -2.5612    0.5562    7.9158 C.3      1 ZINC000014191207   -0.1400
18     C18    -1.8864    1.6270    5.7616 C.3      1 ZINC000014191207   -0.1500
19     C19    -2.4063   -0.8158    5.8334 C.3      1 ZINC000014191207   -0.1600
20     C20     1.4394   -2.4373   -0.9110 C.2      1 ZINC000014191207    0.5200
21     O21     2.3426   -3.0234   -0.3527 O.2      1 ZINC000014191207   -0.5400
22     N22     1.1415   -2.7238   -2.1938 N.am     1 ZINC000014191207   -0.6700
23     C23     1.8338   -3.8175   -2.8799 C.3      1 ZINC000014191207    0.1400
24     H24     1.9924   -4.6408   -2.1833 H        1 ZINC000014191207    0.1200
25     C25     0.9833   -4.3013   -4.0560 C.3      1 ZINC000014191207   -0.1900
26     C26    -0.2845   -4.9278   -3.5350 C.2      1 ZINC000014191207    0.4900
27     O27    -0.5263   -4.9111   -2.3402 O.co2    1 ZINC000014191207   -0.6800
28     O28    -1.0682   -5.4514   -4.3084 O.co2    1 ZINC000014191207   -0.6900
29     C29     3.1646   -3.3278   -3.3902 C.2      1 ZINC000014191207    0.3500
30     O30     3.3905   -2.1429   -3.4471 O.2      1 ZINC000014191207   -0.4200
31     C31     4.2134   -4.3168   -3.8294 C.3      1 ZINC000014191207    0.0100
32     O32     5.3773   -3.6135   -4.2683 O.3      1 ZINC000014191207   -0.2900
33     C33     6.4258   -4.3640   -4.7010 C.ar     1 ZINC000014191207    0.0900
34     C34     7.3982   -4.7824   -3.8032 C.ar     1 ZINC000014191207    0.0700
35     F35     7.3040   -4.4444   -2.4986 F        1 ZINC000014191207   -0.1000
36     C36     8.4652   -5.5472   -4.2458 C.ar     1 ZINC000014191207    0.1000
37     F37     9.4119   -5.9547   -3.3724 F        1 ZINC000014191207   -0.1100
38     C38     8.5617   -5.8946   -5.5824 C.ar     1 ZINC000014191207   -0.1400
39     C39     7.5931   -5.4779   -6.4795 C.ar     1 ZINC000014191207    0.1000
40     F40     7.6894   -5.8181   -7.7834 F        1 ZINC000014191207   -0.1100
41     C41     6.5218   -4.7174   -6.0399 C.ar     1 ZINC000014191207    0.0700
42     F42     5.5765   -4.3113   -6.9156 F        1 ZINC000014191207   -0.1000
43     H43     1.8359    0.2454   -0.9223 H        1 ZINC000014191207    0.0700
44     H44     0.4031   -0.1376   -1.9066 H        1 ZINC000014191207    0.0800
45     H45     0.2151    0.7132   -0.3545 H        1 ZINC000014191207    0.0700
46     H46     2.0811   -1.5139    1.3935 H        1 ZINC000014191207    0.4200
47     H47    -0.7963    0.1167    4.3404 H        1 ZINC000014191207    0.4300
48     H48     2.5589   -0.7083    5.3601 H        1 ZINC000014191207    0.1800
49     H49     3.3396   -0.7137    7.6941 H        1 ZINC000014191207    0.1200
50     H50     1.7644   -0.2318    9.5223 H        1 ZINC000014191207    0.1200
51     H51    -0.5960    0.2555    9.0233 H        1 ZINC000014191207    0.1300
52     H52    -2.1261    1.3901    8.4666 H        1 ZINC000014191207    0.0600
53     H53    -3.6067    0.7723    7.6956 H        1 ZINC000014191207    0.0600
54     H54    -2.4965   -0.3501    8.5178 H        1 ZINC000014191207    0.0600
55     H55    -1.2365    1.5325    4.8917 H        1 ZINC000014191207    0.0500
56     H56    -2.9153    1.7718    5.4324 H        1 ZINC000014191207    0.0700
57     H57    -1.5720    2.4830    6.3587 H        1 ZINC000014191207    0.0600
58     H58    -2.4456   -1.6950    6.4765 H        1 ZINC000014191207    0.0600
59     H59    -3.4151   -0.5536    5.5145 H        1 ZINC000014191207    0.0700
60     H60    -1.7935   -1.0326    4.9585 H        1 ZINC000014191207    0.0600
61     H61     0.4686   -2.2059   -2.6628 H        1 ZINC000014191207    0.4100
62     H62     0.7339   -3.4552   -4.6963 H        1 ZINC000014191207    0.0700
63     H63     1.5436   -5.0389   -4.6305 H        1 ZINC000014191207    0.0800
64     H64     4.4745   -4.9651   -2.9929 H        1 ZINC000014191207    0.1000
65     H65     3.8231   -4.9205   -4.6488 H        1 ZINC000014191207    0.1000
66     H66     9.3939   -6.4912   -5.9259 H        1 ZINC000014191207    0.1700
@<TRIPOS>BOND
1     1     2     1
2     1     43    1
3     1     44    1
4     1     45    1
5     2     3     1
6     2     4     1
7     2     20    1
8     4     5     am
9     4     46    1
10    5     6     2
11    5     7     1
12    7     8     2
13    7     9     am
14    9     10    1
15    9     47    1
16    10    15    ar
17    10    11    ar
18    11    12    ar
19    11    48    1
20    12    13    ar
21    12    49    1
22    13    14    ar
23    13    50    1
24    14    15    ar
25    14    51    1
26    15    16    1
27    16    17    1
28    16    18    1
29    16    19    1
30    17    52    1
31    17    53    1
32    17    54    1
33    18    55    1
34    18    56    1
35    18    57    1
36    19    58    1
37    19    59    1
38    19    60    1
39    20    21    2
40    20    22    am
41    22    23    1
42    22    61    1
43    23    24    1
44    23    25    1
45    23    29    1
46    25    26    1
47    25    62    1
48    25    63    1
49    26    27    ar
50    26    28    ar
51    29    30    2
52    29    31    1
53    31    32    1
54    31    64    1
55    31    65    1
56    32    33    1
57    33    41    ar
58    33    34    ar
59    34    35    1
60    34    36    ar
61    36    37    1
62    36    38    ar
63    38    39    ar
64    38    66    1
65    39    40    1
66    39    41    ar
67    41    42    1
@<TRIPOS>SUBSTRUCTURE
1   ZINC000014191207 1     RESIDUE    1   A     ZIN   1
