@<TRIPOS>MOLECULE
ZINC000016052862
  15   16    0    0    0
SMALL
USER_CHARGES
NO_NAME
@<TRIPOS>ATOM
    1 C1       -0.0161     1.3357     0.0094 C.2    1 <0>       0.0800
    2 C2        1.2935     1.7786    -0.0007 C.ar   1 <0>      -0.2100
    3 C3        1.9150     3.0456     0.0001 C.ar   1 <0>      -0.0400
    4 C4        3.2691     3.1262    -0.0124 C.ar   1 <0>      -0.1600
    5 C5        4.0728     1.9839    -0.0266 C.ar   1 <0>      -0.0700
    6 C6        3.5417     0.7358    -0.0287 C.ar   1 <0>      -0.1100
    7 C7        2.1394     0.5749    -0.0153 C.ar   1 <0>       0.1000
    8 N8        1.3239    -0.4638    -0.0132 N.2    1 <0>      -0.3100
    9 N9        0.0021    -0.0041     0.0020 N.pl3  1 <0>      -0.4300
   10 H10      -0.8978     1.9592     0.0252 H      1 <0>       0.1900
   11 H11       1.3168     3.9448     0.0103 H      1 <0>       0.1200
   12 H12       3.7380     4.0991    -0.0116 H      1 <0>       0.1200
   13 H13       5.1468     2.0975    -0.0366 H      1 <0>       0.1300
   14 H14       4.1878    -0.1295    -0.0406 H      1 <0>       0.1300
   15 H15      -0.7846    -0.5715     0.0064 H      1 <0>       0.4400
@<TRIPOS>BOND
   1    1    9 1
   2    1    2 2
   3    1   10 1
   4    2    7 ar
   5    2    3 ar
   6    3    4 ar
   7    3   11 1
   8    4    5 ar
   9    4   12 1
  10    5    6 ar
  11    5   13 1
  12    6    7 ar
  13    6   14 1
  14    7    8 2
  15    8    9 1
  16    9   15 1
