@<TRIPOS>MOLECULE
ZINC000043173277
46    49    1     0     0
SMALL
USER_CHARGES
@<TRIPOS>ATOM
1      O1      0.0356    0.0394   -0.4671 O.2      1 ZINC000043173277   -0.5300
2      C2      0.0090    1.2624   -0.4654 C.2      1 ZINC000043173277    0.4500
3      C3     -1.2098    1.9458   -0.3298 C.2      1 ZINC000043173277   -0.3900
4      C4     -1.2183    3.3094   -0.3302 C.2      1 ZINC000043173277    0.4800
5      N5     -2.4144    3.9779   -0.1972 N.pl3    1 ZINC000043173277   -0.7300
6      C6     -2.4386    5.4427   -0.1960 C.3      1 ZINC000043173277    0.1000
7      C7     -3.8804    5.9288   -0.0354 C.3      1 ZINC000043173277   -0.1300
8      C8     -3.9057    7.4586   -0.0340 C.3      1 ZINC000043173277    0.0600
9      N9     -5.2900    7.9253    0.1202 N.3      1 ZINC000043173277   -0.6800
10     C10    -5.3413    9.3878    0.2482 C.3      1 ZINC000043173277    0.1400
11     H11    -4.5588    9.8333   -0.3661 H        1 ZINC000043173277    0.0700
12     C12    -5.1242    9.7789    1.7121 C.3      1 ZINC000043173277   -0.1500
13     C13    -5.4719   11.2646    1.8707 C.3      1 ZINC000043173277    0.0600
14     O14    -6.8653   11.4319    1.6055 O.3      1 ZINC000043173277   -0.2900
15     C15    -7.3677   10.8727    0.4736 C.ar     1 ZINC000043173277    0.1900
16     C16    -8.6023   11.3141    0.0066 C.ar     1 ZINC000043173277   -0.1200
17     Br17   -9.5346   12.6677    0.9418 Br       1 ZINC000043173277   -0.0200
18     C18    -9.1484   10.7670   -1.1375 C.ar     1 ZINC000043173277   -0.0300
19     C19    -8.4671    9.7769   -1.8223 C.ar     1 ZINC000043173277   -0.1200
20     Br20   -9.2141    9.0244   -3.3881 Br       1 ZINC000043173277   -0.0300
21     C21    -7.2400    9.3382   -1.3618 C.ar     1 ZINC000043173277   -0.0400
22     C22    -6.6871    9.8851   -0.2152 C.ar     1 ZINC000043173277   -0.1500
23     N23    -0.0687    4.0193   -0.4589 N.pl3    1 ZINC000043173277   -0.6100
24     C24     1.1678    3.3888   -0.5965 C.2      1 ZINC000043173277    0.1700
25     C25     1.2142    2.0090   -0.5948 C.2      1 ZINC000043173277   -0.3000
26     S26     2.8800    1.4725   -0.7817 S.3      1 ZINC000043173277    0.2100
27     C27     3.4483    3.1323   -0.8548 C.2      1 ZINC000043173277   -0.1800
28     C28     2.4274    3.9743   -0.7374 C.2      1 ZINC000043173277   -0.1600
29     H29    -2.1335    1.3958   -0.2264 H        1 ZINC000043173277    0.1500
30     H30    -3.2411    3.4791   -0.1044 H        1 ZINC000043173277    0.4200
31     H31    -1.8352    5.8153    0.6317 H        1 ZINC000043173277    0.0700
32     H32    -2.0328    5.8136   -1.1372 H        1 ZINC000043173277    0.0700
33     H33    -4.4838    5.5561   -0.8631 H        1 ZINC000043173277    0.0800
34     H34    -4.2861    5.5579    0.9059 H        1 ZINC000043173277    0.0900
35     H35    -3.3023    7.8312    0.7937 H        1 ZINC000043173277    0.0800
36     H36    -3.4999    7.8295   -0.9753 H        1 ZINC000043173277    0.0400
37     H37    -5.8657    7.6089   -0.6457 H        1 ZINC000043173277    0.3500
38     H38    -5.7717    9.1797    2.3523 H        1 ZINC000043173277    0.0900
39     H39    -4.0821    9.6142    1.9857 H        1 ZINC000043173277    0.0900
40     H40    -5.2505   11.5868    2.8881 H        1 ZINC000043173277    0.1200
41     H41    -4.8900   11.8553    1.1631 H        1 ZINC000043173277    0.0700
42     H42   -10.1067   11.1116   -1.4972 H        1 ZINC000043173277    0.1500
43     H43    -6.7100    8.5649   -1.8981 H        1 ZINC000043173277    0.1400
44     H44    -0.1081    4.9885   -0.4555 H        1 ZINC000043173277    0.4100
45     H45     4.4806    3.4265   -0.9738 H        1 ZINC000043173277    0.1800
46     H46     2.5626    5.0456   -0.7577 H        1 ZINC000043173277    0.1500
@<TRIPOS>BOND
1     1     2     2
2     2     25    1
3     2     3     1
4     3     4     2
5     3     29    1
6     4     5     1
7     4     23    1
8     5     6     1
9     5     30    1
10    6     7     1
11    6     31    1
12    6     32    1
13    7     8     1
14    7     33    1
15    7     34    1
16    8     9     1
17    8     35    1
18    8     36    1
19    9     10    1
20    9     37    1
21    10    11    1
22    10    22    1
23    10    12    1
24    12    13    1
25    12    38    1
26    12    39    1
27    13    14    1
28    13    40    1
29    13    41    1
30    14    15    1
31    15    22    ar
32    15    16    ar
33    16    17    1
34    16    18    ar
35    18    19    ar
36    18    42    1
37    19    20    1
38    19    21    ar
39    21    22    ar
40    21    43    1
41    23    24    1
42    23    44    1
43    24    28    1
44    24    25    2
45    25    26    1
46    26    27    1
47    27    28    2
48    27    45    1
49    28    46    1
@<TRIPOS>SUBSTRUCTURE
1   ZINC000043173277 1     RESIDUE    1   A     ZIN   1
