@<TRIPOS>MOLECULE
ZINC000035997754
54    57    1     0     0
SMALL
USER_CHARGES
@<TRIPOS>ATOM
1      C1     -0.0178    1.4608    0.0101 C.3      1 ZINC000035997754    0.1000
2      N2      0.0021   -0.0041    0.0020 N.am     1 ZINC000035997754   -0.3900
3      O3      1.2378   -0.6953   -0.0135 O.3      1 ZINC000035997754   -0.6500
4      C4     -1.1558   -0.6938    0.0094 C.2      1 ZINC000035997754    0.5000
5      O5     -2.2166   -0.1004    0.0227 O.2      1 ZINC000035997754   -0.6400
6      C6     -1.1358   -2.1725    0.0012 C.ar     1 ZINC000035997754    0.0900
7      N7      0.0324   -2.8138   -0.0079 N.ar     1 ZINC000035997754   -0.3600
8      C8      0.1174   -4.1242   -0.0154 C.ar     1 ZINC000035997754    0.0900
9      C9     -1.0331   -4.9092   -0.0141 C.ar     1 ZINC000035997754    0.0400
10     C10    -2.2911   -4.2693   -0.0046 C.ar     1 ZINC000035997754   -0.0800
11     C11    -2.3350   -2.8740    0.0089 C.ar     1 ZINC000035997754   -0.0900
12     C12    -3.2883   -5.3365   -0.0056 C.2      1 ZINC000035997754   -0.1700
13     C13    -4.7856   -5.1660    0.0026 C.3      1 ZINC000035997754    0.1200
14     N14    -5.2515   -4.8643   -1.3575 N.3      1 ZINC000035997754   -0.4800
15     C15    -4.5365   -3.6881   -1.9165 C.3      1 ZINC000035997754    0.0300
16     C16    -5.4563   -3.1738   -3.0446 C.3      1 ZINC000035997754   -0.1300
17     C17    -6.8661   -3.6782   -2.6736 C.3      1 ZINC000035997754   -0.1100
18     C18    -6.6795   -4.4548   -1.3525 C.3      1 ZINC000035997754    0.0400
19     H19    -6.8868   -3.8090   -0.4993 H        1 ZINC000035997754    0.0800
20     C20    -7.5760   -5.6659   -1.3237 C.2      1 ZINC000035997754    0.5300
21     N21    -8.9140   -5.5153   -1.3824 N.am     1 ZINC000035997754   -0.8600
22     O22    -7.0934   -6.7759   -1.2476 O.2      1 ZINC000035997754   -0.5200
23     C23    -2.6147   -6.5001   -0.0151 C.2      1 ZINC000035997754    0.0800
24     N24    -1.2694   -6.2607   -0.0203 N.pl3    1 ZINC000035997754   -0.4700
25     C25    -0.2319   -7.2950   -0.0314 C.3      1 ZINC000035997754    0.1500
26     C26     0.2186   -7.5697    1.3802 C.ar     1 ZINC000035997754   -0.1200
27     C27     1.2631   -6.8462    1.9250 C.ar     1 ZINC000035997754   -0.0700
28     C28     1.6771   -7.0973    3.2194 C.ar     1 ZINC000035997754   -0.1500
29     C29     1.0450   -8.0735    3.9708 C.ar     1 ZINC000035997754    0.1000
30     F30     1.4486   -8.3195    5.2364 F        1 ZINC000035997754   -0.1400
31     C31    -0.0013   -8.7971    3.4243 C.ar     1 ZINC000035997754   -0.1600
32     C32    -0.4167   -8.5410    2.1313 C.ar     1 ZINC000035997754   -0.0700
33     H33     1.0048    1.8381    0.0023 H        1 ZINC000035997754    0.0600
34     H34    -0.5450    1.8219   -0.8730 H        1 ZINC000035997754    0.0400
35     H35    -0.5280    1.8123    0.9069 H        1 ZINC000035997754    0.0400
36     H36     1.0882   -4.5974   -0.0230 H        1 ZINC000035997754    0.1400
37     H37    -3.2802   -2.3515    0.0169 H        1 ZINC000035997754    0.1300
38     H38    -5.2541   -6.0863    0.3513 H        1 ZINC000035997754    0.0900
39     H39    -5.0543   -4.3464    0.6689 H        1 ZINC000035997754    0.0400
40     H40    -4.4084   -2.9223   -1.1515 H        1 ZINC000035997754    0.0600
41     H41    -3.5698   -3.9879   -2.3211 H        1 ZINC000035997754    0.0900
42     H42    -5.4408   -2.0844   -3.0787 H        1 ZINC000035997754    0.0700
43     H43    -5.1464   -3.5878   -4.0041 H        1 ZINC000035997754    0.0700
44     H44    -7.5426   -2.8364   -2.5256 H        1 ZINC000035997754    0.0800
45     H45    -7.2482   -4.3398   -3.4510 H        1 ZINC000035997754    0.0700
46     H46    -9.3000   -4.6275   -1.4433 H        1 ZINC000035997754    0.4000
47     H47    -9.4910   -6.2948   -1.3638 H        1 ZINC000035997754    0.4000
48     H48    -3.0698   -7.4795   -0.0186 H        1 ZINC000035997754    0.1700
49     H49    -0.6344   -8.2087   -0.4686 H        1 ZINC000035997754    0.1000
50     H50     0.6167   -6.9521   -0.6233 H        1 ZINC000035997754    0.1000
51     H51     1.7559   -6.0848    1.3388 H        1 ZINC000035997754    0.1400
52     H52     2.4935   -6.5324    3.6446 H        1 ZINC000035997754    0.1400
53     H53    -0.4948   -9.5591    4.0093 H        1 ZINC000035997754    0.1400
54     H54    -1.2330   -9.1051    1.7049 H        1 ZINC000035997754    0.1300
@<TRIPOS>BOND
1     1     2     1
2     1     33    1
3     1     34    1
4     1     35    1
5     2     3     1
6     2     4     am
7     4     5     2
8     4     6     1
9     6     11    ar
10    6     7     ar
11    7     8     ar
12    8     9     ar
13    8     36    1
14    9     24    1
15    9     10    ar
16    10    11    ar
17    10    12    1
18    11    37    1
19    12    13    1
20    12    23    2
21    13    14    1
22    13    38    1
23    13    39    1
24    14    18    1
25    14    15    1
26    15    16    1
27    15    40    1
28    15    41    1
29    16    17    1
30    16    42    1
31    16    43    1
32    17    18    1
33    17    44    1
34    17    45    1
35    18    19    1
36    18    20    1
37    20    21    am
38    20    22    2
39    21    46    1
40    21    47    1
41    23    24    1
42    23    48    1
43    24    25    1
44    25    26    1
45    25    49    1
46    25    50    1
47    26    32    ar
48    26    27    ar
49    27    28    ar
50    27    51    1
51    28    29    ar
52    28    52    1
53    29    30    1
54    29    31    ar
55    31    32    ar
56    31    53    1
57    32    54    1
@<TRIPOS>SUBSTRUCTURE
1   ZINC000035997754 1     RESIDUE    1   A     ZIN   1
