@<TRIPOS>MOLECULE
ZINC000085599718
73    74    1     0     0
SMALL
USER_CHARGES
@<TRIPOS>ATOM
1      C1     -0.9932   -0.7422   -1.1537 C.3      1 ZINC000085599718   -0.1200
2      C2      0.2544   -1.2927   -0.5123 C.2      1 ZINC000085599718   -0.1300
3      C3      0.2325   -1.7221    0.9321 C.3      1 ZINC000085599718   -0.1200
4      C4      1.3580   -1.3979   -1.2102 C.2      1 ZINC000085599718   -0.1700
5      C5      1.4159   -0.8547   -2.6148 C.3      1 ZINC000085599718   -0.0900
6      C6      2.5337    0.1853   -2.7136 C.3      1 ZINC000085599718   -0.0800
7      C7      2.6696    0.6423   -4.1432 C.2      1 ZINC000085599718   -0.1300
8      C8      3.5155   -0.1466   -5.1093 C.3      1 ZINC000085599718   -0.1200
9      C9      2.0525    1.7253   -4.5462 C.2      1 ZINC000085599718   -0.1600
10     C10     2.0786    2.1095   -6.0032 C.3      1 ZINC000085599718   -0.0900
11     C11     2.6591    3.5175   -6.1490 C.3      1 ZINC000085599718   -0.0800
12     C12     2.5756    3.9485   -7.5906 C.2      1 ZINC000085599718   -0.1300
13     C13     3.6795    3.5863   -8.5505 C.3      1 ZINC000085599718   -0.1200
14     C14     1.5435    4.6380   -8.0094 C.2      1 ZINC000085599718   -0.1600
15     C15     0.3745    4.8785   -7.0893 C.3      1 ZINC000085599718   -0.0900
16     C16    -0.9145    4.4141   -7.7703 C.3      1 ZINC000085599718   -0.0800
17     C17    -2.0954    4.7619   -6.9011 C.2      1 ZINC000085599718   -0.1100
18     C18    -2.5252    3.8234   -5.8031 C.3      1 ZINC000085599718   -0.1200
19     C19    -2.7482    5.8801   -7.0999 C.2      1 ZINC000085599718   -0.1700
20     C20    -3.8390    6.2955   -6.1466 C.3      1 ZINC000085599718   -0.0600
21     C21    -3.5431    7.6740   -5.6145 C.2      1 ZINC000085599718   -0.1100
22     C22    -4.0779    8.7485   -6.2141 C.2      1 ZINC000085599718   -0.1200
23     C23    -4.9707    8.5686   -7.4147 C.3      1 ZINC000085599718   -0.1200
24     C24    -3.7982   10.1068   -5.7050 C.2      1 ZINC000085599718    0.4200
25     O25    -4.4627   11.0524   -6.0794 O.2      1 ZINC000085599718   -0.4200
26     C26    -2.6994   10.3021   -4.7334 C.ar     1 ZINC000085599718   -0.1300
27     C27    -2.2177   11.5697   -4.4365 C.ar     1 ZINC000085599718   -0.0700
28     C28    -1.1863   11.7156   -3.5203 C.ar     1 ZINC000085599718   -0.1000
29     C29    -0.6363   10.6095   -2.9024 C.ar     1 ZINC000085599718   -0.1000
30     C30    -1.1069    9.3365   -3.1893 C.ar     1 ZINC000085599718   -0.0700
31     C31    -2.1385    9.1747   -4.1041 C.ar     1 ZINC000085599718   -0.1200
32     C32    -2.6709    7.8326   -4.4327 C.2      1 ZINC000085599718    0.4200
33     O33    -2.3902    6.8739   -3.7413 O.2      1 ZINC000085599718   -0.4200
34     H34    -1.8244   -0.8140   -0.4523 H        1 ZINC000085599718    0.0600
35     H35    -0.8334    0.3021   -1.4221 H        1 ZINC000085599718    0.0700
36     H36    -1.2243   -1.3166   -2.0508 H        1 ZINC000085599718    0.0700
37     H37    -0.7638   -1.5613    1.3439 H        1 ZINC000085599718    0.0600
38     H38     0.4876   -2.7796    1.0006 H        1 ZINC000085599718    0.0600
39     H39     0.9578   -1.1360    1.4964 H        1 ZINC000085599718    0.0700
40     H40     2.2263   -1.8739   -0.7791 H        1 ZINC000085599718    0.1100
41     H41     1.6148   -1.6692   -3.3114 H        1 ZINC000085599718    0.0700
42     H42     0.4627   -0.3884   -2.8636 H        1 ZINC000085599718    0.0700
43     H43     2.2925    1.0392   -2.0806 H        1 ZINC000085599718    0.0700
44     H44     3.4729   -0.2582   -2.3831 H        1 ZINC000085599718    0.0700
45     H45     2.8821   -0.8355   -5.6681 H        1 ZINC000085599718    0.0600
46     H46     4.0090    0.5359   -5.8013 H        1 ZINC000085599718    0.0700
47     H47     4.2672   -0.7107   -4.5572 H        1 ZINC000085599718    0.0600
48     H48     1.5250    2.3428   -3.8343 H        1 ZINC000085599718    0.1100
49     H49     2.6982    1.4021   -6.5544 H        1 ZINC000085599718    0.0700
50     H50     1.0643    2.0916   -6.4019 H        1 ZINC000085599718    0.0700
51     H51     2.0908    4.2109   -5.5290 H        1 ZINC000085599718    0.0700
52     H52     3.7015    3.5156   -5.8302 H        1 ZINC000085599718    0.0700
53     H53     3.4566    2.6255   -9.0147 H        1 ZINC000085599718    0.0700
54     H54     3.7568    4.3530   -9.3214 H        1 ZINC000085599718    0.0600
55     H55     4.6234    3.5182   -8.0098 H        1 ZINC000085599718    0.0600
56     H56     1.5304    5.0341   -9.0141 H        1 ZINC000085599718    0.1100
57     H57     0.5187    4.3194   -6.1648 H        1 ZINC000085599718    0.0800
58     H58     0.3029    5.9423   -6.8631 H        1 ZINC000085599718    0.0700
59     H59    -1.0149    4.9108   -8.7354 H        1 ZINC000085599718    0.0700
60     H60    -0.8783    3.3349   -7.9192 H        1 ZINC000085599718    0.0700
61     H61    -2.0764    4.1371   -4.8606 H        1 ZINC000085599718    0.0700
62     H62    -3.6113    3.8432   -5.7127 H        1 ZINC000085599718    0.0700
63     H63    -2.1988    2.8112   -6.0418 H        1 ZINC000085599718    0.0600
64     H64    -2.5048    6.5043   -7.9469 H        1 ZINC000085599718    0.1100
65     H65    -4.7949    6.3057   -6.6704 H        1 ZINC000085599718    0.0900
66     H66    -3.8862    5.5887   -5.3182 H        1 ZINC000085599718    0.1000
67     H67    -6.0046    8.4625   -7.0862 H        1 ZINC000085599718    0.0900
68     H68    -4.8838    9.4385   -8.0658 H        1 ZINC000085599718    0.0800
69     H69    -4.6695    7.6746   -7.9607 H        1 ZINC000085599718    0.0800
70     H70    -2.6437   12.4382   -4.9168 H        1 ZINC000085599718    0.1400
71     H71    -0.8105   12.7013   -3.2887 H        1 ZINC000085599718    0.1400
72     H72     0.1663   10.7366   -2.1911 H        1 ZINC000085599718    0.1400
73     H73    -0.6726    8.4752   -2.7034 H        1 ZINC000085599718    0.1400
@<TRIPOS>BOND
1     1     2     1
2     1     34    1
3     1     35    1
4     1     36    1
5     2     3     1
6     2     4     2
7     3     37    1
8     3     38    1
9     3     39    1
10    4     5     1
11    4     40    1
12    5     6     1
13    5     41    1
14    5     42    1
15    6     7     1
16    6     43    1
17    6     44    1
18    7     8     1
19    7     9     2
20    8     45    1
21    8     46    1
22    8     47    1
23    9     10    1
24    9     48    1
25    10    11    1
26    10    49    1
27    10    50    1
28    11    12    1
29    11    51    1
30    11    52    1
31    12    13    1
32    12    14    2
33    13    53    1
34    13    54    1
35    13    55    1
36    14    15    1
37    14    56    1
38    15    16    1
39    15    57    1
40    15    58    1
41    16    17    1
42    16    59    1
43    16    60    1
44    17    18    1
45    17    19    2
46    18    61    1
47    18    62    1
48    18    63    1
49    19    20    1
50    19    64    1
51    20    21    1
52    20    65    1
53    20    66    1
54    21    32    1
55    21    22    2
56    22    23    1
57    22    24    1
58    23    67    1
59    23    68    1
60    23    69    1
61    24    25    2
62    24    26    1
63    26    31    ar
64    26    27    ar
65    27    28    ar
66    27    70    1
67    28    29    ar
68    28    71    1
69    29    30    ar
70    29    72    1
71    30    31    ar
72    30    73    1
73    31    32    1
74    32    33    2
@<TRIPOS>SUBSTRUCTURE
1   ZINC000085599718 1     RESIDUE    1   A     ZIN   1
