@<TRIPOS>MOLECULE
ZINC000008674215
69    73    1     0     0
SMALL
USER_CHARGES
@<TRIPOS>ATOM
1      C1      0.9503    0.0978   -1.3334 C.3      1 ZINC000008674215    0.0300
2      N2      0.1012    0.0303   -0.1365 N.3      1 ZINC000008674215   -0.5100
3      C3     -0.0598    1.3583    0.4703 C.3      1 ZINC000008674215    0.0300
4      C4     -1.2038   -0.5671   -0.4499 C.3      1 ZINC000008674215    0.1000
5      H5     -1.6491   -0.0251   -1.2841 H        1 ZINC000008674215    0.0400
6      C6     -2.0978   -0.4378    0.7468 C.2      1 ZINC000008674215    0.3600
7      O7     -2.7077    0.7345    0.9762 O.3      1 ZINC000008674215   -0.6300
8      C8     -2.3136   -1.4785    1.6153 C.2      1 ZINC000008674215   -0.5000
9      C9     -3.1775   -1.2839    2.7906 C.2      1 ZINC000008674215    0.6000
10     O10    -3.6286   -0.1817    3.0380 O.2      1 ZINC000008674215   -0.5700
11     N11    -3.4690   -2.3269    3.5928 N.am     1 ZINC000008674215   -0.7400
12     C12    -4.4230   -2.1613    4.6922 C.3      1 ZINC000008674215    0.2800
13     N13    -5.7591   -2.5806    4.2485 N.3      1 ZINC000008674215   -0.5300
14     C14    -5.9573   -4.0374    4.4597 C.3      1 ZINC000008674215    0.0400
15     C15    -7.4991   -4.1901    4.4533 C.3      1 ZINC000008674215   -0.1200
16     C16    -7.9760   -2.9125    5.1815 C.3      1 ZINC000008674215   -0.1300
17     C17    -6.8146   -1.9113    5.0394 C.3      1 ZINC000008674215    0.0400
18     C18    -1.6900   -2.7795    1.3786 C.2      1 ZINC000008674215    0.4000
19     O19    -2.0381   -3.7557    2.0104 O.2      1 ZINC000008674215   -0.5200
20     C20    -0.6001   -2.8874    0.3286 C.3      1 ZINC000008674215    0.0800
21     O21     0.6509   -2.4541    0.8665 O.3      1 ZINC000008674215   -0.5100
22     C22    -0.5323   -4.3263   -0.1093 C.2      1 ZINC000008674215    0.3900
23     O23     0.0391   -5.1218    0.6111 O.2      1 ZINC000008674215   -0.5100
24     C24    -1.0893   -4.7921   -1.2939 C.2      1 ZINC000008674215   -0.4600
25     C25    -0.9506   -6.1305   -1.6186 C.2      1 ZINC000008674215    0.3300
26     O26    -0.2100   -6.9480   -0.8389 O.3      1 ZINC000008674215   -0.6200
27     C27    -1.6174   -6.6542   -2.8203 C.ar     1 ZINC000008674215   -0.0800
28     C28    -1.2497   -7.8950   -3.3583 C.ar     1 ZINC000008674215    0.1300
29     O29    -0.2778   -8.6349   -2.7679 O.3      1 ZINC000008674215   -0.4800
30     C30    -1.8873   -8.3611   -4.4988 C.ar     1 ZINC000008674215   -0.1600
31     C31    -2.8761   -7.6060   -5.0981 C.ar     1 ZINC000008674215   -0.1200
32     C32    -3.2449   -6.3800   -4.5661 C.ar     1 ZINC000008674215   -0.1400
33     C33    -2.6264   -5.9041   -3.4323 C.ar     1 ZINC000008674215   -0.0800
34     C34    -3.0379   -4.5833   -2.8336 C.3      1 ZINC000008674215    0.1800
35     C35    -3.6598   -3.7029   -3.9194 C.3      1 ZINC000008674215   -0.1800
36     O36    -3.9951   -4.8082   -1.7967 O.3      1 ZINC000008674215   -0.5200
37     C37    -1.8125   -3.8837   -2.2516 C.3      1 ZINC000008674215    0.0200
38     H38    -1.1314   -3.6309   -3.0642 H        1 ZINC000008674215    0.0500
39     C39    -2.2319   -2.5962   -1.5383 C.3      1 ZINC000008674215   -0.1000
40     C40    -0.9979   -2.0128   -0.8566 C.3      1 ZINC000008674215   -0.0500
41     H41    -0.1780   -2.0324   -1.5746 H        1 ZINC000008674215    0.0700
42     H42     1.9003    0.5676   -1.0788 H        1 ZINC000008674215    0.0600
43     H43     1.1320   -0.9098   -1.7073 H        1 ZINC000008674215    0.0700
44     H44     0.4487    0.6857   -2.1020 H        1 ZINC000008674215    0.0100
45     H45    -0.6113    2.0052   -0.2120 H        1 ZINC000008674215    0.0200
46     H46    -0.6095    1.2656    1.4070 H        1 ZINC000008674215    0.0800
47     H47     0.9218    1.7897    0.6663 H        1 ZINC000008674215    0.0500
48     H48    -3.0471   -3.1873    3.4423 H        1 ZINC000008674215    0.4000
49     H49    -4.1122   -2.7740    5.5384 H        1 ZINC000008674215    0.0400
50     H50    -4.4522   -1.1141    4.9933 H        1 ZINC000008674215    0.0800
51     H51    -5.5108   -4.6084    3.6456 H        1 ZINC000008674215    0.0800
52     H52    -5.5440   -4.3467    5.4197 H        1 ZINC000008674215    0.0400
53     H53    -7.8798   -4.2171    3.4324 H        1 ZINC000008674215    0.0700
54     H54    -7.8006   -5.0822    5.0023 H        1 ZINC000008674215    0.0600
55     H55    -8.8747   -2.5193    4.7063 H        1 ZINC000008674215    0.0700
56     H56    -8.1656   -3.1251    6.2336 H        1 ZINC000008674215    0.0600
57     H57    -6.4294   -1.6472    6.0243 H        1 ZINC000008674215    0.0400
58     H58    -7.1571   -1.0166    4.5195 H        1 ZINC000008674215    0.0800
59     H59     0.9861   -3.0124    1.5815 H        1 ZINC000008674215    0.3600
60     H60    -0.6041   -9.2474   -2.0945 H        1 ZINC000008674215    0.3900
61     H61    -1.6096   -9.3164   -4.9190 H        1 ZINC000008674215    0.1200
62     H62    -3.3656   -7.9731   -5.9881 H        1 ZINC000008674215    0.1200
63     H63    -4.0190   -5.7968   -5.0426 H        1 ZINC000008674215    0.1200
64     H64    -4.5352   -4.2022   -4.3348 H        1 ZINC000008674215    0.0500
65     H65    -3.9574   -2.7479   -3.4866 H        1 ZINC000008674215    0.0700
66     H66    -2.9298   -3.5316   -4.7106 H        1 ZINC000008674215    0.0600
67     H67    -4.8019   -5.2499   -2.0952 H        1 ZINC000008674215    0.3600
68     H68    -2.6251   -1.8841   -2.2639 H        1 ZINC000008674215    0.0500
69     H69    -2.9930   -2.8200   -0.7908 H        1 ZINC000008674215    0.0800
@<TRIPOS>BOND
1     1     2     1
2     1     42    1
3     1     43    1
4     1     44    1
5     2     3     1
6     2     4     1
7     3     45    1
8     3     46    1
9     3     47    1
10    4     5     1
11    4     40    1
12    4     6     1
13    6     7     1
14    6     8     2
15    8     9     1
16    8     18    1
17    9     10    2
18    9     11    am
19    11    12    1
20    11    48    1
21    12    13    1
22    12    49    1
23    12    50    1
24    13    17    1
25    13    14    1
26    14    15    1
27    14    51    1
28    14    52    1
29    15    16    1
30    15    53    1
31    15    54    1
32    16    17    1
33    16    55    1
34    16    56    1
35    17    57    1
36    17    58    1
37    18    19    2
38    18    20    1
39    20    40    1
40    20    21    1
41    20    22    1
42    21    59    1
43    22    23    2
44    22    24    1
45    24    37    1
46    24    25    2
47    25    26    1
48    25    27    1
49    27    33    ar
50    27    28    ar
51    28    29    1
52    28    30    ar
53    29    60    1
54    30    31    ar
55    30    61    1
56    31    32    ar
57    31    62    1
58    32    33    ar
59    32    63    1
60    33    34    1
61    34    35    1
62    34    36    1
63    34    37    1
64    35    64    1
65    35    65    1
66    35    66    1
67    36    67    1
68    37    38    1
69    37    39    1
70    39    40    1
71    39    68    1
72    39    69    1
73    40    41    1
@<TRIPOS>SUBSTRUCTURE
1   ZINC000008674215 1     RESIDUE    1   A     ZIN   1
