@<TRIPOS>MOLECULE
ZINC000028242421
60    61    1     0     0
SMALL
USER_CHARGES
@<TRIPOS>ATOM
1      C1     -0.0187    1.5258    0.0104 C.3      1 ZINC000028242421   -0.1500
2      C2      0.0021   -0.0041    0.0020 C.3      1 ZINC000028242421   -0.1200
3      C3     -1.4333   -0.5336    0.0129 C.3      1 ZINC000028242421   -0.0700
4      C4     -1.4129   -2.0405    0.0046 C.ar     1 ZINC000028242421   -0.1600
5      C5     -1.4092   -2.7283   -1.2003 C.ar     1 ZINC000028242421    0.1800
6      O6     -1.4235   -2.0409   -2.3699 O.3      1 ZINC000028242421   -0.3000
7      C7     -1.4188   -2.8098   -3.5744 C.3      1 ZINC000028242421    0.0600
8      C8     -1.4367   -1.8684   -4.7804 C.3      1 ZINC000028242421   -0.1100
9      C9     -1.4316   -2.6916   -6.0700 C.3      1 ZINC000028242421   -0.6100
10     S10    -1.4527   -1.5756   -7.4999 S.o2     1 ZINC000028242421    2.5000
11     O11    -2.6992   -0.8986   -7.5856 O.2      1 ZINC000028242421   -0.9300
12     O12    -0.2255   -0.8659   -7.5968 O.2      1 ZINC000028242421   -0.9300
13     C13    -1.4448   -2.6500   -8.8964 C.ar     1 ZINC000028242421   -0.6500
14     C14    -0.2411   -3.0584   -9.4439 C.ar     1 ZINC000028242421   -0.0400
15     C15    -0.2265   -3.8987  -10.5370 C.ar     1 ZINC000028242421   -0.0900
16     C16    -1.4323   -4.3387  -11.0922 C.ar     1 ZINC000028242421   -0.1000
17     C17    -1.4257   -5.2361  -12.2586 C.2      1 ZINC000028242421    0.3800
18     O18    -0.3729   -5.5958  -12.7408 O.2      1 ZINC000028242421   -0.4400
19     C19    -2.7274   -5.7079  -12.8537 C.3      1 ZINC000028242421   -0.1400
20     C20    -2.4410   -6.6225  -14.0464 C.3      1 ZINC000028242421   -0.1700
21     C21    -3.7427   -7.0943  -14.6415 C.2      1 ZINC000028242421    0.4900
22     O22    -4.8012   -6.7325  -14.1567 O.co2    1 ZINC000028242421   -0.7000
23     O23    -3.7372   -7.8377  -15.6078 O.co2    1 ZINC000028242421   -0.7000
24     C24    -2.6445   -3.9219  -10.5329 C.ar     1 ZINC000028242421   -0.0900
25     C25    -2.6423   -3.0856   -9.4366 C.ar     1 ZINC000028242421   -0.0400
26     C26    -1.3904   -4.1209   -1.2153 C.ar     1 ZINC000028242421   -0.2300
27     C27    -1.3754   -4.8238   -0.0462 C.ar     1 ZINC000028242421   -0.0200
28     C28    -1.3793   -4.1460    1.1807 C.ar     1 ZINC000028242421   -0.2400
29     C29    -1.3637   -4.8985    2.4375 C.2      1 ZINC000028242421    0.3900
30     C30    -1.3434   -6.4051    2.4134 C.3      1 ZINC000028242421   -0.2000
31     O31    -1.3671   -4.3086    3.4979 O.2      1 ZINC000028242421   -0.4500
32     C32    -1.3920   -2.7397    1.1991 C.ar     1 ZINC000028242421    0.2100
33     O33    -1.3959   -2.0729    2.3799 O.3      1 ZINC000028242421   -0.4700
34     H34     1.0039    1.9031    0.0027 H        1 ZINC000028242421    0.0500
35     H35    -0.5459    1.8868   -0.8726 H        1 ZINC000028242421    0.0600
36     H36    -0.5289    1.8773    0.9072 H        1 ZINC000028242421    0.0500
37     H37     0.5123   -0.3556   -0.8948 H        1 ZINC000028242421    0.0600
38     H38     0.5293   -0.3651    0.8851 H        1 ZINC000028242421    0.0600
39     H39    -1.9435   -0.1821    0.9097 H        1 ZINC000028242421    0.0800
40     H40    -1.9605   -0.1726   -0.8702 H        1 ZINC000028242421    0.0800
41     H41    -0.5207   -3.4266   -3.6082 H        1 ZINC000028242421    0.0700
42     H42    -2.3005   -3.4501   -3.6002 H        1 ZINC000028242421    0.0700
43     H43    -2.3347   -1.2516   -4.7466 H        1 ZINC000028242421    0.1000
44     H44    -0.5549   -1.2281   -4.7546 H        1 ZINC000028242421    0.1000
45     H45    -0.5335   -3.3084   -6.1038 H        1 ZINC000028242421    0.1400
46     H46    -2.3133   -3.3320   -6.0958 H        1 ZINC000028242421    0.1400
47     H47     0.6893   -2.7177   -9.0140 H        1 ZINC000028242421    0.1500
48     H48     0.7136   -4.2159  -10.9636 H        1 ZINC000028242421    0.1400
49     H49    -3.2926   -6.2581  -12.1014 H        1 ZINC000028242421    0.1000
50     H50    -3.3076   -4.8474  -13.1868 H        1 ZINC000028242421    0.1000
51     H51    -1.8758   -6.0723  -14.7987 H        1 ZINC000028242421    0.0600
52     H52    -1.8608   -7.4830  -13.7133 H        1 ZINC000028242421    0.0600
53     H53    -3.5798   -4.2572  -10.9563 H        1 ZINC000028242421    0.1500
54     H54    -3.5776   -2.7631   -9.0033 H        1 ZINC000028242421    0.1500
55     H55    -1.3880   -4.6474   -2.1582 H        1 ZINC000028242421    0.1400
56     H56    -1.3608   -5.9035   -0.0660 H        1 ZINC000028242421    0.1400
57     H57    -0.3110   -6.7545    2.4032 H        1 ZINC000028242421    0.1000
58     H58    -1.8483   -6.7895    3.2997 H        1 ZINC000028242421    0.0900
59     H59    -1.8563   -6.7612    1.5200 H        1 ZINC000028242421    0.0800
60     H60    -0.5137   -1.8715    2.7207 H        1 ZINC000028242421    0.4000
@<TRIPOS>BOND
1     1     2     1
2     1     34    1
3     1     35    1
4     1     36    1
5     2     3     1
6     2     37    1
7     2     38    1
8     3     4     1
9     3     39    1
10    3     40    1
11    4     32    ar
12    4     5     ar
13    5     6     1
14    5     26    ar
15    6     7     1
16    7     8     1
17    7     41    1
18    7     42    1
19    8     9     1
20    8     43    1
21    8     44    1
22    9     10    1
23    9     45    1
24    9     46    1
25    10    11    2
26    10    12    2
27    10    13    1
28    13    25    ar
29    13    14    ar
30    14    15    ar
31    14    47    1
32    15    16    ar
33    15    48    1
34    16    17    1
35    16    24    ar
36    17    18    2
37    17    19    1
38    19    20    1
39    19    49    1
40    19    50    1
41    20    21    1
42    20    51    1
43    20    52    1
44    21    22    ar
45    21    23    ar
46    24    25    ar
47    24    53    1
48    25    54    1
49    26    27    ar
50    26    55    1
51    27    28    ar
52    27    56    1
53    28    29    1
54    28    32    ar
55    29    30    1
56    29    31    2
57    30    57    1
58    30    58    1
59    30    59    1
60    32    33    1
61    33    60    1
@<TRIPOS>SUBSTRUCTURE
1   ZINC000028242421 1     RESIDUE    1   A     ZIN   1
