@<TRIPOS>MOLECULE
ZINC000003973276
90    95    1     0     0
SMALL
USER_CHARGES
@<TRIPOS>ATOM
1      C1      0.8876   -1.4594    2.5929 C.3      1 ZINC000003973276    0.0300
2      O2      0.6195   -1.6550    1.2030 O.3      1 ZINC000003973276   -0.3900
3      C3      0.1081   -0.4965    0.5410 C.3      1 ZINC000003973276    0.0200
4      C4     -0.1408   -0.8199   -0.9336 C.3      1 ZINC000003973276    0.0600
5      N5     -1.3491   -1.6462   -1.0565 N.3      1 ZINC000003973276   -0.5400
6      C6     -2.4840   -1.0255   -0.3614 C.3      1 ZINC000003973276    0.0500
7      C7     -3.7541   -1.8354   -0.6317 C.3      1 ZINC000003973276   -0.1400
8      C8     -3.5528   -3.2710   -0.1387 C.3      1 ZINC000003973276    0.1400
9      N9     -4.7439   -4.0662   -0.4473 N.am     1 ZINC000003973276   -0.6000
10     C10    -5.6660   -4.4504    0.6243 C.3      1 ZINC000003973276    0.1500
11     C11    -6.7242   -3.3890    0.7811 C.ar     1 ZINC000003973276   -0.1000
12     C12    -6.5155   -2.3305    1.6468 C.ar     1 ZINC000003973276   -0.1000
13     C13    -7.4813   -1.3556    1.7943 C.ar     1 ZINC000003973276   -0.1100
14     C14    -8.6682   -1.4390    1.0692 C.ar     1 ZINC000003973276   -0.0500
15     C15    -9.7099   -0.3936    1.2232 C.ar     1 ZINC000003973276   -0.0100
16     C16    -9.5024    0.6781    2.0892 C.ar     1 ZINC000003973276   -0.1100
17     C17   -10.4748    1.6476    2.2287 C.ar     1 ZINC000003973276   -0.0700
18     C18   -11.6536    1.5568    1.5107 C.ar     1 ZINC000003973276   -0.1800
19     C19   -12.7114    2.6188    1.6668 C.3      1 ZINC000003973276    0.5100
20     F20   -12.4926    3.6359    0.7315 F        1 ZINC000003973276   -0.1800
21     F21   -13.9738    2.0542    1.4550 F        1 ZINC000003973276   -0.1800
22     F22   -12.6498    3.1520    2.9587 F        1 ZINC000003973276   -0.1800
23     C23   -11.8648    0.4951    0.6495 C.ar     1 ZINC000003973276   -0.0600
24     C24   -10.8968   -0.4770    0.4981 C.ar     1 ZINC000003973276   -0.1100
25     C25    -8.8731   -2.5074    0.1985 C.ar     1 ZINC000003973276   -0.1000
26     C26    -7.8981   -3.4737    0.0546 C.ar     1 ZINC000003973276   -0.0900
27     C27    -4.9913   -4.4442   -1.7170 C.2      1 ZINC000003973276    0.5000
28     O28    -5.9269   -5.1766   -1.9603 O.2      1 ZINC000003973276   -0.5000
29     C29    -4.1055   -3.9569   -2.8346 C.3      1 ZINC000003973276    0.0500
30     N30    -4.8282   -4.0480   -4.1057 N.pl3    1 ZINC000003973276   -0.4700
31     C31    -4.7885   -5.2118   -4.8123 C.2      1 ZINC000003973276    0.2100
32     S32    -3.8674   -6.5697   -4.1704 S.3      1 ZINC000003973276   -0.0400
33     C33    -4.0398   -7.7415   -5.5390 C.3      1 ZINC000003973276   -0.0800
34     C34    -3.3861   -9.0475   -5.1676 C.ar     1 ZINC000003973276   -0.0900
35     C35    -2.0286   -9.2206   -5.3615 C.ar     1 ZINC000003973276   -0.0800
36     C36    -1.4273  -10.4181   -5.0213 C.ar     1 ZINC000003973276   -0.1000
37     C37    -2.1824  -11.4449   -4.4865 C.ar     1 ZINC000003973276   -0.1100
38     C38    -3.5420  -11.2748   -4.2911 C.ar     1 ZINC000003973276    0.0700
39     F39    -4.2808  -12.2779   -3.7684 F        1 ZINC000003973276   -0.1200
40     C40    -4.1440  -10.0718   -4.6270 C.ar     1 ZINC000003973276    0.0900
41     F41    -5.4710   -9.9034   -4.4371 F        1 ZINC000003973276   -0.1200
42     C42    -5.4462   -5.3595   -6.0122 C.2      1 ZINC000003973276   -0.3400
43     C43    -6.1862   -4.2914   -6.5420 C.2      1 ZINC000003973276    0.4300
44     O44    -6.7772   -4.4028   -7.6052 O.2      1 ZINC000003973276   -0.5000
45     C45    -6.2303   -3.0301   -5.7779 C.ar     1 ZINC000003973276   -0.1900
46     C46    -6.9461   -1.9281   -6.2438 C.ar     1 ZINC000003973276   -0.0300
47     C47    -6.9656   -0.7662   -5.5037 C.ar     1 ZINC000003973276   -0.1600
48     C48    -6.2779   -0.6889   -4.3015 C.ar     1 ZINC000003973276   -0.0500
49     C49    -5.5657   -1.7702   -3.8289 C.ar     1 ZINC000003973276   -0.1800
50     C50    -5.5388   -2.9544   -4.5578 C.ar     1 ZINC000003973276    0.2000
51     C51    -2.3359   -3.8780   -0.8423 C.3      1 ZINC000003973276   -0.1700
52     C52    -1.1069   -3.0089   -0.5660 C.3      1 ZINC000003973276    0.0600
53     H53     1.6274   -0.6679    2.7124 H        1 ZINC000003973276    0.0400
54     H54    -0.0327   -1.1769    3.1042 H        1 ZINC000003973276    0.0400
55     H55     1.2725   -2.3843    3.0224 H        1 ZINC000003973276    0.0900
56     H56    -0.8283   -0.1939    1.0097 H        1 ZINC000003973276    0.0600
57     H57     0.8317    0.3150    0.6179 H        1 ZINC000003973276    0.0500
58     H58    -0.2762    0.1070   -1.4910 H        1 ZINC000003973276    0.0900
59     H59     0.7139   -1.3640   -1.3355 H        1 ZINC000003973276    0.0900
60     H60    -2.2869   -1.0061    0.7104 H        1 ZINC000003973276    0.0400
61     H61    -2.6189   -0.0066   -0.7243 H        1 ZINC000003973276    0.0800
62     H62    -4.5933   -1.3833   -0.1030 H        1 ZINC000003973276    0.0800
63     H63    -3.9596   -1.8436   -1.7021 H        1 ZINC000003973276    0.0800
64     H64    -3.3871   -3.2662    0.9386 H        1 ZINC000003973276    0.1000
65     H65    -6.1384   -5.4003    0.3740 H        1 ZINC000003973276    0.1000
66     H66    -5.1142   -4.5542    1.5586 H        1 ZINC000003973276    0.0900
67     H67    -5.5953   -2.2671    2.2087 H        1 ZINC000003973276    0.1200
68     H68    -7.3175   -0.5298    2.4708 H        1 ZINC000003973276    0.1300
69     H69    -8.5826    0.7497    2.6506 H        1 ZINC000003973276    0.1400
70     H70   -10.3152    2.4785    2.8999 H        1 ZINC000003973276    0.1400
71     H71   -12.7871    0.4290    0.0916 H        1 ZINC000003973276    0.1400
72     H72   -11.0628   -1.3055   -0.1745 H        1 ZINC000003973276    0.1400
73     H73    -9.7913   -2.5771   -0.3657 H        1 ZINC000003973276    0.1300
74     H74    -8.0557   -4.3021   -0.6203 H        1 ZINC000003973276    0.1300
75     H75    -3.8247   -2.9200   -2.6498 H        1 ZINC000003973276    0.1400
76     H76    -3.2079   -4.5734   -2.8819 H        1 ZINC000003973276    0.1400
77     H77    -5.0974   -7.9095   -5.7424 H        1 ZINC000003973276    0.1200
78     H78    -3.5590   -7.3346   -6.4286 H        1 ZINC000003973276    0.1200
79     H79    -1.4370   -8.4195   -5.7796 H        1 ZINC000003973276    0.1500
80     H80    -0.3665  -10.5516   -5.1739 H        1 ZINC000003973276    0.1500
81     H81    -1.7116  -12.3800   -4.2215 H        1 ZINC000003973276    0.1500
82     H82    -5.3926   -6.2969   -6.5458 H        1 ZINC000003973276    0.1500
83     H83    -7.4819   -1.9849   -7.1798 H        1 ZINC000003973276    0.1400
84     H84    -7.5190    0.0893   -5.8618 H        1 ZINC000003973276    0.1300
85     H85    -6.3004    0.2276   -3.7306 H        1 ZINC000003973276    0.1300
86     H86    -5.0334   -1.6995   -2.8918 H        1 ZINC000003973276    0.1300
87     H87    -2.1617   -4.8853   -0.4641 H        1 ZINC000003973276    0.0800
88     H88    -2.5190   -3.9184   -1.9160 H        1 ZINC000003973276    0.0900
89     H89    -0.2415   -3.4305   -1.0773 H        1 ZINC000003973276    0.0800
90     H90    -0.9162   -2.9802    0.5069 H        1 ZINC000003973276    0.0600
@<TRIPOS>BOND
1     1     2     1
2     1     53    1
3     1     54    1
4     1     55    1
5     2     3     1
6     3     4     1
7     3     56    1
8     3     57    1
9     4     5     1
10    4     58    1
11    4     59    1
12    5     52    1
13    5     6     1
14    6     7     1
15    6     60    1
16    6     61    1
17    7     8     1
18    7     62    1
19    7     63    1
20    8     9     1
21    8     51    1
22    8     64    1
23    9     10    1
24    9     27    am
25    10    11    1
26    10    65    1
27    10    66    1
28    11    26    ar
29    11    12    ar
30    12    13    ar
31    12    67    1
32    13    14    ar
33    13    68    1
34    14    15    1
35    14    25    ar
36    15    24    ar
37    15    16    ar
38    16    17    ar
39    16    69    1
40    17    18    ar
41    17    70    1
42    18    19    1
43    18    23    ar
44    19    20    1
45    19    21    1
46    19    22    1
47    23    24    ar
48    23    71    1
49    24    72    1
50    25    26    ar
51    25    73    1
52    26    74    1
53    27    28    2
54    27    29    1
55    29    30    1
56    29    75    1
57    29    76    1
58    30    50    1
59    30    31    1
60    31    32    1
61    31    42    2
62    32    33    1
63    33    34    1
64    33    77    1
65    33    78    1
66    34    40    ar
67    34    35    ar
68    35    36    ar
69    35    79    1
70    36    37    ar
71    36    80    1
72    37    38    ar
73    37    81    1
74    38    39    1
75    38    40    ar
76    40    41    1
77    42    43    1
78    42    82    1
79    43    44    2
80    43    45    1
81    45    50    ar
82    45    46    ar
83    46    47    ar
84    46    83    1
85    47    48    ar
86    47    84    1
87    48    49    ar
88    48    85    1
89    49    50    ar
90    49    86    1
91    51    52    1
92    51    87    1
93    51    88    1
94    52    89    1
95    52    90    1
@<TRIPOS>SUBSTRUCTURE
1   ZINC000003973276 1     RESIDUE    1   A     ZIN   1
