@<TRIPOS>MOLECULE
ZINC000014952198
88    93    1     0     0
SMALL
USER_CHARGES
@<TRIPOS>ATOM
1      C1      0.5365    0.8477   -0.2513 C.3      1 ZINC000014952198   -0.1500
2      C2      0.3372   -0.6040   -0.6915 C.3      1 ZINC000014952198    0.0800
3      C3      1.2395   -1.5177    0.1405 C.3      1 ZINC000014952198   -0.1800
4      O4     -1.0283   -0.9776   -0.4969 O.3      1 ZINC000014952198   -0.3100
5      C5     -1.5088   -1.9851   -1.2721 C.ar     1 ZINC000014952198    0.1400
6      C6     -0.6531   -2.6868   -2.1084 C.ar     1 ZINC000014952198   -0.2100
7      C7     -1.1440   -3.7110   -2.8952 C.ar     1 ZINC000014952198   -0.0700
8      C8     -2.4868   -4.0364   -2.8497 C.ar     1 ZINC000014952198   -0.1400
9      C9     -3.3420   -3.3380   -2.0171 C.ar     1 ZINC000014952198   -0.0300
10     C10    -4.8054   -3.6950   -1.9704 C.3      1 ZINC000014952198   -0.1000
11     C11    -5.0336   -4.7415   -0.9103 C.2      1 ZINC000014952198    0.5200
12     O12    -4.0999   -5.1565   -0.2570 O.2      1 ZINC000014952198   -0.5300
13     N13    -6.2753   -5.2161   -0.6882 N.am     1 ZINC000014952198   -0.6100
14     C14    -7.4155   -4.7275   -1.4756 C.3      1 ZINC000014952198    0.1000
15     C15    -8.5060   -4.2422   -0.5155 C.3      1 ZINC000014952198   -0.1400
16     C16    -8.8540   -5.3651    0.4644 C.3      1 ZINC000014952198   -0.1100
17     C17    -7.6151   -5.7301    1.2854 C.3      1 ZINC000014952198   -0.0200
18     C18    -7.1190   -4.4940    2.0383 C.3      1 ZINC000014952198   -0.1400
19     C19    -5.8307   -4.8370    2.7889 C.3      1 ZINC000014952198   -0.0400
20     N20    -5.3759   -3.6616    3.5436 N.4      1 ZINC000014952198   -0.2500
21     C21    -6.4265   -3.2850    4.4923 C.3      1 ZINC000014952198   -0.0100
22     C22    -5.9921   -2.0567    5.2950 C.3      1 ZINC000014952198   -0.1300
23     C23    -4.5924   -1.6322    4.8314 C.3      1 ZINC000014952198   -0.0200
24     C24    -4.1364   -0.4151    5.5942 C.ar     1 ZINC000014952198   -0.0900
25     C25    -4.9554    0.1437    6.5575 C.ar     1 ZINC000014952198   -0.1200
26     C26    -4.5371    1.2601    7.2572 C.ar     1 ZINC000014952198   -0.1100
27     C27    -3.2998    1.8174    6.9940 C.ar     1 ZINC000014952198   -0.1100
28     C28    -2.4805    1.2580    6.0314 C.ar     1 ZINC000014952198   -0.1100
29     C29    -2.8969    0.1390    5.3346 C.ar     1 ZINC000014952198   -0.1100
30     C30    -3.6281   -2.8015    5.0704 C.3      1 ZINC000014952198   -0.1200
31     C31    -4.1434   -4.0143    4.2523 C.3      1 ZINC000014952198   -0.0100
32     C32    -4.6528   -1.3262    3.3290 C.3      1 ZINC000014952198   -0.1300
33     C33    -5.1326   -2.5695    2.5982 C.3      1 ZINC000014952198   -0.0100
34     C34    -7.9671   -6.8129    2.2728 C.ar     1 ZINC000014952198   -0.0700
35     C35    -7.9751   -6.5366    3.6271 C.ar     1 ZINC000014952198   -0.1200
36     C36    -8.2979   -7.5290    4.5339 C.ar     1 ZINC000014952198   -0.0900
37     C37    -8.6129   -8.7990    4.0861 C.ar     1 ZINC000014952198   -0.0300
38     Cl38   -9.0188  -10.0454    5.2243 Cl       1 ZINC000014952198   -0.0300
39     C39    -8.6049   -9.0758    2.7292 C.ar     1 ZINC000014952198   -0.0200
40     Cl40   -9.0002  -10.6694    2.1655 Cl       1 ZINC000014952198   -0.0300
41     C41    -8.2873   -8.0804    1.8231 C.ar     1 ZINC000014952198   -0.0900
42     C42    -6.5136   -6.2364    0.3419 C.3      1 ZINC000014952198    0.1100
43     C43    -2.8551   -2.3174   -1.2240 C.ar     1 ZINC000014952198   -0.1400
44     H44     1.5781    1.1326   -0.3997 H        1 ZINC000014952198    0.0800
45     H45    -0.1062    1.4986   -0.8440 H        1 ZINC000014952198    0.0700
46     H46     0.2797    0.9460    0.8035 H        1 ZINC000014952198    0.0700
47     H47     0.5941   -0.7024   -1.7462 H        1 ZINC000014952198    0.0800
48     H48     0.9826   -1.4193    1.1952 H        1 ZINC000014952198    0.0700
49     H49     1.0975   -2.5519   -0.1732 H        1 ZINC000014952198    0.0600
50     H50     2.2810   -1.2327   -0.0080 H        1 ZINC000014952198    0.0800
51     H51     0.3959   -2.4326   -2.1448 H        1 ZINC000014952198    0.1300
52     H52    -0.4781   -4.2577   -3.5465 H        1 ZINC000014952198    0.1300
53     H53    -2.8687   -4.8370   -3.4658 H        1 ZINC000014952198    0.1200
54     H54    -5.3891   -2.8052   -1.7343 H        1 ZINC000014952198    0.1100
55     H55    -5.1151   -4.0860   -2.9396 H        1 ZINC000014952198    0.1100
56     H56    -7.0940   -3.9021   -2.1107 H        1 ZINC000014952198    0.0900
57     H57    -7.8060   -5.5361   -2.0936 H        1 ZINC000014952198    0.0800
58     H58    -8.1442   -3.3756    0.0379 H        1 ZINC000014952198    0.0700
59     H59    -9.3946   -3.9667   -1.0835 H        1 ZINC000014952198    0.0900
60     H60    -9.6472   -5.0307    1.1331 H        1 ZINC000014952198    0.0800
61     H61    -9.1923   -6.2399   -0.0910 H        1 ZINC000014952198    0.0800
62     H62    -6.9230   -3.6905    1.3284 H        1 ZINC000014952198    0.1000
63     H63    -7.8795   -4.1726    2.7500 H        1 ZINC000014952198    0.1000
64     H64    -6.0197   -5.6603    3.4778 H        1 ZINC000014952198    0.1400
65     H65    -5.0612   -5.1303    2.0748 H        1 ZINC000014952198    0.1400
66     H66    -7.3414   -3.0551    3.9462 H        1 ZINC000014952198    0.1300
67     H67    -6.6129   -4.1150    5.1738 H        1 ZINC000014952198    0.1300
68     H68    -6.6958   -1.2418    5.1254 H        1 ZINC000014952198    0.1000
69     H69    -5.9659   -2.3044    6.3562 H        1 ZINC000014952198    0.1000
70     H70    -5.9221   -0.2916    6.7632 H        1 ZINC000014952198    0.1300
71     H71    -5.1773    1.6972    8.0093 H        1 ZINC000014952198    0.1300
72     H72    -2.9733    2.6900    7.5402 H        1 ZINC000014952198    0.1300
73     H73    -1.5139    1.6936    5.8255 H        1 ZINC000014952198    0.1300
74     H74    -2.2568   -0.2980    4.5826 H        1 ZINC000014952198    0.1200
75     H75    -2.6314   -2.5299    4.7227 H        1 ZINC000014952198    0.1000
76     H76    -3.5947   -3.0357    6.1344 H        1 ZINC000014952198    0.1000
77     H77    -4.3566   -4.8423    4.9284 H        1 ZINC000014952198    0.1300
78     H78    -3.3786   -4.3202    3.5384 H        1 ZINC000014952198    0.1300
79     H79    -5.3507   -0.5082    3.1506 H        1 ZINC000014952198    0.1000
80     H80    -3.6611   -1.0472    2.9729 H        1 ZINC000014952198    0.1000
81     H81    -4.3714   -2.8863    1.8852 H        1 ZINC000014952198    0.1300
82     H82    -6.0544   -2.3413    2.0630 H        1 ZINC000014952198    0.1300
83     H83    -7.7288   -5.5451    3.9771 H        1 ZINC000014952198    0.1300
84     H84    -8.3036   -7.3125    5.5920 H        1 ZINC000014952198    0.1500
85     H85    -8.2812   -8.2954    0.7648 H        1 ZINC000014952198    0.1500
86     H86    -6.8326   -7.1679   -0.1258 H        1 ZINC000014952198    0.0800
87     H87    -5.5969   -6.4042    0.9072 H        1 ZINC000014952198    0.1000
88     H88    -3.5233   -1.7725   -0.5737 H        1 ZINC000014952198    0.1200
@<TRIPOS>BOND
1     1     2     1
2     1     44    1
3     1     45    1
4     1     46    1
5     2     3     1
6     2     4     1
7     2     47    1
8     3     48    1
9     3     49    1
10    3     50    1
11    4     5     1
12    5     43    ar
13    5     6     ar
14    6     7     ar
15    6     51    1
16    7     8     ar
17    7     52    1
18    8     9     ar
19    8     53    1
20    9     10    1
21    9     43    ar
22    10    11    1
23    10    54    1
24    10    55    1
25    11    12    2
26    11    13    am
27    13    42    1
28    13    14    1
29    14    15    1
30    14    56    1
31    14    57    1
32    15    16    1
33    15    58    1
34    15    59    1
35    16    17    1
36    16    60    1
37    16    61    1
38    17    18    1
39    17    34    1
40    17    42    1
41    18    19    1
42    18    62    1
43    18    63    1
44    19    20    1
45    19    64    1
46    19    65    1
47    20    31    1
48    20    33    1
49    20    21    1
50    21    22    1
51    21    66    1
52    21    67    1
53    22    23    1
54    22    68    1
55    22    69    1
56    23    24    1
57    23    30    1
58    23    32    1
59    24    29    ar
60    24    25    ar
61    25    26    ar
62    25    70    1
63    26    27    ar
64    26    71    1
65    27    28    ar
66    27    72    1
67    28    29    ar
68    28    73    1
69    29    74    1
70    30    31    1
71    30    75    1
72    30    76    1
73    31    77    1
74    31    78    1
75    32    33    1
76    32    79    1
77    32    80    1
78    33    81    1
79    33    82    1
80    34    41    ar
81    34    35    ar
82    35    36    ar
83    35    83    1
84    36    37    ar
85    36    84    1
86    37    38    1
87    37    39    ar
88    39    40    1
89    39    41    ar
90    41    85    1
91    42    86    1
92    42    87    1
93    43    88    1
@<TRIPOS>SUBSTRUCTURE
1   ZINC000014952198 1     RESIDUE    1   A     ZIN   1
