@<TRIPOS>MOLECULE
ZINC000000603064
  30   32    0    0    0
SMALL
USER_CHARGES
NO_NAME
@<TRIPOS>ATOM
    1 N1        0.0520    -1.1349    -0.1338 N.1    1 <0>      -0.4600
    2 C2        0.0280     0.0001    -0.0920 C.1    1 <0>       0.2800
    3 C3       -0.0021     1.4308    -0.0393 C.ar   1 <0>      -0.0200
    4 C4       -1.0557     2.1302    -0.6106 C.ar   1 <0>      -0.0500
    5 C5       -1.1092     3.5146    -0.5730 C.ar   1 <0>      -0.1800
    6 C6       -0.1198     4.2611     0.0329 C.ar   1 <0>       0.2400
    7 N7       -0.2058     5.6488     0.0525 N.am   1 <0>      -0.6600
    8 C8       -1.4080     6.2508    -0.0403 C.2    1 <0>       0.7000
    9 O9       -2.4241     5.5832    -0.0373 O.2    1 <0>      -0.5500
   10 N10      -1.4839     7.5930    -0.1363 N.am   1 <0>      -0.6800
   11 C11      -2.7318     8.2268    -0.1147 C.ar   1 <0>       0.2100
   12 C12      -3.8145     7.6104     0.4976 C.ar   1 <0>      -0.1300
   13 C13      -5.0447     8.2387     0.5177 C.ar   1 <0>      -0.0800
   14 C14      -5.1989     9.4798    -0.0715 C.ar   1 <0>      -0.1400
   15 C15      -4.1226    10.0971    -0.6825 C.ar   1 <0>      -0.0700
   16 C16      -2.8881     9.4769    -0.7012 C.ar   1 <0>      -0.1300
   17 Br17     -1.4167    10.3217    -1.5362 Br     1 <0>      -0.0500
   18 C18       1.0151     3.5902     0.6523 C.ar   1 <0>      -0.0600
   19 N19       2.1038     3.9756     1.2967 N.2    1 <0>      -0.3500
   20 N20       2.7762     2.9287     1.6312 N.pl3  1 <0>      -0.1300
   21 N21       2.1939     1.8469     1.2433 N.2    1 <0>      -0.3600
   22 C22       1.0744     2.1677     0.6227 C.ar   1 <0>       0.0100
   23 H23      -1.8512     1.5838    -1.0955 H      1 <0>       0.1200
   24 H24      -1.9462     4.0217    -1.0297 H      1 <0>       0.1500
   25 H25       0.5995     6.1835     0.1329 H      1 <0>       0.4100
   26 H26      -0.6738     8.1198    -0.2204 H      1 <0>       0.4100
   27 H27      -3.6952     6.6406     0.9575 H      1 <0>       0.1600
   28 H28      -5.8873     7.7594     0.9939 H      1 <0>       0.1300
   29 H29      -6.1620     9.9683    -0.0549 H      1 <0>       0.1300
   30 H30      -4.2463    11.0666    -1.1422 H      1 <0>       0.1300
@<TRIPOS>BOND
   1    1    2 3
   2    2    3 1
   3    3   22 ar
   4    3    4 ar
   5    4    5 ar
   6    4   23 1
   7    5    6 ar
   8    5   24 1
   9    6    7 1
  10    6   18 ar
  11    7    8 am
  12    7   25 1
  13    8    9 2
  14    8   10 am
  15   10   11 1
  16   10   26 1
  17   11   16 ar
  18   11   12 ar
  19   12   13 ar
  20   12   27 1
  21   13   14 ar
  22   13   28 1
  23   14   15 ar
  24   14   29 1
  25   15   16 ar
  26   15   30 1
  27   16   17 1
  28   18   22 ar
  29   18   19 2
  30   19   20 1
  31   20   21 1
  32   21   22 2
