@<TRIPOS>MOLECULE
ZINC000003975718
77    78    1     0     0
SMALL
USER_CHARGES
@<TRIPOS>ATOM
1      C1     -0.4621    1.4732   -0.9196 C.3      1 ZINC000003975718    0.0200
2      O2     -0.1974    0.1432   -0.4692 O.3      1 ZINC000003975718   -0.3500
3      C3     -1.3600   -0.5661   -0.0363 C.3      1 ZINC000003975718    0.0500
4      H4     -2.2508   -0.0827   -0.4374 H        1 ZINC000003975718    0.1000
5      C5     -1.2941   -1.9881   -0.5310 C.2      1 ZINC000003975718    0.5100
6      O6     -0.3050   -2.3831   -1.1110 O.2      1 ZINC000003975718   -0.5000
7      N7     -2.3344   -2.8208   -0.3289 N.am     1 ZINC000003975718   -0.7100
8      C8     -2.2704   -4.2031   -0.8098 C.3      1 ZINC000003975718    0.1300
9      H9     -1.2876   -4.6213   -0.5923 H        1 ZINC000003975718    0.1300
10     C10    -3.3497   -5.0389   -0.1175 C.3      1 ZINC000003975718   -0.1200
11     C11    -4.5973   -4.2097    0.1273 C.3      1 ZINC000003975718   -0.1200
12     C12    -5.3163   -3.7946   -1.1433 C.3      1 ZINC000003975718    0.0700
13     H13    -5.5152   -4.6794   -1.7479 H        1 ZINC000003975718    0.1000
14     O14    -6.5758   -3.1620   -0.7942 O.3      1 ZINC000003975718   -0.3500
15     C15    -7.5837   -3.2856   -1.6721 C.2      1 ZINC000003975718    0.4600
16     O16    -7.4190   -3.9019   -2.6982 O.2      1 ZINC000003975718   -0.5000
17     C17    -8.9207   -2.6557   -1.3778 C.3      1 ZINC000003975718   -0.0800
18     C18    -8.7489   -1.1433   -1.2228 C.3      1 ZINC000003975718   -0.1100
19     C19   -10.1063   -0.5038   -0.9241 C.3      1 ZINC000003975718   -0.1200
20     C20   -11.0706   -0.7920   -2.0765 C.3      1 ZINC000003975718   -0.1300
21     C21   -11.2424   -2.3044   -2.2314 C.3      1 ZINC000003975718   -0.1200
22     C22    -9.8850   -2.9440   -2.5302 C.3      1 ZINC000003975718   -0.1100
23     C23    -4.4685   -2.8119   -1.9533 C.3      1 ZINC000003975718    0.0900
24     N24    -3.5605   -3.5782   -2.8222 N.am     1 ZINC000003975718   -0.7200
25     C25    -2.5173   -4.2341   -2.3034 C.2      1 ZINC000003975718    0.5100
26     O26    -1.7734   -4.8578   -3.0303 O.2      1 ZINC000003975718   -0.5200
27     C27    -1.4212   -0.5603    1.4925 C.3      1 ZINC000003975718    0.0700
28     H28    -0.5031   -0.9888    1.8945 H        1 ZINC000003975718    0.1200
29     O29    -2.5394   -1.3365    1.9274 O.3      1 ZINC000003975718   -0.5200
30     C30    -1.5739    0.8780    1.9913 C.3      1 ZINC000003975718    0.0500
31     H31    -0.7206    1.4700    1.6601 H        1 ZINC000003975718    0.1200
32     O32    -2.7771    1.4400    1.4636 O.3      1 ZINC000003975718   -0.5500
33     C33    -1.6359    0.8837    3.5200 C.3      1 ZINC000003975718    0.1100
34     H34    -0.6842    0.5381    3.9236 H        1 ZINC000003975718    0.1200
35     O35    -2.6826    0.0148    3.9575 O.3      1 ZINC000003975718   -0.5300
36     C36    -1.9090    2.2837    4.0065 C.2      1 ZINC000003975718   -0.2000
37     C37    -2.9278    2.5154    4.7968 C.2      1 ZINC000003975718   -0.1300
38     C38    -3.2009    3.9154    5.2832 C.3      1 ZINC000003975718   -0.0400
39     C39    -2.1489    4.8682    4.7118 C.3      1 ZINC000003975718   -0.1500
40     C40    -4.5916    4.3540    4.8200 C.3      1 ZINC000003975718   -0.1400
41     C41    -3.1395    3.9453    6.8117 C.3      1 ZINC000003975718   -0.1400
42     H42     0.4793    1.9761   -1.1407 H        1 ZINC000003975718    0.0900
43     H43    -1.0747    1.4366   -1.8205 H        1 ZINC000003975718    0.0400
44     H44    -0.9929    2.0215   -0.1413 H        1 ZINC000003975718    0.0600
45     H45    -3.1255   -2.5048    0.1351 H        1 ZINC000003975718    0.4000
46     H46    -3.6032   -5.8911   -0.7481 H        1 ZINC000003975718    0.0900
47     H47    -2.9665   -5.4009    0.8365 H        1 ZINC000003975718    0.1000
48     H48    -5.2852   -4.7894    0.7428 H        1 ZINC000003975718    0.0900
49     H49    -4.3158   -3.3116    0.6771 H        1 ZINC000003975718    0.0800
50     H50    -9.3232   -3.0722   -0.4544 H        1 ZINC000003975718    0.1100
51     H51    -8.0619   -0.9379   -0.4019 H        1 ZINC000003975718    0.0800
52     H52    -8.3464   -0.7268   -2.1462 H        1 ZINC000003975718    0.0700
53     H53   -10.5089   -0.9202   -0.0007 H        1 ZINC000003975718    0.0700
54     H54    -9.9839    0.5737   -0.8137 H        1 ZINC000003975718    0.0700
55     H55   -12.0377   -0.3364   -1.8636 H        1 ZINC000003975718    0.0700
56     H56   -10.6681   -0.3756   -2.9998 H        1 ZINC000003975718    0.0600
57     H57   -11.6450   -2.7209   -1.3080 H        1 ZINC000003975718    0.0700
58     H58   -11.9294   -2.5098   -3.0524 H        1 ZINC000003975718    0.0700
59     H59    -9.4825   -2.5275   -3.4536 H        1 ZINC000003975718    0.0700
60     H60   -10.0074   -4.0215   -2.6406 H        1 ZINC000003975718    0.0700
61     H61    -5.1184   -2.1860   -2.5649 H        1 ZINC000003975718    0.0900
62     H62    -3.8862   -2.1869   -1.2764 H        1 ZINC000003975718    0.0900
63     H63    -3.7183   -3.6060   -3.7789 H        1 ZINC000003975718    0.4100
64     H64    -3.3920   -1.0122    1.6064 H        1 ZINC000003975718    0.3600
65     H65    -3.5788    0.9630    1.7184 H        1 ZINC000003975718    0.3700
66     H66    -3.5600    0.2627    3.6354 H        1 ZINC000003975718    0.3600
67     H67    -1.2649    3.0959    3.7035 H        1 ZINC000003975718    0.1200
68     H68    -3.5719    1.7032    5.0997 H        1 ZINC000003975718    0.1200
69     H69    -2.1927    4.8468    3.6228 H        1 ZINC000003975718    0.0600
70     H70    -2.3465    5.8807    5.0636 H        1 ZINC000003975718    0.0600
71     H71    -1.1582    4.5557    5.0417 H        1 ZINC000003975718    0.0600
72     H72    -5.3410    3.6752    5.2271 H        1 ZINC000003975718    0.0600
73     H73    -4.7891    5.3666    5.1718 H        1 ZINC000003975718    0.0600
74     H74    -4.6353    4.3327    3.7311 H        1 ZINC000003975718    0.0600
75     H75    -2.1487    3.6328    7.1416 H        1 ZINC000003975718    0.0600
76     H76    -3.3370    4.9579    7.1635 H        1 ZINC000003975718    0.0600
77     H77    -3.8889    3.2665    7.2188 H        1 ZINC000003975718    0.0600
@<TRIPOS>BOND
1     1     2     1
2     1     42    1
3     1     43    1
4     1     44    1
5     2     3     1
6     3     4     1
7     3     5     1
8     3     27    1
9     5     6     2
10    5     7     am
11    7     8     1
12    7     45    1
13    8     9     1
14    8     25    1
15    8     10    1
16    10    11    1
17    10    46    1
18    10    47    1
19    11    12    1
20    11    48    1
21    11    49    1
22    12    13    1
23    12    14    1
24    12    23    1
25    14    15    1
26    15    16    2
27    15    17    1
28    17    22    1
29    17    18    1
30    17    50    1
31    18    19    1
32    18    51    1
33    18    52    1
34    19    20    1
35    19    53    1
36    19    54    1
37    20    21    1
38    20    55    1
39    20    56    1
40    21    22    1
41    21    57    1
42    21    58    1
43    22    59    1
44    22    60    1
45    23    24    1
46    23    61    1
47    23    62    1
48    24    25    am
49    24    63    1
50    25    26    2
51    27    28    1
52    27    29    1
53    27    30    1
54    29    64    1
55    30    31    1
56    30    32    1
57    30    33    1
58    32    65    1
59    33    34    1
60    33    35    1
61    33    36    1
62    35    66    1
63    36    37    2
64    36    67    1
65    37    38    1
66    37    68    1
67    38    39    1
68    38    40    1
69    38    41    1
70    39    69    1
71    39    70    1
72    39    71    1
73    40    72    1
74    40    73    1
75    40    74    1
76    41    75    1
77    41    76    1
78    41    77    1
@<TRIPOS>SUBSTRUCTURE
1   ZINC000003975718 1     RESIDUE    1   A     ZIN   1
