@<TRIPOS>MOLECULE
ZINC000034853956
51    53    1     0     0
SMALL
USER_CHARGES
@<TRIPOS>ATOM
1      C1     -0.0173    1.4248    0.0099 C.3      1 ZINC000034853956    0.0200
2      O2      0.0021   -0.0041    0.0020 O.3      1 ZINC000034853956   -0.3100
3      C3      0.6258   -0.6184    1.0415 C.ar     1 ZINC000034853956    0.1400
4      C4      1.2022    0.1384    2.0513 C.ar     1 ZINC000034853956   -0.2000
5      C5      1.8353   -0.4884    3.1070 C.ar     1 ZINC000034853956   -0.1000
6      C6      1.8951   -1.8688    3.1577 C.ar     1 ZINC000034853956   -0.1700
7      C7      2.5867   -2.5500    4.3104 C.3      1 ZINC000034853956   -0.0900
8      C8      1.5771   -2.8076    5.4307 C.3      1 ZINC000034853956    0.0300
9      H9      0.7323   -3.3720    5.0359 H        1 ZINC000034853956    0.1400
10     C10     2.2484   -3.6090    6.5479 C.3      1 ZINC000034853956   -0.1800
11     N11     1.1017   -1.5249    5.9660 N.4      1 ZINC000034853956   -0.5100
12     H12     1.8691   -1.0384    6.4048 H        1 ZINC000034853956    0.4200
13     H13     0.7331   -0.9624    5.2137 H        1 ZINC000034853956    0.4200
14     C14     0.0457   -1.7692    6.9575 C.3      1 ZINC000034853956   -0.0500
15     C15    -0.4495   -0.4332    7.5149 C.3      1 ZINC000034853956    0.1600
16     H16    -0.8476    0.1744    6.7023 H        1 ZINC000034853956    0.1100
17     O17     0.6373    0.2558    8.1365 O.3      1 ZINC000034853956   -0.5600
18     C18    -1.5328   -0.6838    8.5321 C.ar     1 ZINC000034853956   -0.2600
19     C19    -1.2234   -0.7449    9.8609 C.ar     1 ZINC000034853956   -0.0400
20     C20    -2.2121   -0.9751   10.8077 C.ar     1 ZINC000034853956   -0.2600
21     C21    -3.5286   -1.1469   10.4236 C.ar     1 ZINC000034853956    0.2700
22     O22    -4.4896   -1.3718   11.3587 O.3      1 ZINC000034853956   -0.6900
23     C23    -3.8663   -1.0877    9.0703 C.ar     1 ZINC000034853956    0.0600
24     C24    -2.8597   -0.8488    8.1179 C.ar     1 ZINC000034853956   -0.0700
25     C25    -3.2234   -0.7885    6.7010 C.2      1 ZINC000034853956   -0.0500
26     C26    -4.5229   -0.9659    6.3573 C.2      1 ZINC000034853956   -0.2100
27     C27    -5.4956   -1.2024    7.3524 C.2      1 ZINC000034853956    0.5100
28     O28    -6.6583   -1.3587    7.0218 O.2      1 ZINC000034853956   -0.5700
29     N29    -5.1718   -1.2553    8.6564 N.am     1 ZINC000034853956   -0.5900
30     C30     1.3210   -2.6254    2.1528 C.ar     1 ZINC000034853956   -0.0600
31     C31     0.6822   -2.0034    1.0976 C.ar     1 ZINC000034853956   -0.1400
32     H32     1.0053    1.8021    0.0021 H        1 ZINC000034853956    0.0600
33     H33    -0.5445    1.7859   -0.8732 H        1 ZINC000034853956    0.1100
34     H34    -0.5275    1.7763    0.9067 H        1 ZINC000034853956    0.0600
35     H35     1.1564    1.2167    2.0118 H        1 ZINC000034853956    0.1400
36     H36     2.2842    0.1003    3.8934 H        1 ZINC000034853956    0.1300
37     H37     3.0056   -3.4983    3.9736 H        1 ZINC000034853956    0.1200
38     H38     3.3874   -1.9109    4.6827 H        1 ZINC000034853956    0.0900
39     H39     3.0931   -3.0446    6.9428 H        1 ZINC000034853956    0.0800
40     H40     1.5291   -3.7926    7.3460 H        1 ZINC000034853956    0.0900
41     H41     2.6011   -4.5608    6.1507 H        1 ZINC000034853956    0.1000
42     H42    -0.7833   -2.2947    6.4834 H        1 ZINC000034853956    0.1400
43     H43     0.4438   -2.3768    7.7701 H        1 ZINC000034853956    0.1400
44     H44     1.0412   -0.2275    8.8703 H        1 ZINC000034853956    0.3800
45     H45    -0.1995   -0.6132   10.1781 H        1 ZINC000034853956    0.1000
46     H46    -1.9500   -1.0208   11.8544 H        1 ZINC000034853956    0.1100
47     H47    -2.4729   -0.6064    5.9460 H        1 ZINC000034853956    0.1200
48     H48    -4.8150   -0.9257    5.3184 H        1 ZINC000034853956    0.1400
49     H49    -5.8648   -1.4197    9.3149 H        1 ZINC000034853956    0.4200
50     H50     1.3687   -3.7035    2.1948 H        1 ZINC000034853956    0.1400
51     H51     0.2339   -2.5948    0.3129 H        1 ZINC000034853956    0.1400
@<TRIPOS>BOND
1     1     2     1
2     1     32    1
3     1     33    1
4     1     34    1
5     2     3     1
6     3     31    ar
7     3     4     ar
8     4     5     ar
9     4     35    1
10    5     6     ar
11    5     36    1
12    6     7     1
13    6     30    ar
14    7     8     1
15    7     37    1
16    7     38    1
17    8     9     1
18    8     10    1
19    8     11    1
20    10    39    1
21    10    40    1
22    10    41    1
23    11    12    1
24    11    13    1
25    11    14    1
26    14    15    1
27    14    42    1
28    14    43    1
29    15    16    1
30    15    17    1
31    15    18    1
32    17    44    1
33    18    24    ar
34    18    19    ar
35    19    20    ar
36    19    45    1
37    20    21    ar
38    20    46    1
39    21    22    1
40    21    23    ar
41    23    29    1
42    23    24    ar
43    24    25    1
44    25    26    2
45    25    47    1
46    26    27    1
47    26    48    1
48    27    28    2
49    27    29    am
50    29    49    1
51    30    31    ar
52    30    50    1
53    31    51    1
@<TRIPOS>SUBSTRUCTURE
1   ZINC000034853956 1     RESIDUE    1   A     ZIN   1
