@<TRIPOS>MOLECULE
ZINC000002002237
  61   62    0    0    0
SMALL
NO_CHARGES
@<TRIPOS>ATOM
   1 C1            -0.5089    -5.8845     6.2467 C.3     
   2 O2            -0.6360    -6.9055     5.2550 O.3     
   3 C3             0.2826    -6.9114     4.2550 C.ar    
   4 C4             1.2872    -5.9571     4.2348 C.ar    
   5 C5             2.2261    -5.9586     3.2169 C.ar    
   6 O6             3.2098    -5.0237     3.1975 O.3     
   7 C7             2.1585    -6.9286     2.2065 C.ar    
   8 C8             3.1540    -6.9361     1.1217 C.2     
   9 O9             4.0371    -6.1000     1.1008 O.2     
  10 N10            3.0868    -7.8696     0.1518 N.am    
  11 C11            4.0252    -7.8766    -0.8709 C.2     
  12 N12            4.0541    -8.7200    -1.8537 N.2     
  13 C13            5.0452    -8.5491    -2.7339 C.2     
  14 C14            5.2199    -9.4206    -3.9072 C.2     
  15 O15            6.1384    -9.2234    -4.6800 O.2     
  16 N16            4.3622   -10.4371    -4.1254 N.am    
  17 C17            4.5361   -11.3044    -5.2931 C.3     
  18 C18            3.4377   -12.3695    -5.3054 C.3     
  19 N19            3.6709   -13.3005    -6.4175 N.4     
  20 H20            4.6536   -13.5233    -6.4693 H       
  21 C21            2.9008   -14.5316    -6.1952 C.3     
  22 C22            3.0116   -15.4320    -7.4272 C.3     
  23 C23            3.4564   -15.2672    -4.9742 C.3     
  24 C24            3.2433   -12.6761    -7.6766 C.3     
  25 C25            1.8415   -12.0880    -7.5040 C.3     
  26 C26            4.2217   -11.5609    -8.0508 C.3     
  27 C27            5.8731    -7.5182    -2.4671 C.2     
  28 S28            5.3554    -6.7367    -1.0372 S.3     
  29 C29            1.1415    -7.8900     2.2333 C.ar    
  30 C30            0.2150    -7.8822     3.2545 C.ar    
  31 O31           -0.7739    -8.8165     3.2810 O.3     
  32 C32           -0.7908    -9.7735     2.2199 C.3     
  33 H33            0.4594    -5.9748     6.7391 H       
  34 H34           -0.5856    -4.9060     5.7727 H       
  35 H35           -1.3034    -5.9940     6.9848 H       
  36 H36            1.3376    -5.2108     5.0138 H       
  37 H37            2.3826    -8.5364     0.1684 H       
  38 H38            3.6298   -10.5943    -3.5092 H       
  39 H39            4.4727   -10.7067    -6.2024 H       
  40 H40            5.5113   -11.7888    -5.2440 H       
  41 H41            3.4527   -12.9177    -4.3634 H       
  42 H42            2.4673   -11.8893    -5.4309 H       
  43 H43            1.8545   -14.2794    -6.0224 H       
  44 H44            4.0622   -15.5718    -7.6818 H       
  45 H45            2.5580   -16.3995    -7.2121 H       
  46 H46            2.4935   -14.9661    -8.2655 H       
  47 H47            2.8850   -16.1807    -4.8092 H       
  48 H48            4.5027   -15.5194    -5.1470 H       
  49 H49            3.3775   -14.6258    -4.0965 H       
  50 H50            3.2278   -13.4263    -8.4673 H       
  51 H51            1.9145   -11.1055    -7.0378 H       
  52 H52            1.3647   -11.9928    -8.4796 H       
  53 H53            1.2464   -12.7469    -6.8716 H       
  54 H54            5.1939   -11.7648    -7.6021 H       
  55 H55            4.3242   -11.5162    -9.1351 H       
  56 H56            3.8440   -10.6073    -7.6820 H       
  57 H57            6.7256    -7.2298    -3.0641 H       
  58 H58            1.0851    -8.6392     1.4575 H       
  59 H59           -0.9014    -9.2570     1.2665 H       
  60 H60            0.1432   -10.3354     2.2225 H       
  61 H61           -1.6271   -10.4581     2.3614 H       
@<TRIPOS>BOND
   1    1    2 1
   2    1   33 1
   3    1   34 1
   4    1   35 1
   5    2    3 1
   6    3   30 ar
   7    3    4 ar
   8    4    5 ar
   9    4   36 1
  10    5    6 1
  11    5    7 ar
  12    7    8 1
  13    7   29 ar
  14    8    9 2
  15    8   10 am
  16   10   11 1
  17   10   37 1
  18   11   28 1
  19   11   12 2
  20   12   13 1
  21   13   14 1
  22   13   27 2
  23   14   15 2
  24   14   16 am
  25   16   17 1
  26   16   38 1
  27   17   18 1
  28   17   39 1
  29   17   40 1
  30   18   19 1
  31   18   41 1
  32   18   42 1
  33   19   20 1
  34   19   21 1
  35   19   24 1
  36   21   22 1
  37   21   23 1
  38   21   43 1
  39   22   44 1
  40   22   45 1
  41   22   46 1
  42   23   47 1
  43   23   48 1
  44   23   49 1
  45   24   25 1
  46   24   26 1
  47   24   50 1
  48   25   51 1
  49   25   52 1
  50   25   53 1
  51   26   54 1
  52   26   55 1
  53   26   56 1
  54   27   28 1
  55   27   57 1
  56   29   30 ar
  57   29   58 1
  58   30   31 1
  59   31   32 1
  60   32   59 1
  61   32   60 1
  62   32   61 1
