@<TRIPOS>MOLECULE
ZINC000006037116
31    32    1     0     0
SMALL
USER_CHARGES
@<TRIPOS>ATOM
1      C1     -0.0176    1.4478    0.0100 C.3      1 ZINC000006037116    0.0300
2      O2      0.0021   -0.0041    0.0020 O.3      1 ZINC000006037116   -0.3600
3      C3      0.6181   -0.6108    1.0287 C.2      1 ZINC000006037116    0.4600
4      O4      1.1242    0.0494    1.9050 O.2      1 ZINC000006037116   -0.5000
5      C5      0.6786   -2.1154    1.0883 C.3      1 ZINC000006037116   -0.0400
6      H6      1.1992   -2.4933    0.2084 H        1 ZINC000006037116    0.1200
7      C7     -0.7422   -2.6820    1.1228 C.3      1 ZINC000006037116   -0.1400
8      C8      1.4189   -2.5395    2.3306 C.ar     1 ZINC000006037116   -0.0800
9      C9      0.9383   -2.1779    3.5763 C.ar     1 ZINC000006037116   -0.0800
10     C10     1.6122   -2.5635    4.7173 C.ar     1 ZINC000006037116   -0.1100
11     C11     2.7787   -3.3187    4.6128 C.ar     1 ZINC000006037116   -0.0200
12     C12     3.5072   -3.7367    5.8359 C.2      1 ZINC000006037116   -0.0600
13     C13     3.0890   -3.4228    7.0758 C.2      1 ZINC000006037116   -0.2100
14     S14     4.2051   -4.0901    8.2596 S.3      1 ZINC000006037116    0.1100
15     C15     5.2031   -4.7755    6.9847 C.2      1 ZINC000006037116   -0.2100
16     C16     4.6779   -4.4918    5.7956 C.2      1 ZINC000006037116   -0.1300
17     C17     3.2582   -3.6802    3.3553 C.ar     1 ZINC000006037116   -0.1100
18     C18     2.5732   -3.2938    2.2212 C.ar     1 ZINC000006037116   -0.1000
19     H19     1.0050    1.8251    0.0023 H        1 ZINC000006037116    0.0600
20     H20    -0.5448    1.8089   -0.8731 H        1 ZINC000006037116    0.1000
21     H21    -0.5278    1.7993    0.9068 H        1 ZINC000006037116    0.0600
22     H22    -0.6984   -3.7702    1.1660 H        1 ZINC000006037116    0.0800
23     H23    -1.2628   -2.3041    2.0028 H        1 ZINC000006037116    0.0600
24     H24    -1.2776   -2.3752    0.2243 H        1 ZINC000006037116    0.0700
25     H25     0.0344   -1.5923    3.6561 H        1 ZINC000006037116    0.1200
26     H26     1.2363   -2.2803    5.6894 H        1 ZINC000006037116    0.1200
27     H27     2.2040   -2.8491    7.3082 H        1 ZINC000006037116    0.1700
28     H28     6.1065   -5.3456    7.1435 H        1 ZINC000006037116    0.1700
29     H29     5.1285   -4.8161    4.8692 H        1 ZINC000006037116    0.1400
30     H30     4.1618   -4.2654    3.2685 H        1 ZINC000006037116    0.1300
31     H31     2.9437   -3.5737    1.2461 H        1 ZINC000006037116    0.1300
@<TRIPOS>BOND
1     1     2     1
2     1     19    1
3     1     20    1
4     1     21    1
5     2     3     1
6     3     4     2
7     3     5     1
8     5     6     1
9     5     7     1
10    5     8     1
11    7     22    1
12    7     23    1
13    7     24    1
14    8     18    ar
15    8     9     ar
16    9     10    ar
17    9     25    1
18    10    11    ar
19    10    26    1
20    11    12    1
21    11    17    ar
22    12    16    1
23    12    13    2
24    13    14    1
25    13    27    1
26    14    15    1
27    15    16    2
28    15    28    1
29    16    29    1
30    17    18    ar
31    17    30    1
32    18    31    1
@<TRIPOS>SUBSTRUCTURE
1   ZINC000006037116 1     RESIDUE    1   A     ZIN   1
