@<TRIPOS>MOLECULE
ZINC000043199965
44    47    1     0     0
SMALL
USER_CHARGES
@<TRIPOS>ATOM
1      O1      0.0021   -0.0041    0.0020 O.2      1 ZINC000043199965   -0.9300
2      S2     -0.0172    1.4168    0.0098 S.o2     1 ZINC000043199965    2.5900
3      O3      1.1617    2.2101    0.0028 O.2      1 ZINC000043199965   -0.9300
4      C4     -0.9567    1.9094   -1.3970 C.ar     1 ZINC000043199965   -0.6600
5      C5     -1.8848    1.0442   -1.9458 C.ar     1 ZINC000043199965   -0.0200
6      C6     -2.6219    1.4307   -3.0496 C.ar     1 ZINC000043199965   -0.1400
7      C7     -2.4313    2.6825   -3.6042 C.ar     1 ZINC000043199965   -0.0600
8      C8     -1.5039    3.5480   -3.0548 C.ar     1 ZINC000043199965   -0.1400
9      C9     -0.7699    3.1631   -1.9485 C.ar     1 ZINC000043199965   -0.0200
10     C10    -0.9297    1.8941    1.4396 C.ar     1 ZINC000043199965   -0.7200
11     C11    -0.7354    3.1534    2.0024 C.ar     1 ZINC000043199965    0.2000
12     N12    -1.3961    3.5424    3.0660 N.ar     1 ZINC000043199965   -0.4500
13     C13    -2.2884    2.7457    3.6592 C.ar     1 ZINC000043199965    0.1800
14     C14    -2.5356    1.4519    3.1389 C.ar     1 ZINC000043199965   -0.1200
15     C15    -1.8324    1.0318    1.9940 C.ar     1 ZINC000043199965    0.0600
16     C16    -3.4756    0.6169    3.7649 C.ar     1 ZINC000043199965   -0.0800
17     C17    -4.1443    1.0541    4.8675 C.ar     1 ZINC000043199965   -0.1100
18     C18    -3.9117    2.3232    5.3901 C.ar     1 ZINC000043199965   -0.1100
19     C19    -2.9973    3.1712    4.8048 C.ar     1 ZINC000043199965    0.1100
20     N20    -2.7739    4.4398    5.3382 N.3      1 ZINC000043199965   -0.4900
21     C21    -3.9849    5.2678    5.2526 C.3      1 ZINC000043199965    0.0600
22     C22    -3.6766    6.6734    5.7738 C.3      1 ZINC000043199965    0.0600
23     N23    -3.1995    6.5850    7.1609 N.3      1 ZINC000043199965   -0.6900
24     C24    -1.9884    5.7569    7.2465 C.3      1 ZINC000043199965    0.0600
25     C25    -2.2968    4.3514    6.7253 C.3      1 ZINC000043199965    0.0600
26     H26    -2.0336    0.0662   -1.5125 H        1 ZINC000043199965    0.1400
27     H27    -3.3464    0.7545   -3.4788 H        1 ZINC000043199965    0.1400
28     H28    -3.0067    2.9841   -4.4670 H        1 ZINC000043199965    0.1300
29     H29    -1.3548    4.5258   -3.4884 H        1 ZINC000043199965    0.1400
30     H30    -0.0453    3.8393   -1.5193 H        1 ZINC000043199965    0.1400
31     H31    -0.0218    3.8267    1.5511 H        1 ZINC000043199965    0.1800
32     H32    -1.9961    0.0518    1.5707 H        1 ZINC000043199965    0.1600
33     H33    -3.6681   -0.3705    3.3720 H        1 ZINC000043199965    0.1400
34     H34    -4.8660    0.4068    5.3435 H        1 ZINC000043199965    0.1400
35     H35    -4.4548    2.6470    6.2657 H        1 ZINC000043199965    0.1300
36     H36    -4.3114    5.3285    4.2144 H        1 ZINC000043199965    0.0800
37     H37    -4.7744    4.8210    5.8569 H        1 ZINC000043199965    0.0500
38     H38    -2.9063    7.1307    5.1528 H        1 ZINC000043199965    0.0400
39     H39    -4.5808    7.2810    5.7383 H        1 ZINC000043199965    0.0800
40     H40    -3.0378    7.5031    7.5470 H        1 ZINC000043199965    0.3500
41     H41    -1.1990    6.2038    6.6422 H        1 ZINC000043199965    0.0400
42     H42    -1.6620    5.6963    8.2847 H        1 ZINC000043199965    0.0800
43     H43    -3.0671    3.8941    7.3463 H        1 ZINC000043199965    0.0500
44     H44    -1.3925    3.7438    6.7608 H        1 ZINC000043199965    0.0800
@<TRIPOS>BOND
1     1     2     2
2     2     3     2
3     2     4     1
4     2     10    1
5     4     9     ar
6     4     5     ar
7     5     6     ar
8     5     26    1
9     6     7     ar
10    6     27    1
11    7     8     ar
12    7     28    1
13    8     9     ar
14    8     29    1
15    9     30    1
16    10    15    ar
17    10    11    ar
18    11    12    ar
19    11    31    1
20    12    13    ar
21    13    19    ar
22    13    14    ar
23    14    15    ar
24    14    16    ar
25    15    32    1
26    16    17    ar
27    16    33    1
28    17    18    ar
29    17    34    1
30    18    19    ar
31    18    35    1
32    19    20    1
33    20    25    1
34    20    21    1
35    21    22    1
36    21    36    1
37    21    37    1
38    22    23    1
39    22    38    1
40    22    39    1
41    23    24    1
42    23    40    1
43    24    25    1
44    24    41    1
45    24    42    1
46    25    43    1
47    25    44    1
@<TRIPOS>SUBSTRUCTURE
1   ZINC000043199965 1     RESIDUE    1   A     ZIN   1
