@<TRIPOS>MOLECULE
ZINC000003994495
73    78    1     0     0
SMALL
USER_CHARGES
@<TRIPOS>ATOM
1      C1     -0.0157    1.3058    0.0092 C.2      1 ZINC000003994495   -0.1500
2      C2      0.0021   -0.0041    0.0020 C.2      1 ZINC000003994495   -0.1500
3      C3     -1.1843   -0.9540    0.0021 C.3      1 ZINC000003994495   -0.0900
4      C4     -0.6627   -2.2249    0.6916 C.3      1 ZINC000003994495    0.1000
5      H5     -1.0140   -2.2705    1.7224 H        1 ZINC000003994495    0.1000
6      C6     -1.1155   -3.4404   -0.0724 C.2      1 ZINC000003994495    0.1900
7      N7     -0.7988   -4.6196    0.2814 N.2      1 ZINC000003994495   -0.4900
8      C8     -0.0640   -4.9880    1.3639 C.ar     1 ZINC000003994495    0.1400
9      C9     -0.5154   -6.0997    2.0900 C.ar     1 ZINC000003994495   -0.1700
10     C10     0.1844   -6.5547    3.1895 C.ar     1 ZINC000003994495    0.1400
11     O11    -0.2675   -7.6320    3.8821 O.3      1 ZINC000003994495   -0.2900
12     C12    -1.4720   -8.2439    3.4166 C.3      1 ZINC000003994495    0.0600
13     C13    -1.8210   -9.4318    4.3155 C.3      1 ZINC000003994495   -0.1200
14     C14    -3.1107  -10.0869    3.8171 C.3      1 ZINC000003994495    0.0600
15     O15    -3.4366  -11.1964    4.6567 O.3      1 ZINC000003994495   -0.2900
16     C16    -4.5616  -11.8925    4.3494 C.ar     1 ZINC000003994495    0.1400
17     C17    -5.3277  -11.5191    3.2636 C.ar     1 ZINC000003994495   -0.1700
18     C18    -6.4912  -12.2278    2.9305 C.ar     1 ZINC000003994495    0.1400
19     C19    -6.8589  -13.3352    3.7061 C.ar     1 ZINC000003994495   -0.1500
20     C20    -6.0768  -13.6969    4.8140 C.ar     1 ZINC000003994495   -0.1200
21     C21    -4.9377  -12.9877    5.1289 C.ar     1 ZINC000003994495    0.1000
22     O22    -4.1868  -13.3481    6.2038 O.3      1 ZINC000003994495   -0.3000
23     C23    -4.6376  -14.4720    6.9626 C.3      1 ZINC000003994495    0.0200
24     C24    -8.0346  -14.1647    3.4043 C.2      1 ZINC000003994495    0.5800
25     O25    -8.7052  -14.5956    4.3228 O.2      1 ZINC000003994495   -0.5300
26     N26    -8.3888  -14.4593    2.1444 N.am     1 ZINC000003994495   -0.6000
27     C27    -9.5249  -15.2875    1.7253 C.3      1 ZINC000003994495    0.1400
28     C28    -9.2830  -15.6691    0.2775 C.2      1 ZINC000003994495   -0.1500
29     C29    -9.6979  -16.7399   -0.3527 C.2      1 ZINC000003994495   -0.1500
30     C30    -8.4494  -14.5245   -0.2749 C.3      1 ZINC000003994495   -0.0900
31     C31    -7.6867  -13.9786    0.9429 C.3      1 ZINC000003994495    0.1000
32     H32    -6.6560  -14.3331    0.9366 H        1 ZINC000003994495    0.1000
33     C33    -7.7246  -12.4738    0.9347 C.2      1 ZINC000003994495    0.1900
34     N34    -7.2017  -11.7788    1.8624 N.2      1 ZINC000003994495   -0.4900
35     C35     1.3557   -5.9100    3.5906 C.ar     1 ZINC000003994495    0.1000
36     O36     2.0488   -6.3656    4.6682 O.3      1 ZINC000003994495   -0.3000
37     C37     3.2383   -5.6569    5.0214 C.3      1 ZINC000003994495    0.0200
38     C38     1.8086   -4.8107    2.8933 C.ar     1 ZINC000003994495   -0.1200
39     C39     1.1011   -4.3306    1.7803 C.ar     1 ZINC000003994495   -0.1500
40     C40     1.6222   -3.1303    1.1101 C.2      1 ZINC000003994495    0.5800
41     O41     2.8246   -2.9978    0.9857 O.2      1 ZINC000003994495   -0.5300
42     N42     0.8081   -2.1665    0.6509 N.am     1 ZINC000003994495   -0.6000
43     C43     1.2111   -0.9195   -0.0150 C.3      1 ZINC000003994495    0.1400
44     H44     0.9122    1.8585    0.0033 H        1 ZINC000003994495    0.1100
45     H45    -0.9582    1.8330    0.0166 H        1 ZINC000003994495    0.1100
46     H46    -2.0128   -0.5275    0.5675 H        1 ZINC000003994495    0.1000
47     H47    -1.4941   -1.1755   -1.0192 H        1 ZINC000003994495    0.1000
48     H48    -1.7302   -3.3061   -0.9502 H        1 ZINC000003994495    0.1700
49     H49    -1.4202   -6.6049    1.7860 H        1 ZINC000003994495    0.1500
50     H50    -2.2833   -7.5165    3.4444 H        1 ZINC000003994495    0.0700
51     H51    -1.3309   -8.5918    2.3933 H        1 ZINC000003994495    0.0700
52     H52    -1.0097  -10.1592    4.2877 H        1 ZINC000003994495    0.0900
53     H53    -1.9622   -9.0839    5.3388 H        1 ZINC000003994495    0.0900
54     H54    -3.9220   -9.3595    3.8449 H        1 ZINC000003994495    0.0700
55     H55    -2.9695  -10.4348    2.7938 H        1 ZINC000003994495    0.0700
56     H56    -5.0282  -10.6720    2.6644 H        1 ZINC000003994495    0.1500
57     H57    -6.3677  -14.5404    5.4224 H        1 ZINC000003994495    0.1500
58     H58    -5.6336  -14.2689    7.3560 H        1 ZINC000003994495    0.0600
59     H59    -4.6728  -15.3527    6.3214 H        1 ZINC000003994495    0.0600
60     H60    -3.9502  -14.6516    7.7892 H        1 ZINC000003994495    0.1100
61     H61    -9.5796  -16.1843    2.3425 H        1 ZINC000003994495    0.0900
62     H62   -10.4512  -14.7194    1.8107 H        1 ZINC000003994495    0.0800
63     H63   -10.2884  -17.4787    0.1688 H        1 ZINC000003994495    0.1100
64     H64    -9.4494  -16.8840   -1.3938 H        1 ZINC000003994495    0.1100
65     H65    -7.7514  -14.8912   -1.0275 H        1 ZINC000003994495    0.1000
66     H66    -9.0942  -13.7535   -0.6966 H        1 ZINC000003994495    0.1000
67     H67    -8.2306  -11.9687    0.1253 H        1 ZINC000003994495    0.1700
68     H68     3.6928   -6.1229    5.8957 H        1 ZINC000003994495    0.1100
69     H69     3.9401   -5.6868    4.1878 H        1 ZINC000003994495    0.0600
70     H70     2.9896   -4.6206    5.2500 H        1 ZINC000003994495    0.0600
71     H71     2.7153   -4.3145    3.2063 H        1 ZINC000003994495    0.1500
72     H72     1.4863   -1.1222   -1.0500 H        1 ZINC000003994495    0.0800
73     H73     2.0523   -0.4705    0.5132 H        1 ZINC000003994495    0.0900
@<TRIPOS>BOND
1     1     2     2
2     1     44    1
3     1     45    1
4     2     43    1
5     2     3     1
6     3     4     1
7     3     46    1
8     3     47    1
9     4     5     1
10    4     42    1
11    4     6     1
12    6     7     2
13    6     48    1
14    7     8     1
15    8     39    ar
16    8     9     ar
17    9     10    ar
18    9     49    1
19    10    11    1
20    10    35    ar
21    11    12    1
22    12    13    1
23    12    50    1
24    12    51    1
25    13    14    1
26    13    52    1
27    13    53    1
28    14    15    1
29    14    54    1
30    14    55    1
31    15    16    1
32    16    21    ar
33    16    17    ar
34    17    18    ar
35    17    56    1
36    18    34    1
37    18    19    ar
38    19    20    ar
39    19    24    1
40    20    21    ar
41    20    57    1
42    21    22    1
43    22    23    1
44    23    58    1
45    23    59    1
46    23    60    1
47    24    25    2
48    24    26    am
49    26    31    1
50    26    27    1
51    27    28    1
52    27    61    1
53    27    62    1
54    28    29    2
55    28    30    1
56    29    63    1
57    29    64    1
58    30    31    1
59    30    65    1
60    30    66    1
61    31    32    1
62    31    33    1
63    33    34    2
64    33    67    1
65    35    36    1
66    35    38    ar
67    36    37    1
68    37    68    1
69    37    69    1
70    37    70    1
71    38    39    ar
72    38    71    1
73    39    40    1
74    40    41    2
75    40    42    am
76    42    43    1
77    43    72    1
78    43    73    1
@<TRIPOS>SUBSTRUCTURE
1   ZINC000003994495 1     RESIDUE    1   A     ZIN   1
