@<TRIPOS>MOLECULE
ZINC000003926844
80    85    1     0     0
SMALL
USER_CHARGES
@<TRIPOS>ATOM
1      C1      0.7304   -0.4569    0.4463 C.3      1 ZINC000003926844    0.0600
2      N2      0.1756   -1.6971   -0.1018 N.am     1 ZINC000003926844   -0.6100
3      C3      0.0450   -2.8810    0.7512 C.3      1 ZINC000003926844    0.1600
4      C4     -1.3044   -2.8705    1.4219 C.ar     1 ZINC000003926844   -0.1100
5      C5     -1.4627   -2.2491    2.6466 C.ar     1 ZINC000003926844   -0.1100
6      C6     -2.7005   -2.2395    3.2619 C.ar     1 ZINC000003926844   -0.1200
7      C7     -3.7802   -2.8508    2.6523 C.ar     1 ZINC000003926844   -0.1200
8      C8     -3.6221   -3.4714    1.4273 C.ar     1 ZINC000003926844   -0.1200
9      C9     -2.3852   -3.4773    0.8100 C.ar     1 ZINC000003926844   -0.0900
10     C10    -0.2147   -1.7488   -1.3908 C.2      1 ZINC000003926844    0.5100
11     O11    -0.7612   -2.7431   -1.8195 O.2      1 ZINC000003926844   -0.5200
12     C12     0.0279   -0.5713   -2.2994 C.3      1 ZINC000003926844    0.1400
13     H13     1.0512   -0.2182   -2.1712 H        1 ZINC000003926844    0.1100
14     C14    -0.9476    0.5537   -1.9478 C.3      1 ZINC000003926844   -0.0900
15     C15    -0.6460    1.7631   -2.7949 C.ar     1 ZINC000003926844   -0.0800
16     C16     0.3411    2.6578   -2.3870 C.ar     1 ZINC000003926844   -0.1100
17     C17     0.6382    3.7598   -3.1288 C.ar     1 ZINC000003926844   -0.1000
18     C18    -0.0593    4.0017   -4.3243 C.ar     1 ZINC000003926844   -0.0500
19     C19     0.2197    5.1282   -5.1171 C.ar     1 ZINC000003926844   -0.1100
20     C20    -0.4761    5.3298   -6.2691 C.ar     1 ZINC000003926844   -0.1200
21     C21    -1.4637    4.4348   -6.6771 C.ar     1 ZINC000003926844   -0.1100
22     C22    -1.7610    3.3334   -5.9352 C.ar     1 ZINC000003926844   -0.1100
23     C23    -1.0636    3.0915   -4.7392 C.ar     1 ZINC000003926844   -0.0500
24     C24    -1.3384    1.9621   -3.9499 C.ar     1 ZINC000003926844   -0.1000
25     N25    -0.1774   -0.9783   -3.6917 N.am     1 ZINC000003926844   -0.7000
26     C26     0.7990   -1.6296   -4.3543 C.2      1 ZINC000003926844    0.5200
27     O27     1.8111   -1.9589   -3.7729 O.2      1 ZINC000003926844   -0.5200
28     C28     0.6330   -1.9486   -5.8178 C.3      1 ZINC000003926844    0.1300
29     H29     0.2398   -1.0790   -6.3443 H        1 ZINC000003926844    0.1000
30     C30    -0.3275   -3.1443   -5.9887 C.3      1 ZINC000003926844   -0.1100
31     C31     0.3121   -3.9396   -7.1573 C.3      1 ZINC000003926844    0.0900
32     H32     0.0496   -4.9960   -7.1007 H        1 ZINC000003926844    0.0900
33     O33    -0.0660   -3.3877   -8.4200 O.3      1 ZINC000003926844   -0.5500
34     C34     1.8227   -3.7277   -6.8876 C.3      1 ZINC000003926844    0.0600
35     N35     1.9279   -2.3389   -6.3944 N.am     1 ZINC000003926844   -0.5900
36     C36     3.0278   -1.5628   -6.4612 C.2      1 ZINC000003926844    0.6200
37     O37     2.9956   -0.4240   -6.0340 O.2      1 ZINC000003926844   -0.5300
38     C38     4.2655   -2.0919   -7.0498 C.2      1 ZINC000003926844   -0.2200
39     C39     4.5087   -3.3830   -7.4151 C.2      1 ZINC000003926844    0.0900
40     N40     5.7613   -3.4883   -7.9203 N.pl3    1 ZINC000003926844   -0.4700
41     C41     6.3621   -4.7302   -8.4132 C.3      1 ZINC000003926844    0.0700
42     C42     6.3913   -2.2610   -7.9052 C.ar     1 ZINC000003926844    0.0900
43     C43     7.6541   -1.8341   -8.3020 C.ar     1 ZINC000003926844   -0.1300
44     C44     8.0085   -0.5100   -8.1597 C.ar     1 ZINC000003926844   -0.1000
45     C45     7.1166    0.4067   -7.6230 C.ar     1 ZINC000003926844   -0.1400
46     C46     5.8609    0.0033   -7.2240 C.ar     1 ZINC000003926844   -0.0600
47     C47     5.4873   -1.3303   -7.3679 C.ar     1 ZINC000003926844   -0.0600
48     H48     1.8182   -0.4871    0.3847 H        1 ZINC000003926844    0.0600
49     H49     0.3574    0.3922   -0.1263 H        1 ZINC000003926844    0.0800
50     H50     0.4283   -0.3532    1.4885 H        1 ZINC000003926844    0.0800
51     H51     0.1411   -3.7799    0.1422 H        1 ZINC000003926844    0.0900
52     H52     0.8278   -2.8705    1.5096 H        1 ZINC000003926844    0.0900
53     H53    -0.6192   -1.7715    3.1228 H        1 ZINC000003926844    0.1200
54     H54    -2.8240   -1.7547    4.2190 H        1 ZINC000003926844    0.1200
55     H55    -4.7471   -2.8439    3.1334 H        1 ZINC000003926844    0.1200
56     H56    -4.4655   -3.9493    0.9512 H        1 ZINC000003926844    0.1200
57     H57    -2.2617   -3.9621   -0.1472 H        1 ZINC000003926844    0.1300
58     H58    -1.9683    0.2222   -2.1381 H        1 ZINC000003926844    0.0900
59     H59    -0.8399    0.8120   -0.8943 H        1 ZINC000003926844    0.1000
60     H60     0.8785    2.4743   -1.4683 H        1 ZINC000003926844    0.1200
61     H61     1.4057    4.4448   -2.8000 H        1 ZINC000003926844    0.1300
62     H62     0.9820    5.8304   -4.8134 H        1 ZINC000003926844    0.1300
63     H63    -0.2600    6.1964   -6.8763 H        1 ZINC000003926844    0.1200
64     H64    -2.0014    4.6185   -7.5956 H        1 ZINC000003926844    0.1200
65     H65    -2.5291    2.6488   -6.2636 H        1 ZINC000003926844    0.1300
66     H66    -2.0976    1.2576   -4.2560 H        1 ZINC000003926844    0.1200
67     H67    -1.0160   -0.7791   -4.1366 H        1 ZINC000003926844    0.4000
68     H68    -0.3569   -3.7481   -5.0817 H        1 ZINC000003926844    0.1000
69     H69    -1.3266   -2.8010   -6.2572 H        1 ZINC000003926844    0.1000
70     H70     0.3098   -3.8518   -9.1805 H        1 ZINC000003926844    0.3800
71     H71     2.1749   -4.4281   -6.1303 H        1 ZINC000003926844    0.0800
72     H72     2.3928   -3.8457   -7.8091 H        1 ZINC000003926844    0.0900
73     H73     3.8083   -4.1991   -7.3160 H        1 ZINC000003926844    0.1800
74     H74     6.1479   -4.8405   -9.4762 H        1 ZINC000003926844    0.0800
75     H75     7.4410   -4.6970   -8.2615 H        1 ZINC000003926844    0.0900
76     H76     5.9445   -5.5770   -7.8686 H        1 ZINC000003926844    0.0900
77     H77     8.3564   -2.5397   -8.7208 H        1 ZINC000003926844    0.1200
78     H78     8.9903   -0.1830   -8.4689 H        1 ZINC000003926844    0.1300
79     H79     7.4078    1.4413   -7.5170 H        1 ZINC000003926844    0.1300
80     H80     5.1681    0.7189   -6.8064 H        1 ZINC000003926844    0.1300
@<TRIPOS>BOND
1     1     2     1
2     1     48    1
3     1     49    1
4     1     50    1
5     2     3     1
6     2     10    am
7     3     4     1
8     3     51    1
9     3     52    1
10    4     9     ar
11    4     5     ar
12    5     6     ar
13    5     53    1
14    6     7     ar
15    6     54    1
16    7     8     ar
17    7     55    1
18    8     9     ar
19    8     56    1
20    9     57    1
21    10    11    2
22    10    12    1
23    12    13    1
24    12    14    1
25    12    25    1
26    14    15    1
27    14    58    1
28    14    59    1
29    15    24    ar
30    15    16    ar
31    16    17    ar
32    16    60    1
33    17    18    ar
34    17    61    1
35    18    23    ar
36    18    19    ar
37    19    20    ar
38    19    62    1
39    20    21    ar
40    20    63    1
41    21    22    ar
42    21    64    1
43    22    23    ar
44    22    65    1
45    23    24    ar
46    24    66    1
47    25    26    am
48    25    67    1
49    26    27    2
50    26    28    1
51    28    29    1
52    28    35    1
53    28    30    1
54    30    31    1
55    30    68    1
56    30    69    1
57    31    32    1
58    31    33    1
59    31    34    1
60    33    70    1
61    34    35    1
62    34    71    1
63    34    72    1
64    35    36    am
65    36    37    2
66    36    38    1
67    38    47    1
68    38    39    2
69    39    40    1
70    39    73    1
71    40    41    1
72    40    42    1
73    41    74    1
74    41    75    1
75    41    76    1
76    42    47    ar
77    42    43    ar
78    43    44    ar
79    43    77    1
80    44    45    ar
81    44    78    1
82    45    46    ar
83    45    79    1
84    46    47    ar
85    46    80    1
@<TRIPOS>SUBSTRUCTURE
1   ZINC000003926844 1     RESIDUE    1   A     ZIN   1
