@<TRIPOS>MOLECULE
ZINC000023247686
  51   54    0    0    0
SMALL
USER_CHARGES
NO_NAME
@<TRIPOS>ATOM
    1 O1       -0.0575     0.0610    -0.0249 O.2    1 <0>      -0.5100
    2 C2       -0.0448     1.2736    -0.0095 C.2    1 <0>       0.5300
    3 C3        1.2681     2.0135    -0.0079 C.3    1 <0>       0.0100
    4 H4        1.2135     2.8638     0.6718 H      1 <0>       0.1700
    5 C5        1.5972     2.5018    -1.4343 C.3    1 <0>      -0.1300
    6 C6        3.1316     2.2932    -1.5298 C.3    1 <0>       0.0700
    7 H7        3.6679     3.1260    -1.0749 H      1 <0>       0.0900
    8 N8        3.5506     2.1000    -2.9244 N.3    1 <0>      -0.5200
    9 C9        4.9672     1.7188    -3.0005 C.3    1 <0>       0.0300
   10 C10       5.3170     1.3517    -4.4466 C.3    1 <0>       0.1300
   11 N11       4.9258     2.4687    -5.3198 N.pl3  1 <0>      -0.5900
   12 C12       5.8206     3.0077    -6.2278 C.ar   1 <0>       0.5600
   13 N13       7.0425     2.5021    -6.3095 N.ar   1 <0>      -0.5700
   14 C14       7.9217     2.9937    -7.1669 C.ar   1 <0>       0.1900
   15 C15       7.5512     4.0497    -7.9846 C.ar   1 <0>      -0.2800
   16 C16       6.2651     4.5545    -7.8730 C.ar   1 <0>       0.1900
   17 N17       5.4332     4.0135    -6.9983 N.ar   1 <0>      -0.5700
   18 C18       3.5583     2.9974    -5.2029 C.3    1 <0>       0.1300
   19 C19       3.2777     3.2996    -3.7271 C.3    1 <0>       0.0400
   20 C20       3.3226     0.9946    -0.7071 C.3    1 <0>       0.0000
   21 N21       2.3540     1.1072     0.4087 N.4    1 <0>      -0.5000
   22 H22       2.8172     1.4794     1.2241 H      1 <0>       0.4400
   23 H23       1.9719     0.1976     0.6198 H      1 <0>       0.4400
   24 N24      -1.2049     1.9596     0.0007 N.am   1 <0>      -0.5900
   25 C25      -1.3346     3.4281     0.0131 C.3    1 <0>       0.0800
   26 C26      -2.7329     3.7078    -0.5922 C.3    1 <0>      -0.1700
   27 C27      -3.5635     2.5317    -0.0142 C.3    1 <0>       0.2800
   28 F28      -3.9999     2.8241     1.2825 F      1 <0>      -0.1800
   29 F29      -4.6495     2.2372    -0.8454 F      1 <0>      -0.1700
   30 C30      -2.5506     1.3675    -0.0053 C.3    1 <0>       0.0700
   31 H31       1.0790     1.8966    -2.1780 H      1 <0>       0.1200
   32 H32       1.3437     3.5557    -1.5489 H      1 <0>       0.1200
   33 H33       5.5868     2.5553    -2.6775 H      1 <0>       0.0500
   34 H34       5.1482     0.8605    -2.3534 H      1 <0>       0.0900
   35 H35       6.3899     1.1792    -4.5313 H      1 <0>       0.1100
   36 H36       4.7746     0.4522    -4.7375 H      1 <0>       0.0800
   37 H37       8.9164     2.5775    -7.2287 H      1 <0>       0.1700
   38 H38       8.2494     4.4703    -8.6931 H      1 <0>       0.1500
   39 H39       5.9450     5.3771    -8.4952 H      1 <0>       0.1700
   40 H40       3.4684     3.9129    -5.7877 H      1 <0>       0.1100
   41 H41       2.8468     2.2560    -5.5666 H      1 <0>       0.0800
   42 H42       2.2334     3.5879    -3.6070 H      1 <0>       0.0900
   43 H43       3.9209     4.1142    -3.3940 H      1 <0>       0.0500
   44 H44       3.0982     0.1211    -1.3193 H      1 <0>       0.1500
   45 H45       4.3399     0.9366    -0.3202 H      1 <0>       0.1400
   46 H46      -1.2811     3.8050     1.0344 H      1 <0>       0.1000
   47 H47      -0.5575     3.8828    -0.6012 H      1 <0>       0.1000
   48 H48      -3.1222     4.6665    -0.2497 H      1 <0>       0.1200
   49 H49      -2.7026     3.6667    -1.6810 H      1 <0>       0.1200
   50 H50      -2.6860     0.7515    -0.8943 H      1 <0>       0.1200
   51 H51      -2.6882     0.7632     0.8914 H      1 <0>       0.1100
@<TRIPOS>BOND
   1    1    2 2
   2    2    3 1
   3    2   24 am
   4    3    4 1
   5    3   21 1
   6    3    5 1
   7    5    6 1
   8    5   31 1
   9    5   32 1
  10    6    7 1
  11    6    8 1
  12    6   20 1
  13    8   19 1
  14    8    9 1
  15    9   10 1
  16    9   33 1
  17    9   34 1
  18   10   11 1
  19   10   35 1
  20   10   36 1
  21   11   12 1
  22   11   18 1
  23   12   17 ar
  24   12   13 ar
  25   13   14 ar
  26   14   15 ar
  27   14   37 1
  28   15   16 ar
  29   15   38 1
  30   16   17 ar
  31   16   39 1
  32   18   19 1
  33   18   40 1
  34   18   41 1
  35   19   42 1
  36   19   43 1
  37   20   21 1
  38   20   44 1
  39   20   45 1
  40   21   22 1
  41   21   23 1
  42   24   30 1
  43   24   25 1
  44   25   26 1
  45   25   46 1
  46   25   47 1
  47   26   27 1
  48   26   48 1
  49   26   49 1
  50   27   28 1
  51   27   29 1
  52   27   30 1
  53   30   50 1
  54   30   51 1
