@<TRIPOS>MOLECULE
ZINC000002322660
91    92    1     0     0
SMALL
USER_CHARGES
@<TRIPOS>ATOM
1      C1     -0.0187    1.5258    0.0104 C.3      1 ZINC000002322660   -0.1500
2      C2      0.0021   -0.0041    0.0020 C.3      1 ZINC000002322660   -0.0200
3      C3      0.7421   -0.5109    1.2415 C.3      1 ZINC000002322660   -0.1400
4      C4     -1.4333   -0.5336    0.0129 C.3      1 ZINC000002322660   -0.1400
5      C5      0.7074   -0.4901   -1.2379 C.ar     1 ZINC000002322660   -0.0900
6      C6      1.2168    0.4191   -2.1447 C.ar     1 ZINC000002322660   -0.1100
7      C7      1.8645   -0.0262   -3.2822 C.ar     1 ZINC000002322660   -0.0900
8      C8      2.4191    0.9679   -4.2698 C.3      1 ZINC000002322660   -0.0700
9      C9      3.8615    1.3112   -3.8924 C.3      1 ZINC000002322660   -0.1000
10     C10     4.4246    2.3204   -4.8951 C.3      1 ZINC000002322660   -0.0900
11     S11     6.1348    2.7275   -4.4475 S.3      1 ZINC000002322660   -0.2600
12     C12     6.6203    3.9154   -5.7296 C.3      1 ZINC000002322660   -0.0900
13     C13     8.0634    4.3636   -5.4895 C.3      1 ZINC000002322660   -0.1000
14     C14     8.4729    5.3655   -6.5708 C.3      1 ZINC000002322660   -0.0700
15     C15     9.8943    5.8069   -6.3343 C.ar     1 ZINC000002322660   -0.0900
16     C16    10.1518    6.9061   -5.5361 C.ar     1 ZINC000002322660   -0.1100
17     C17    11.4539    7.3125   -5.3173 C.ar     1 ZINC000002322660   -0.0900
18     C18    11.7339    8.5103   -4.4468 C.3      1 ZINC000002322660   -0.0200
19     C19    10.4132    9.0883   -3.9344 C.3      1 ZINC000002322660   -0.1500
20     C20    12.6000    8.0863   -3.2590 C.3      1 ZINC000002322660   -0.1400
21     C21    12.4728    9.5726   -5.2633 C.3      1 ZINC000002322660   -0.1400
22     C22    12.5035    6.6167   -5.8993 C.ar     1 ZINC000002322660    0.1100
23     O23    13.7853    7.0142   -5.6853 O.3      1 ZINC000002322660   -0.4900
24     C24    12.2425    5.5141   -6.6998 C.ar     1 ZINC000002322660   -0.0900
25     C25    13.3803    4.7559   -7.3336 C.3      1 ZINC000002322660   -0.0200
26     C26    12.8223    3.5946   -8.1588 C.3      1 ZINC000002322660   -0.1500
27     C27    14.1734    5.6945   -8.2451 C.3      1 ZINC000002322660   -0.1400
28     C28    14.3003    4.2089   -6.2403 C.3      1 ZINC000002322660   -0.1400
29     C29    10.9389    5.1086   -6.9112 C.ar     1 ZINC000002322660   -0.1100
30     C30     2.0045   -1.3819   -3.5150 C.ar     1 ZINC000002322660   -0.1100
31     C31     1.4970   -2.2951   -2.6112 C.ar     1 ZINC000002322660   -0.0900
32     C32     1.6505   -3.7726   -2.8652 C.3      1 ZINC000002322660   -0.0200
33     C33     2.3995   -3.9886   -4.1817 C.3      1 ZINC000002322660   -0.1500
34     C34     2.4401   -4.4078   -1.7190 C.3      1 ZINC000002322660   -0.1400
35     C35     0.2676   -4.4214   -2.9528 C.3      1 ZINC000002322660   -0.1400
36     C36     0.8509   -1.8508   -1.4667 C.ar     1 ZINC000002322660    0.1100
37     O37     0.3511   -2.7472   -0.5758 O.3      1 ZINC000002322660   -0.4900
38     H38     1.0039    1.9031    0.0027 H        1 ZINC000002322660    0.0600
39     H39    -0.5459    1.8868   -0.8726 H        1 ZINC000002322660    0.0600
40     H40    -0.5289    1.8773    0.9072 H        1 ZINC000002322660    0.0600
41     H41     0.2319   -0.1594    2.1383 H        1 ZINC000002322660    0.0600
42     H42     0.7568   -1.6008    1.2356 H        1 ZINC000002322660    0.0600
43     H43     1.7647   -0.1336    1.2338 H        1 ZINC000002322660    0.0500
44     H44    -1.9605   -0.1726   -0.8702 H        1 ZINC000002322660    0.0500
45     H45    -1.4185   -1.6235    0.0069 H        1 ZINC000002322660    0.0700
46     H46    -1.9435   -0.1821    0.9097 H        1 ZINC000002322660    0.0500
47     H47     1.1086    1.4786   -1.9652 H        1 ZINC000002322660    0.1300
48     H48     2.3983    0.5361   -5.2705 H        1 ZINC000002322660    0.0700
49     H49     1.8135    1.8739   -4.2524 H        1 ZINC000002322660    0.0700
50     H50     3.8823    1.7430   -2.8918 H        1 ZINC000002322660    0.0700
51     H51     4.4672    0.4052   -3.9098 H        1 ZINC000002322660    0.0700
52     H52     4.4039    1.8887   -5.8957 H        1 ZINC000002322660    0.0800
53     H53     3.8190    3.2265   -4.8777 H        1 ZINC000002322660    0.0800
54     H54     6.5446    3.4438   -6.7094 H        1 ZINC000002322660    0.0800
55     H55     5.9597    4.7816   -5.6913 H        1 ZINC000002322660    0.0800
56     H56     8.1391    4.8352   -4.5097 H        1 ZINC000002322660    0.0700
57     H57     8.7240    3.4974   -5.5278 H        1 ZINC000002322660    0.0700
58     H58     8.3972    4.8938   -7.5506 H        1 ZINC000002322660    0.0700
59     H59     7.8123    6.2317   -6.5325 H        1 ZINC000002322660    0.0700
60     H60     9.3343    7.4477   -5.0835 H        1 ZINC000002322660    0.1300
61     H61     9.8867    8.3316   -3.3528 H        1 ZINC000002322660    0.0600
62     H62    10.6157    9.9547   -3.3048 H        1 ZINC000002322660    0.0600
63     H63     9.7962    9.3905   -4.7807 H        1 ZINC000002322660    0.0600
64     H64    13.5409    7.6745   -3.6240 H        1 ZINC000002322660    0.0600
65     H65    12.8025    8.9527   -2.6293 H        1 ZINC000002322660    0.0600
66     H66    12.0735    7.3295   -2.6773 H        1 ZINC000002322660    0.0500
67     H67    11.8558    9.8747   -6.1095 H        1 ZINC000002322660    0.0500
68     H68    12.6754   10.4390   -4.6336 H        1 ZINC000002322660    0.0500
69     H69    13.4137    9.1608   -5.6283 H        1 ZINC000002322660    0.0700
70     H70    14.2009    6.6038   -4.9146 H        1 ZINC000002322660    0.3800
71     H71    12.1669    3.9843   -8.9377 H        1 ZINC000002322660    0.0600
72     H72    13.6453    3.0463   -8.6172 H        1 ZINC000002322660    0.0600
73     H73    12.2573    2.9260   -7.5094 H        1 ZINC000002322660    0.0600
74     H74    14.5709    6.5218   -7.6572 H        1 ZINC000002322660    0.0700
75     H75    14.9964    5.1461   -8.7035 H        1 ZINC000002322660    0.0500
76     H76    13.5180    6.0842   -9.0240 H        1 ZINC000002322660    0.0500
77     H77    13.7352    3.5403   -5.5909 H        1 ZINC000002322660    0.0500
78     H78    15.1232    3.6606   -6.6987 H        1 ZINC000002322660    0.0600
79     H79    14.6978    5.0362   -5.6524 H        1 ZINC000002322660    0.0600
80     H80    10.7351    4.2503   -7.5343 H        1 ZINC000002322660    0.1300
81     H81     2.5109   -1.7272   -4.4042 H        1 ZINC000002322660    0.1300
82     H82     3.3846   -3.5264   -4.1193 H        1 ZINC000002322660    0.0600
83     H83     2.5105   -5.0573   -4.3655 H        1 ZINC000002322660    0.0600
84     H84     1.8369   -3.5361   -4.9983 H        1 ZINC000002322660    0.0600
85     H85     1.9066   -4.2539   -0.7811 H        1 ZINC000002322660    0.0600
86     H86     2.5512   -5.4764   -1.9027 H        1 ZINC000002322660    0.0600
87     H87     3.4253   -3.9456   -1.6566 H        1 ZINC000002322660    0.0500
88     H88    -0.2950   -3.9688   -3.7694 H        1 ZINC000002322660    0.0500
89     H89     0.3786   -5.4900   -3.1365 H        1 ZINC000002322660    0.0500
90     H90    -0.2660   -4.2674   -2.0149 H        1 ZINC000002322660    0.0700
91     H91     0.9761   -3.0047    0.1157 H        1 ZINC000002322660    0.3800
@<TRIPOS>BOND
1     1     2     1
2     1     38    1
3     1     39    1
4     1     40    1
5     2     3     1
6     2     4     1
7     2     5     1
8     3     41    1
9     3     42    1
10    3     43    1
11    4     44    1
12    4     45    1
13    4     46    1
14    5     36    ar
15    5     6     ar
16    6     7     ar
17    6     47    1
18    7     8     1
19    7     30    ar
20    8     9     1
21    8     48    1
22    8     49    1
23    9     10    1
24    9     50    1
25    9     51    1
26    10    11    1
27    10    52    1
28    10    53    1
29    11    12    1
30    12    13    1
31    12    54    1
32    12    55    1
33    13    14    1
34    13    56    1
35    13    57    1
36    14    15    1
37    14    58    1
38    14    59    1
39    15    29    ar
40    15    16    ar
41    16    17    ar
42    16    60    1
43    17    18    1
44    17    22    ar
45    18    19    1
46    18    20    1
47    18    21    1
48    19    61    1
49    19    62    1
50    19    63    1
51    20    64    1
52    20    65    1
53    20    66    1
54    21    67    1
55    21    68    1
56    21    69    1
57    22    23    1
58    22    24    ar
59    23    70    1
60    24    25    1
61    24    29    ar
62    25    26    1
63    25    27    1
64    25    28    1
65    26    71    1
66    26    72    1
67    26    73    1
68    27    74    1
69    27    75    1
70    27    76    1
71    28    77    1
72    28    78    1
73    28    79    1
74    29    80    1
75    30    31    ar
76    30    81    1
77    31    32    1
78    31    36    ar
79    32    33    1
80    32    34    1
81    32    35    1
82    33    82    1
83    33    83    1
84    33    84    1
85    34    85    1
86    34    86    1
87    34    87    1
88    35    88    1
89    35    89    1
90    35    90    1
91    36    37    1
92    37    91    1
@<TRIPOS>SUBSTRUCTURE
1   ZINC000002322660 1     RESIDUE    1   A     ZIN   1
