@<TRIPOS>MOLECULE
ZINC000014141521
89    89    1     0     0
SMALL
USER_CHARGES
@<TRIPOS>ATOM
1      C1     -6.1003    0.5190   -3.9928 C.3      1 ZINC000014141521   -0.1500
2      C2     -5.7794   -0.9654   -3.8076 C.3      1 ZINC000014141521   -0.1300
3      C3     -4.8142   -1.4193   -4.9045 C.3      1 ZINC000014141521   -0.1200
4      C4     -4.4934   -2.9038   -4.7193 C.3      1 ZINC000014141521   -0.1200
5      C5     -3.5282   -3.3577   -5.8162 C.3      1 ZINC000014141521   -0.1200
6      C6     -3.2073   -4.8421   -5.6310 C.3      1 ZINC000014141521   -0.1200
7      C7     -2.2421   -5.2960   -6.7280 C.3      1 ZINC000014141521   -0.1200
8      C8     -1.9213   -6.7805   -6.5428 C.3      1 ZINC000014141521   -0.1200
9      C9     -0.9561   -7.2344   -7.6397 C.3      1 ZINC000014141521   -0.1200
10     C10    -0.6352   -8.7188   -7.4545 C.3      1 ZINC000014141521   -0.1200
11     C11     0.3300   -9.1727   -8.5514 C.3      1 ZINC000014141521   -0.1200
12     C12     0.6508  -10.6572   -8.3662 C.3      1 ZINC000014141521   -0.1200
13     C13     1.6161  -11.1111   -9.4632 C.3      1 ZINC000014141521   -0.1200
14     C14     1.9369  -12.5955   -9.2780 C.3      1 ZINC000014141521   -0.1200
15     C15     2.9021  -13.0494  -10.3749 C.3      1 ZINC000014141521   -0.1200
16     C16     3.2230  -14.5339  -10.1897 C.3      1 ZINC000014141521    0.0600
17     O17     4.1245  -14.9578  -11.2142 O.3      1 ZINC000014141521   -0.3900
18     C18     4.4903  -16.3367  -11.1324 C.3      1 ZINC000014141521    0.0600
19     C19     5.4526  -16.6775  -12.2720 C.3      1 ZINC000014141521   -0.1300
20     C20     5.8443  -18.1539  -12.1845 C.3      1 ZINC000014141521    0.1400
21     O21     6.7431  -18.4723  -13.2489 O.3      1 ZINC000014141521   -0.7700
22     P22     7.3610  -19.9432  -13.4644 P.3      1 ZINC000014141521    2.2300
23     O23     6.2145  -20.9745  -13.5599 O.co2    1 ZINC000014141521   -1.0500
24     O24     8.2747  -20.2981  -12.2702 O.co2    1 ZINC000014141521   -1.0800
25     C25     8.3352  -19.9733  -15.0050 C.3      1 ZINC000014141521   -0.5400
26     O26     8.7725  -21.3085  -15.2661 O.3      1 ZINC000014141521   -0.3100
27     C27     9.8573  -21.7367  -14.4403 C.3      1 ZINC000014141521    0.0400
28     H28     9.7743  -21.2685  -13.4596 H        1 ZINC000014141521    0.1200
29     C29    11.1826  -21.3313  -15.0885 C.3      1 ZINC000014141521    0.0600
30     O30    11.3409  -22.0289  -16.3256 O.3      1 ZINC000014141521   -0.5600
31     C31     9.8101  -23.2581  -14.2847 C.3      1 ZINC000014141521    0.1100
32     N32     8.5411  -23.6463  -13.6641 N.am     1 ZINC000014141521   -0.5200
33     C33     8.4469  -23.7264  -12.3071 C.2      1 ZINC000014141521    0.2100
34     C34     7.2685  -24.0859  -11.7452 C.2      1 ZINC000014141521   -0.3100
35     C35     6.1700  -24.3678  -12.5831 C.2      1 ZINC000014141521    0.5100
36     N36     4.9611  -24.7349  -12.0389 N.pl3    1 ZINC000014141521   -0.8300
37     N37     6.3089  -24.2765  -13.8993 N.2      1 ZINC000014141521   -0.6000
38     C38     7.4731  -23.9166  -14.4368 C.2      1 ZINC000014141521    0.6800
39     O39     7.5755  -23.8395  -15.6499 O.2      1 ZINC000014141521   -0.5500
40     H40    -5.1802    1.1002   -3.9304 H        1 ZINC000014141521    0.0500
41     H41    -6.5613    0.6721   -4.9685 H        1 ZINC000014141521    0.0500
42     H42    -6.7879    0.8424   -3.2113 H        1 ZINC000014141521    0.0500
43     H43    -5.3184   -1.1185   -2.8318 H        1 ZINC000014141521    0.0600
44     H44    -6.6995   -1.5465   -3.8699 H        1 ZINC000014141521    0.0600
45     H45    -5.2752   -1.2662   -5.8803 H        1 ZINC000014141521    0.0600
46     H46    -3.8942   -0.8382   -4.8421 H        1 ZINC000014141521    0.0600
47     H47    -4.0324   -3.0569   -3.7435 H        1 ZINC000014141521    0.0600
48     H48    -5.4135   -3.4849   -4.7816 H        1 ZINC000014141521    0.0600
49     H49    -3.9892   -3.2046   -6.7920 H        1 ZINC000014141521    0.0600
50     H50    -2.6081   -2.7765   -5.7539 H        1 ZINC000014141521    0.0600
51     H51    -2.7463   -4.9952   -4.6552 H        1 ZINC000014141521    0.0600
52     H52    -4.1274   -5.4232   -5.6934 H        1 ZINC000014141521    0.0600
53     H53    -2.7031   -5.1429   -7.7037 H        1 ZINC000014141521    0.0600
54     H54    -1.3221   -4.7149   -6.6656 H        1 ZINC000014141521    0.0600
55     H55    -1.4603   -6.9336   -5.5670 H        1 ZINC000014141521    0.0600
56     H56    -2.8413   -7.3616   -6.6051 H        1 ZINC000014141521    0.0600
57     H57    -1.4171   -7.0813   -8.6155 H        1 ZINC000014141521    0.0600
58     H58    -0.0360   -6.6532   -7.5773 H        1 ZINC000014141521    0.0600
59     H59    -0.1742   -8.8719   -6.4787 H        1 ZINC000014141521    0.0600
60     H60    -1.5553   -9.2999   -7.5168 H        1 ZINC000014141521    0.0600
61     H61    -0.1310   -9.0196   -9.5272 H        1 ZINC000014141521    0.0600
62     H62     1.2501   -8.5916   -8.4891 H        1 ZINC000014141521    0.0600
63     H63     1.1118  -10.8103   -7.3904 H        1 ZINC000014141521    0.0600
64     H64    -0.2692  -11.2383   -8.4286 H        1 ZINC000014141521    0.0600
65     H65     1.1551  -10.9579  -10.4389 H        1 ZINC000014141521    0.0600
66     H66     2.5361  -10.5299   -9.4008 H        1 ZINC000014141521    0.0600
67     H67     2.3979  -12.7486   -8.3022 H        1 ZINC000014141521    0.0600
68     H68     1.0168  -13.1766   -9.3403 H        1 ZINC000014141521    0.0600
69     H69     2.4411  -12.8963  -11.3507 H        1 ZINC000014141521    0.0700
70     H70     3.8222  -12.4683  -10.3125 H        1 ZINC000014141521    0.0700
71     H71     3.6840  -14.6870   -9.2139 H        1 ZINC000014141521    0.0500
72     H72     2.3029  -15.1150  -10.2520 H        1 ZINC000014141521    0.0500
73     H73     4.9776  -16.5272  -10.1762 H        1 ZINC000014141521    0.0500
74     H74     3.5965  -16.9553  -11.2143 H        1 ZINC000014141521    0.0500
75     H75     4.9653  -16.4870  -13.2283 H        1 ZINC000014141521    0.0800
76     H76     6.3464  -16.0590  -12.1901 H        1 ZINC000014141521    0.0700
77     H77     6.3316  -18.3445  -11.2282 H        1 ZINC000014141521    0.0500
78     H78     4.9505  -18.7725  -12.2664 H        1 ZINC000014141521    0.0600
79     H79     7.7173  -19.6250  -15.8326 H        1 ZINC000014141521    0.0900
80     H80     9.2022  -19.3212  -14.8994 H        1 ZINC000014141521    0.0400
81     H81    11.1825  -20.2572  -15.2745 H        1 ZINC000014141521    0.0400
82     H82    12.0061  -21.5843  -14.4207 H        1 ZINC000014141521    0.0500
83     H83    12.1615  -21.8201  -16.7926 H        1 ZINC000014141521    0.3700
84     H84     9.8932  -23.7264  -15.2655 H        1 ZINC000014141521    0.1100
85     H85    10.6376  -23.5847  -13.6549 H        1 ZINC000014141521    0.0900
86     H86     9.3028  -23.5059  -11.6864 H        1 ZINC000014141521    0.1600
87     H87     7.1716  -24.1561  -10.6718 H        1 ZINC000014141521    0.1400
88     H88     4.8625  -24.8004  -11.0762 H        1 ZINC000014141521    0.4100
89     H89     4.2073  -24.9281  -12.6179 H        1 ZINC000014141521    0.4000
@<TRIPOS>BOND
1     1     2     1
2     1     40    1
3     1     41    1
4     1     42    1
5     2     3     1
6     2     43    1
7     2     44    1
8     3     4     1
9     3     45    1
10    3     46    1
11    4     5     1
12    4     47    1
13    4     48    1
14    5     6     1
15    5     49    1
16    5     50    1
17    6     7     1
18    6     51    1
19    6     52    1
20    7     8     1
21    7     53    1
22    7     54    1
23    8     9     1
24    8     55    1
25    8     56    1
26    9     10    1
27    9     57    1
28    9     58    1
29    10    11    1
30    10    59    1
31    10    60    1
32    11    12    1
33    11    61    1
34    11    62    1
35    12    13    1
36    12    63    1
37    12    64    1
38    13    14    1
39    13    65    1
40    13    66    1
41    14    15    1
42    14    67    1
43    14    68    1
44    15    16    1
45    15    69    1
46    15    70    1
47    16    17    1
48    16    71    1
49    16    72    1
50    17    18    1
51    18    19    1
52    18    73    1
53    18    74    1
54    19    20    1
55    19    75    1
56    19    76    1
57    20    21    1
58    20    77    1
59    20    78    1
60    21    22    1
61    22    23    ar
62    22    24    ar
63    22    25    1
64    25    26    1
65    25    79    1
66    25    80    1
67    26    27    1
68    27    28    1
69    27    29    1
70    27    31    1
71    29    30    1
72    29    81    1
73    29    82    1
74    30    83    1
75    31    32    1
76    31    84    1
77    31    85    1
78    32    38    am
79    32    33    1
80    33    34    2
81    33    86    1
82    34    35    1
83    34    87    1
84    35    36    1
85    35    37    2
86    36    88    1
87    36    89    1
88    37    38    1
89    38    39    2
@<TRIPOS>SUBSTRUCTURE
1   ZINC000014141521 1     RESIDUE    1   A     ZIN   1
