@<TRIPOS>MOLECULE
ZINC000199107019
40    42    1     0     0
SMALL
USER_CHARGES
@<TRIPOS>ATOM
1      C1      0.5685   -0.8798    1.5007 C.3      1 ZINC000199107019   -0.1400
2      C2      0.0840   -0.2809    0.1788 C.3      1 ZINC000199107019   -0.1400
3      C3      0.9264   -0.8358   -0.9717 C.3      1 ZINC000199107019   -0.1100
4      S4     -1.6534   -0.7174   -0.0805 S.3      1 ZINC000199107019   -0.0600
5      C5     -2.3658   -0.0103    1.3677 C.ar     1 ZINC000199107019    0.0000
6      C6     -1.6002    0.7633    2.2387 C.ar     1 ZINC000199107019   -0.1400
7      C7     -2.1947    1.2998    3.3615 C.ar     1 ZINC000199107019    0.1100
8      N8     -3.4728    1.0932    3.6236 N.ar     1 ZINC000199107019   -0.5000
9      C9     -4.2415    0.3703    2.8341 C.ar     1 ZINC000199107019    0.1200
10     C10    -3.7266   -0.2058    1.6750 C.ar     1 ZINC000199107019   -0.1300
11     C11    -4.5895   -1.0162    0.7896 C.ar     1 ZINC000199107019    0.0300
12     C12    -4.3327   -2.3993    0.6283 C.ar     1 ZINC000199107019   -0.0400
13     C13    -3.2693   -3.0251    1.2947 C.ar     1 ZINC000199107019   -0.0700
14     C14    -3.0526   -4.3585    1.1157 C.ar     1 ZINC000199107019   -0.1300
15     C15    -3.8722   -5.1111    0.2790 C.ar     1 ZINC000199107019   -0.0900
16     C16    -4.9143   -4.5335   -0.3838 C.ar     1 ZINC000199107019   -0.1200
17     C17    -5.1649   -3.1654   -0.2211 C.ar     1 ZINC000199107019    0.0000
18     C18    -6.2719   -2.5065   -0.9126 C.ar     1 ZINC000199107019   -0.0500
19     C19    -7.1333   -3.2517   -1.7804 C.1      1 ZINC000199107019    0.2700
20     N20    -7.8167   -3.8429   -2.4689 N.1      1 ZINC000199107019   -0.4300
21     C21    -6.4759   -1.1444   -0.7145 C.ar     1 ZINC000199107019   -0.0400
22     C22    -5.6495   -0.4202    0.1256 C.ar     1 ZINC000199107019   -0.1200
23     C23     0.2236    1.2189    0.2256 C.2      1 ZINC000199107019    0.5000
24     O24     1.3205    1.7241    0.3934 O.co2    1 ZINC000199107019   -0.6800
25     O25    -0.7604    1.9270    0.0958 O.co2    1 ZINC000199107019   -0.6600
26     H26     1.5555   -0.4833    1.7390 H        1 ZINC000199107019    0.0700
27     H27    -0.1298   -0.6182    2.2957 H        1 ZINC000199107019    0.0600
28     H28     0.6251   -1.9645    1.4091 H        1 ZINC000199107019    0.0500
29     H29     0.7729   -1.9122   -1.0481 H        1 ZINC000199107019    0.0500
30     H30     0.6262   -0.3589   -1.9047 H        1 ZINC000199107019    0.0600
31     H31     1.9801   -0.6316   -0.7818 H        1 ZINC000199107019    0.0700
32     H32    -0.5541    0.9400    2.0369 H        1 ZINC000199107019    0.1600
33     H33    -1.6046    1.8993    4.0388 H        1 ZINC000199107019    0.1500
34     H34    -5.2817    0.2262    3.0863 H        1 ZINC000199107019    0.1500
35     H35    -2.6252   -2.4531    1.9461 H        1 ZINC000199107019    0.1300
36     H36    -2.2330   -4.8383    1.6300 H        1 ZINC000199107019    0.1300
37     H37    -3.6799   -6.1664    0.1531 H        1 ZINC000199107019    0.1200
38     H38    -5.5427   -5.1276   -1.0307 H        1 ZINC000199107019    0.1200
39     H39    -7.2906   -0.6476   -1.2204 H        1 ZINC000199107019    0.1400
40     H40    -5.8305    0.6358    0.2617 H        1 ZINC000199107019    0.1400
@<TRIPOS>BOND
1     1     2     1
2     1     26    1
3     1     27    1
4     1     28    1
5     2     3     1
6     2     4     1
7     2     23    1
8     3     29    1
9     3     30    1
10    3     31    1
11    4     5     1
12    5     10    ar
13    5     6     ar
14    6     7     ar
15    6     32    1
16    7     8     ar
17    7     33    1
18    8     9     ar
19    9     10    ar
20    9     34    1
21    10    11    1
22    11    22    ar
23    11    12    ar
24    12    17    ar
25    12    13    ar
26    13    14    ar
27    13    35    1
28    14    15    ar
29    14    36    1
30    15    16    ar
31    15    37    1
32    16    17    ar
33    16    38    1
34    17    18    ar
35    18    19    1
36    18    21    ar
37    19    20    3
38    21    22    ar
39    21    39    1
40    22    40    1
41    23    24    ar
42    23    25    ar
@<TRIPOS>SUBSTRUCTURE
1   ZINC000199107019 1     RESIDUE    1   A     ZIN   1
