@<TRIPOS>MOLECULE
ZINC000000900788
  15   15    0    0    0
SMALL
USER_CHARGES
NO_NAME
@<TRIPOS>ATOM
    1 O1        0.0021    -0.0041     0.0020 O.2    1 <0>      -0.4500
    2 C2       -0.0144     1.2102     0.0087 C.2    1 <0>       0.4100
    3 C3        1.1997     1.9334     0.0010 C.2    1 <0>      -0.1200
    4 C4        1.3283     3.3080     0.0127 C.2    1 <0>      -0.1200
    5 C5        2.7028     3.5797    -0.0013 C.2    1 <0>      -0.2000
    6 C6        3.3463     2.3898    -0.0206 C.2    1 <0>       0.0200
    7 C7        4.8417     2.2046    -0.0405 C.3    1 <0>       0.1500
    8 O8        5.3307     2.1331     1.3004 O.3    1 <0>      -0.5600
    9 O9        2.4416     1.4036    -0.0132 O.3    1 <0>      -0.1400
   10 H10      -0.9569     1.7374     0.0160 H      1 <0>       0.1400
   11 H11       0.5268     4.0317     0.0290 H      1 <0>       0.1700
   12 H12       3.1628     4.5569     0.0022 H      1 <0>       0.1600
   13 H13       5.0866     1.2817    -0.5662 H      1 <0>       0.0700
   14 H14       5.3055     3.0481    -0.5519 H      1 <0>       0.0900
   15 H15       6.2882     2.0139     1.3640 H      1 <0>       0.3900
@<TRIPOS>BOND
   1    1    2 2
   2    2    3 1
   3    2   10 1
   4    3    9 1
   5    3    4 2
   6    4    5 1
   7    4   11 1
   8    5    6 2
   9    5   12 1
  10    6    7 1
  11    6    9 1
  12    7    8 1
  13    7   13 1
  14    7   14 1
  15    8   15 1
