@<TRIPOS>MOLECULE
ZINC000068267049
62    66    1     0     0
SMALL
USER_CHARGES
@<TRIPOS>ATOM
1      C1     -0.0184    1.5028    0.0103 C.3      1 ZINC000068267049   -0.0600
2      C2      0.0021   -0.0041    0.0020 C.2      1 ZINC000068267049    0.2200
3      N3      0.0074   -0.7553   -1.0680 N.2      1 ZINC000068267049   -0.3200
4      N4      0.0275   -2.0903   -0.6327 N.pl3    1 ZINC000068267049   -0.3500
5      C5      0.0399   -3.2892   -1.4746 C.3      1 ZINC000068267049    0.1400
6      C6     -1.2135   -3.3095   -2.3518 C.3      1 ZINC000068267049   -0.1600
7      C7      1.2847   -3.2749   -2.3641 C.3      1 ZINC000068267049   -0.1600
8      C8      0.0331   -2.0479    0.7198 C.2      1 ZINC000068267049    0.3700
9      C9      0.0531   -3.2141    1.6283 C.2      1 ZINC000068267049    0.0400
10     C10     0.0532   -3.1674    2.9929 C.2      1 ZINC000068267049    0.0500
11     N11     0.0811   -4.4507    3.4297 N.pl3    1 ZINC000068267049   -0.4500
12     C12     0.1194   -4.9675    4.7972 C.3      1 ZINC000068267049    0.0600
13     C13    -1.2035   -5.6587    5.1373 C.3      1 ZINC000068267049    0.0600
14     O14    -1.6417   -6.4745    4.0507 O.3      1 ZINC000068267049   -0.3300
15     C15    -0.7782   -7.2942    3.4085 C.ar     1 ZINC000068267049    0.1300
16     C16    -0.7298   -8.6491    3.6570 C.ar     1 ZINC000068267049   -0.1300
17     C17     0.1467   -9.4555    2.9313 C.ar     1 ZINC000068267049    0.0500
18     C18     0.2001  -10.9138    3.1993 C.2      1 ZINC000068267049   -0.2200
19     C19     1.0078  -11.8199    2.5747 C.2      1 ZINC000068267049    0.1200
20     N20     0.7492  -13.0312    3.1067 N.pl3    1 ZINC000068267049   -0.3600
21     C21     1.3940  -14.2909    2.7277 C.3      1 ZINC000068267049    0.1700
22     C22     1.1084  -15.3508    3.7934 C.3      1 ZINC000068267049   -0.1400
23     C23     0.8425  -14.7610    1.3802 C.3      1 ZINC000068267049   -0.1600
24     C24     2.8819  -14.0797    2.6154 C.2      1 ZINC000068267049    0.5100
25     N25     3.6847  -15.1076    2.2757 N.am     1 ZINC000068267049   -0.8400
26     O26     3.3569  -12.9847    2.8307 O.2      1 ZINC000068267049   -0.5200
27     N27    -0.2412  -12.8779    4.0843 N.2      1 ZINC000068267049   -0.2900
28     C28    -0.5692  -11.6148    4.1490 C.2      1 ZINC000068267049    0.0700
29     C29     0.9732   -8.8993    1.9548 C.ar     1 ZINC000068267049   -0.1300
30     C30     0.9440   -7.5410    1.7143 C.ar     1 ZINC000068267049   -0.0500
31     C31     0.0882   -6.7324    2.4488 C.ar     1 ZINC000068267049   -0.0700
32     C32     0.0818   -5.2606    2.3174 C.2      1 ZINC000068267049    0.2700
33     N33     0.0685   -4.5122    1.2527 N.2      1 ZINC000068267049   -0.4500
34     N34     0.0233   -0.7804    1.0825 N.2      1 ZINC000068267049   -0.5400
35     H35     1.0042    1.8801    0.0026 H        1 ZINC000068267049    0.0800
36     H36    -0.5455    1.8639   -0.8728 H        1 ZINC000068267049    0.0800
37     H37    -0.5286    1.8543    0.9071 H        1 ZINC000068267049    0.0800
38     H38     0.0553   -4.1770   -0.8423 H        1 ZINC000068267049    0.1300
39     H39    -1.2043   -4.2015   -2.9781 H        1 ZINC000068267049    0.0800
40     H40    -2.1003   -3.3197   -1.7181 H        1 ZINC000068267049    0.0600
41     H41    -1.2289   -2.4217   -2.9840 H        1 ZINC000068267049    0.0700
42     H42     2.1777   -3.2605   -1.7392 H        1 ZINC000068267049    0.0600
43     H43     1.2940   -4.1669   -2.9904 H        1 ZINC000068267049    0.0800
44     H44     1.2693   -2.3872   -2.9963 H        1 ZINC000068267049    0.0700
45     H45     0.0350   -2.2788    3.6065 H        1 ZINC000068267049    0.1900
46     H46     0.9356   -5.6839    4.8899 H        1 ZINC000068267049    0.1000
47     H47     0.2848   -4.1428    5.4905 H        1 ZINC000068267049    0.1200
48     H48    -1.0661   -6.2817    6.0211 H        1 ZINC000068267049    0.0800
49     H49    -1.9602   -4.9025    5.3463 H        1 ZINC000068267049    0.1100
50     H50    -1.3683   -9.0847    4.4113 H        1 ZINC000068267049    0.1400
51     H51     1.7238  -11.6052    1.7952 H        1 ZINC000068267049    0.1800
52     H52     0.0322  -15.5036    3.8747 H        1 ZINC000068267049    0.0900
53     H53     1.5882  -16.2881    3.5115 H        1 ZINC000068267049    0.0800
54     H54     1.5013  -15.0160    4.7534 H        1 ZINC000068267049    0.0700
55     H55     1.0460  -14.0058    0.6209 H        1 ZINC000068267049    0.0700
56     H56     1.3223  -15.6982    1.0982 H        1 ZINC000068267049    0.0900
57     H57    -0.2337  -14.9137    1.4614 H        1 ZINC000068267049    0.0800
58     H58     3.3048  -15.9833    2.1035 H        1 ZINC000068267049    0.4100
59     H59     4.6424  -14.9716    2.2034 H        1 ZINC000068267049    0.4100
60     H60    -1.3068  -11.1842    4.8101 H        1 ZINC000068267049    0.1900
61     H61     1.6375   -9.5331    1.3862 H        1 ZINC000068267049    0.1300
62     H62     1.5832   -7.1096    0.9581 H        1 ZINC000068267049    0.1400
@<TRIPOS>BOND
1     1     2     1
2     1     35    1
3     1     36    1
4     1     37    1
5     2     34    1
6     2     3     2
7     3     4     1
8     4     5     1
9     4     8     1
10    5     6     1
11    5     7     1
12    5     38    1
13    6     39    1
14    6     40    1
15    6     41    1
16    7     42    1
17    7     43    1
18    7     44    1
19    8     9     1
20    8     34    2
21    9     33    1
22    9     10    2
23    10    11    1
24    10    45    1
25    11    32    1
26    11    12    1
27    12    13    1
28    12    46    1
29    12    47    1
30    13    14    1
31    13    48    1
32    13    49    1
33    14    15    1
34    15    31    ar
35    15    16    ar
36    16    17    ar
37    16    50    1
38    17    18    1
39    17    29    ar
40    18    28    1
41    18    19    2
42    19    20    1
43    19    51    1
44    20    21    1
45    20    27    1
46    21    22    1
47    21    23    1
48    21    24    1
49    22    52    1
50    22    53    1
51    22    54    1
52    23    55    1
53    23    56    1
54    23    57    1
55    24    25    am
56    24    26    2
57    25    58    1
58    25    59    1
59    27    28    2
60    28    60    1
61    29    30    ar
62    29    61    1
63    30    31    ar
64    30    62    1
65    31    32    1
66    32    33    2
@<TRIPOS>SUBSTRUCTURE
1   ZINC000068267049 1     RESIDUE    1   A     ZIN   1
