@<TRIPOS>MOLECULE
ZINC000026746094
  38   41    0    0    0
SMALL
USER_CHARGES
NO_NAME
@<TRIPOS>ATOM
    1 O1       -0.0164     1.3558     0.0095 O.3    1 <0>      -0.4800
    2 C2        0.0021    -0.0041     0.0020 C.ar   1 <0>       0.1000
    3 C3       -0.0413    -0.6918    -1.1957 C.ar   1 <0>      -0.1300
    4 C4        0.0316    -2.0778    -1.2199 C.ar   1 <0>      -0.0700
    5 C5        0.1733    -2.7897    -0.0432 C.ar   1 <0>      -0.0700
    6 C6        0.0741    -2.1020     1.1594 C.ar   1 <0>      -0.1300
    7 C7        0.0231    -0.7185     1.1941 C.ar   1 <0>       0.0900
    8 O8       -0.0006    -0.0614     2.3842 O.3    1 <0>      -0.4800
    9 C9        0.4682    -4.2567    -0.0297 C.3    1 <0>       0.0000
   10 H10      -0.4146    -4.7740     0.3565 H      1 <0>       0.1100
   11 C11       1.6457    -4.6861     0.7980 C.ar   1 <0>      -0.0700
   12 C12       1.9633    -4.0699     1.9894 C.ar   1 <0>      -0.1100
   13 C13       3.0578    -4.4739     2.7391 C.ar   1 <0>      -0.0900
   14 C14       3.8505    -5.5076     2.2902 C.ar   1 <0>      -0.1000
   15 C15       3.5332    -6.1420     1.1086 C.ar   1 <0>      -0.0900
   16 C16       2.4264    -5.7505     0.3658 C.ar   1 <0>      -0.1400
   17 C17       2.1270    -6.5431    -0.8804 C.3    1 <0>       0.0500
   18 N18       0.7993    -6.2153    -1.4204 N.4    1 <0>      -0.5000
   19 H19       0.7029    -6.5962    -2.3465 H      1 <0>       0.4400
   20 H20       0.0907    -6.5921    -0.8137 H      1 <0>       0.4300
   21 C21       0.7101    -4.7576    -1.4570 C.3    1 <0>       0.0200
   22 H22       1.6678    -4.3586    -1.8065 H      1 <0>       0.1400
   23 C23      -0.3977    -4.2407    -2.3645 C.3    1 <0>      -0.1300
   24 C24      -0.1113    -2.7462    -2.5662 C.3    1 <0>      -0.0800
   25 H25       0.8616     1.7611     0.0033 H      1 <0>       0.4000
   26 H26      -0.1333    -0.1441    -2.1228 H      1 <0>       0.1400
   27 H27      -0.0667    -2.6423     2.0833 H      1 <0>       0.1400
   28 H28       0.8753     0.1612     2.7281 H      1 <0>       0.4000
   29 H29       1.3767    -3.2618     2.3893 H      1 <0>       0.1400
   30 H30       3.2766    -3.9819     3.6745 H      1 <0>       0.1400
   31 H31       4.7140    -5.8181     2.8573 H      1 <0>       0.1400
   32 H32       4.1539    -6.9501     0.7527 H      1 <0>       0.1400
   33 H33       2.8789    -6.3109    -1.6381 H      1 <0>       0.1400
   34 H34       2.1718    -7.6044    -0.6532 H      1 <0>       0.1400
   35 H35      -0.3794    -4.7533    -3.3232 H      1 <0>       0.1000
   36 H36      -1.3668    -4.3623    -1.8838 H      1 <0>       0.1000
   37 H37      -0.9408    -2.2961    -3.1039 H      1 <0>       0.1000
   38 H38       0.8086    -2.6312    -3.1293 H      1 <0>       0.0900
@<TRIPOS>BOND
   1    1    2 1
   2    1   25 1
   3    2    7 ar
   4    2    3 ar
   5    3    4 ar
   6    3   26 1
   7    4   24 1
   8    4    5 ar
   9    5    6 ar
  10    5    9 1
  11    6    7 ar
  12    6   27 1
  13    7    8 1
  14    8   28 1
  15    9   10 1
  16    9   21 1
  17    9   11 1
  18   11   16 ar
  19   11   12 ar
  20   12   13 ar
  21   12   29 1
  22   13   14 ar
  23   13   30 1
  24   14   15 ar
  25   14   31 1
  26   15   16 ar
  27   15   32 1
  28   16   17 1
  29   17   18 1
  30   17   33 1
  31   17   34 1
  32   18   19 1
  33   18   20 1
  34   18   21 1
  35   21   22 1
  36   21   23 1
  37   23   24 1
  38   23   35 1
  39   23   36 1
  40   24   37 1
  41   24   38 1
