@<TRIPOS>MOLECULE
ZINC000000596951
  45   48    0    0    0
SMALL
USER_CHARGES
NO_NAME
@<TRIPOS>ATOM
    1 O1       -2.5572     3.9187    -3.2513 O.co2  1 <0>      -0.6900
    2 C2       -1.7569     3.8600    -2.3276 C.2    1 <0>       0.5200
    3 O3       -0.6378     4.3378    -2.4564 O.co2  1 <0>      -0.6700
    4 C4       -2.1421     3.2207    -1.0606 C.ar   1 <0>      -0.1300
    5 C5       -3.3768     2.5736    -0.9452 C.ar   1 <0>      -0.0800
    6 C6       -3.7307     1.9766     0.2442 C.ar   1 <0>      -0.1400
    7 C7       -2.8700     2.0131     1.3304 C.ar   1 <0>      -0.1200
    8 C8       -1.6486     2.6475     1.2340 C.ar   1 <0>      -0.1400
    9 C9       -1.2695     3.2507     0.0411 C.ar   1 <0>       0.1600
   10 N10      -0.0412     3.8890    -0.0587 N.pl3  1 <0>      -0.6700
   11 C11       0.0371     5.2778     0.0735 C.ar   1 <0>       0.3000
   12 C12      -1.1052     6.0149     0.3603 C.ar   1 <0>      -0.2100
   13 C13      -1.0276     7.3881     0.4904 C.ar   1 <0>      -0.0400
   14 C14       0.1853     8.0319     0.3364 C.ar   1 <0>      -0.2700
   15 C15       1.3301     7.3007     0.0503 C.ar   1 <0>       0.1700
   16 O16       2.5222     7.9355    -0.1004 O.3    1 <0>      -0.3200
   17 C17       2.5240     9.3566     0.0491 C.3    1 <0>       0.1100
   18 C18       3.9226     9.8811    -0.1509 C.ar   1 <0>       0.1700
   19 C19       4.9483     8.9838    -0.4387 C.ar   1 <0>      -0.1500
   20 C20       6.2222     9.4412    -0.6236 C.ar   1 <0>      -0.0600
   21 C21       6.4532    10.8251    -0.5144 C.ar   1 <0>      -0.1100
   22 C22       7.7359    11.3687    -0.6919 C.ar   1 <0>      -0.0900
   23 C23       7.9184    12.7129    -0.5785 C.ar   1 <0>      -0.1200
   24 C24       6.8488    13.5579    -0.2883 C.ar   1 <0>      -0.1000
   25 C25       5.5930    13.0653    -0.1101 C.ar   1 <0>      -0.0900
   26 C26       5.3641    11.6823    -0.2192 C.ar   1 <0>       0.1300
   27 N27       4.1405    11.1703    -0.0547 N.ar   1 <0>      -0.4700
   28 C28       1.2576     5.9227    -0.0759 C.ar   1 <0>      -0.2200
   29 H29      -4.0518     2.5425    -1.7877 H      1 <0>       0.1300
   30 H30      -4.6845     1.4775     0.3315 H      1 <0>       0.1200
   31 H31      -3.1578     1.5420     2.2586 H      1 <0>       0.1200
   32 H32      -0.9847     2.6716     2.0855 H      1 <0>       0.1200
   33 H33       0.7629     3.3711    -0.2201 H      1 <0>       0.4000
   34 H34      -2.0545     5.5141     0.4811 H      1 <0>       0.1100
   35 H35      -1.9167     7.9595     0.7126 H      1 <0>       0.1200
   36 H36       0.2427     9.1055     0.4384 H      1 <0>       0.1200
   37 H37       1.8599     9.8008    -0.6923 H      1 <0>       0.0900
   38 H38       2.1779     9.6172     1.0494 H      1 <0>       0.0900
   39 H39       4.7368     7.9275    -0.5152 H      1 <0>       0.1500
   40 H40       7.0297     8.7596    -0.8470 H      1 <0>       0.1400
   41 H41       8.5726    10.7240    -0.9168 H      1 <0>       0.1300
   42 H42       8.9052    13.1301    -0.7149 H      1 <0>       0.1300
   43 H43       7.0195    14.6209    -0.2031 H      1 <0>       0.1300
   44 H44       4.7752    13.7340     0.1146 H      1 <0>       0.1400
   45 H45       2.1473     5.3522    -0.2984 H      1 <0>       0.1200
@<TRIPOS>BOND
   1    1    2 ar
   2    2    3 ar
   3    2    4 1
   4    4    9 ar
   5    4    5 ar
   6    5    6 ar
   7    5   29 1
   8    6    7 ar
   9    6   30 1
  10    7    8 ar
  11    7   31 1
  12    8    9 ar
  13    8   32 1
  14    9   10 1
  15   10   11 1
  16   10   33 1
  17   11   28 ar
  18   11   12 ar
  19   12   13 ar
  20   12   34 1
  21   13   14 ar
  22   13   35 1
  23   14   15 ar
  24   14   36 1
  25   15   16 1
  26   15   28 ar
  27   16   17 1
  28   17   18 1
  29   17   37 1
  30   17   38 1
  31   18   27 ar
  32   18   19 ar
  33   19   20 ar
  34   19   39 1
  35   20   21 ar
  36   20   40 1
  37   21   26 ar
  38   21   22 ar
  39   22   23 ar
  40   22   41 1
  41   23   24 ar
  42   23   42 1
  43   24   25 ar
  44   24   43 1
  45   25   26 ar
  46   25   44 1
  47   26   27 ar
  48   28   45 1
