@<TRIPOS>MOLECULE
ZINC000022920326
  52   55    0    0    0
SMALL
USER_CHARGES
NO_NAME
@<TRIPOS>ATOM
    1 C1       -0.0187     1.5258     0.0104 C.3    1 <0>      -0.1800
    2 C2        0.0021    -0.0041     0.0020 C.3    1 <0>       0.0300
    3 H3        0.5123    -0.3556    -0.8948 H      1 <0>       0.1500
    4 C4       -1.4336    -0.5337     0.0128 C.3    1 <0>       0.0300
    5 N5       -1.4105    -2.0032     0.0241 N.3    1 <0>      -0.5400
    6 C6       -2.7725    -2.5515    -0.0226 C.3    1 <0>       0.0600
    7 C7       -2.7252    -4.0580     0.2405 C.3    1 <0>      -0.1500
    8 C8       -4.1438    -4.6290     0.1920 C.3    1 <0>       0.1200
    9 N9       -4.0985    -6.0715     0.4439 N.pl3  1 <0>      -0.5100
   10 C10      -3.9531    -7.0405    -0.5327 C.ar   1 <0>       0.1400
   11 C11      -3.9539    -8.2981     0.0886 C.ar   1 <0>      -0.1000
   12 C12      -3.8206    -9.4545    -0.6764 C.ar   1 <0>      -0.0600
   13 C13      -3.6881    -9.3584    -2.0448 C.ar   1 <0>      -0.1500
   14 C14      -3.6867    -8.1161    -2.6607 C.ar   1 <0>      -0.0800
   15 C15      -3.8186    -6.9643    -1.9158 C.ar   1 <0>      -0.1400
   16 C16      -4.1108    -8.0506     1.5337 C.ar   1 <0>      -0.1000
   17 C17      -4.1889    -6.6593     1.6930 C.ar   1 <0>       0.1400
   18 C18      -4.3416    -6.1274     2.9700 C.ar   1 <0>      -0.1500
   19 C19      -4.4146    -6.9649     4.0620 C.ar   1 <0>      -0.0800
   20 C20      -4.3368    -8.3401     3.9026 C.ar   1 <0>      -0.1500
   21 C21      -4.1820    -8.8855     2.6465 C.ar   1 <0>      -0.0600
   22 C22      -0.6807    -2.5048     1.1971 C.3    1 <0>       0.0200
   23 C23       0.7488    -1.9589     1.1765 C.3    1 <0>       0.0300
   24 H24       1.2551    -2.3004     0.2737 H      1 <0>       0.1500
   25 C25       1.5050    -2.4634     2.4072 C.3    1 <0>      -0.1800
   26 N26       0.7126    -0.4906     1.1920 N.4    1 <0>      -0.5100
   27 H27       1.6553    -0.1311     1.1909 H      1 <0>       0.4300
   28 H28       0.2333    -0.1749     2.0219 H      1 <0>       0.4200
   29 H29       1.0039     1.9031     0.0027 H      1 <0>       0.0900
   30 H30      -0.5459     1.8868    -0.8726 H      1 <0>       0.1100
   31 H31      -0.5289     1.8773     0.9072 H      1 <0>       0.0800
   32 H32      -1.9483    -0.1712     0.9026 H      1 <0>       0.0600
   33 H33      -1.9566    -0.1850    -0.8777 H      1 <0>       0.1200
   34 H34      -3.3848    -2.0687     0.7391 H      1 <0>       0.0500
   35 H35      -3.2046    -2.3679    -1.0062 H      1 <0>       0.1000
   36 H36      -2.1129    -4.5407    -0.5211 H      1 <0>       0.0800
   37 H37      -2.2931    -4.2416     1.2242 H      1 <0>       0.0700
   38 H38      -4.7561    -4.1462     0.9537 H      1 <0>       0.0900
   39 H39      -4.5759    -4.4454    -0.7917 H      1 <0>       0.0900
   40 H40      -3.8207   -10.4231    -0.1988 H      1 <0>       0.1300
   41 H41      -3.5847   -10.2540    -2.6395 H      1 <0>       0.1300
   42 H42      -3.5817    -8.0507    -3.7336 H      1 <0>       0.1300
   43 H43      -3.8163    -6.0017    -2.4055 H      1 <0>       0.1200
   44 H44      -4.4025    -5.0576     3.1053 H      1 <0>       0.1200
   45 H45      -4.5331    -6.5464     5.0505 H      1 <0>       0.1300
   46 H46      -4.3949    -8.9860     4.7662 H      1 <0>       0.1300
   47 H47      -4.1220    -9.9569     2.5247 H      1 <0>       0.1300
   48 H48      -1.1830    -2.1748     2.1064 H      1 <0>       0.0600
   49 H49      -0.6544    -3.5942     1.1706 H      1 <0>       0.1300
   50 H50       1.5320    -3.5530     2.3957 H      1 <0>       0.1100
   51 H51       2.5232    -2.0745     2.3925 H      1 <0>       0.0900
   52 H52       0.9987    -2.1220     3.3100 H      1 <0>       0.0800
@<TRIPOS>BOND
   1    1    2 1
   2    1   29 1
   3    1   30 1
   4    1   31 1
   5    2    3 1
   6    2   26 1
   7    2    4 1
   8    4    5 1
   9    4   32 1
  10    4   33 1
  11    5    6 1
  12    5   22 1
  13    6    7 1
  14    6   34 1
  15    6   35 1
  16    7    8 1
  17    7   36 1
  18    7   37 1
  19    8    9 1
  20    8   38 1
  21    8   39 1
  22    9   17 1
  23    9   10 1
  24   10   15 ar
  25   10   11 ar
  26   11   12 ar
  27   11   16 1
  28   12   13 ar
  29   12   40 1
  30   13   14 ar
  31   13   41 1
  32   14   15 ar
  33   14   42 1
  34   15   43 1
  35   16   21 ar
  36   16   17 ar
  37   17   18 ar
  38   18   19 ar
  39   18   44 1
  40   19   20 ar
  41   19   45 1
  42   20   21 ar
  43   20   46 1
  44   21   47 1
  45   22   23 1
  46   22   48 1
  47   22   49 1
  48   23   24 1
  49   23   25 1
  50   23   26 1
  51   25   50 1
  52   25   51 1
  53   25   52 1
  54   26   27 1
  55   26   28 1
