@<TRIPOS>MOLECULE
ZINC000008214693
82    82    1     0     0
SMALL
USER_CHARGES
@<TRIPOS>ATOM
1      C1     -0.0184    1.5028    0.0103 C.3      1 ZINC000008214693   -0.1200
2      C2      0.0021   -0.0041    0.0020 C.2      1 ZINC000008214693   -0.1300
3      C3     -1.1493   -0.6898    0.0037 C.2      1 ZINC000008214693   -0.1300
4      C4     -2.4645    0.0459    0.0140 C.3      1 ZINC000008214693   -0.1200
5      C5     -1.1293   -2.1668   -0.0049 C.2      1 ZINC000008214693    0.4100
6      O6     -2.1726   -2.7882   -0.0034 O.2      1 ZINC000008214693   -0.4100
7      C7      0.1598   -2.8879   -0.0159 C.2      1 ZINC000008214693   -0.1200
8      C8      0.1802   -4.3947   -0.0252 C.3      1 ZINC000008214693   -0.0800
9      C9      0.0688   -4.9151    1.4092 C.3      1 ZINC000008214693   -0.1400
10     C10     0.0895   -6.4449    1.3998 C.3      1 ZINC000008214693    0.1300
11     C11     1.4005   -6.9334    0.7804 C.3      1 ZINC000008214693   -0.1500
12     O12    -1.0115   -6.9315    0.6296 O.3      1 ZINC000008214693   -0.5500
13     C13    -0.0219   -6.9654    2.8342 C.3      1 ZINC000008214693   -0.1400
14     C14     0.1239   -8.4884    2.8369 C.3      1 ZINC000008214693   -0.1200
15     C15     0.0125   -9.0088    4.2714 C.3      1 ZINC000008214693   -0.1200
16     C16     0.1583  -10.5319    4.2741 C.3      1 ZINC000008214693   -0.0900
17     H17     1.0911  -10.8085    3.7826 H        1 ZINC000008214693    0.0700
18     C18    -1.0188  -11.1582    3.5237 C.3      1 ZINC000008214693   -0.1500
19     C19     0.1718  -11.0403    5.7171 C.3      1 ZINC000008214693   -0.1200
20     C20     0.4422  -12.5462    5.7247 C.3      1 ZINC000008214693   -0.1200
21     C21     0.4558  -13.0547    7.1677 C.3      1 ZINC000008214693   -0.1200
22     C22     0.7261  -14.5606    7.1753 C.3      1 ZINC000008214693   -0.0900
23     H23     1.6490  -14.7668    6.6331 H        1 ZINC000008214693    0.0700
24     C24    -0.4363  -15.2909    6.4997 C.3      1 ZINC000008214693   -0.1500
25     C25     0.8635  -15.0468    8.6194 C.3      1 ZINC000008214693   -0.1200
26     C26     1.2567  -16.5254    8.6245 C.3      1 ZINC000008214693   -0.1200
27     C27     1.3941  -17.0116   10.0687 C.3      1 ZINC000008214693   -0.1200
28     C28     1.7873  -18.4902   10.0738 C.3      1 ZINC000008214693   -0.1000
29     C29     3.1791  -18.6499    9.4588 C.3      1 ZINC000008214693   -0.1500
30     C30     1.8032  -19.0087   11.5132 C.3      1 ZINC000008214693   -0.1500
31     C31     1.3112   -2.2021   -0.0181 C.2      1 ZINC000008214693   -0.1200
32     C32     2.6264   -2.9378   -0.0298 C.3      1 ZINC000008214693   -0.1200
33     C33     1.2911   -0.7251   -0.0142 C.2      1 ZINC000008214693    0.4100
34     O34     2.3345   -0.1037   -0.0161 O.2      1 ZINC000008214693   -0.4100
35     H35     1.0042    1.8801    0.0026 H        1 ZINC000008214693    0.0800
36     H36    -0.5455    1.8639   -0.8728 H        1 ZINC000008214693    0.0800
37     H37    -0.5286    1.8543    0.9071 H        1 ZINC000008214693    0.0800
38     H38    -2.7864    0.2289   -1.0112 H        1 ZINC000008214693    0.0900
39     H39    -3.2136   -0.5563    0.5281 H        1 ZINC000008214693    0.0800
40     H40    -2.3446    0.9972    0.5324 H        1 ZINC000008214693    0.0800
41     H41    -0.6596   -4.7658   -0.6127 H        1 ZINC000008214693    0.0900
42     H42     1.1142   -4.7427   -0.4665 H        1 ZINC000008214693    0.0900
43     H43     0.9086   -4.5440    1.9966 H        1 ZINC000008214693    0.0700
44     H44    -0.8652   -4.5671    1.8504 H        1 ZINC000008214693    0.0700
45     H45     2.2404   -6.5623    1.3678 H        1 ZINC000008214693    0.0700
46     H46     1.4153   -8.0233    0.7737 H        1 ZINC000008214693    0.0700
47     H47     1.4799   -6.5626   -0.2415 H        1 ZINC000008214693    0.0600
48     H48    -1.8767   -6.6599    0.9653 H        1 ZINC000008214693    0.3800
49     H49     0.7669   -6.5238    3.4432 H        1 ZINC000008214693    0.0700
50     H50    -0.9939   -6.6927    3.2452 H        1 ZINC000008214693    0.0600
51     H51    -0.6649   -8.9300    2.2279 H        1 ZINC000008214693    0.0700
52     H52     1.0960   -8.7611    2.4260 H        1 ZINC000008214693    0.0600
53     H53     0.8013   -8.5672    4.8804 H        1 ZINC000008214693    0.0600
54     H54    -0.9596   -8.7362    4.6823 H        1 ZINC000008214693    0.0600
55     H55    -1.0284  -10.7960    2.4957 H        1 ZINC000008214693    0.0600
56     H56    -0.9149  -12.2433    3.5256 H        1 ZINC000008214693    0.0500
57     H57    -1.9515  -10.8817    4.0152 H        1 ZINC000008214693    0.0500
58     H58     0.9551  -10.5277    6.2756 H        1 ZINC000008214693    0.0600
59     H59    -0.7943  -10.8423    6.1812 H        1 ZINC000008214693    0.0600
60     H60    -0.3410  -13.0588    5.1662 H        1 ZINC000008214693    0.0700
61     H61     1.4084  -12.7442    5.2606 H        1 ZINC000008214693    0.0600
62     H62     1.2390  -12.5421    7.7262 H        1 ZINC000008214693    0.0600
63     H63    -0.5104  -12.8567    7.6317 H        1 ZINC000008214693    0.0600
64     H64    -0.5342  -14.9445    5.4708 H        1 ZINC000008214693    0.0500
65     H65    -0.2437  -16.3637    6.5051 H        1 ZINC000008214693    0.0500
66     H66    -1.3591  -15.0847    7.0418 H        1 ZINC000008214693    0.0500
67     H67     1.6325  -14.4646    9.1272 H        1 ZINC000008214693    0.0600
68     H68    -0.0877  -14.9220    9.1369 H        1 ZINC000008214693    0.0600
69     H69     0.4878  -17.1076    8.1167 H        1 ZINC000008214693    0.0600
70     H70     2.2079  -16.6502    8.1071 H        1 ZINC000008214693    0.0600
71     H71     2.1631  -16.4294   10.5765 H        1 ZINC000008214693    0.0600
72     H72     0.4429  -16.8868   10.5861 H        1 ZINC000008214693    0.0600
73     H73     1.0646  -19.0604    9.4901 H        1 ZINC000008214693    0.0700
74     H74     3.4593  -19.7033    9.4624 H        1 ZINC000008214693    0.0500
75     H75     3.1678  -18.2805    8.4334 H        1 ZINC000008214693    0.0600
76     H76     3.9019  -18.0798   10.0424 H        1 ZINC000008214693    0.0500
77     H77     0.8117  -18.8950   11.9513 H        1 ZINC000008214693    0.0500
78     H78     2.0833  -20.0621   11.5168 H        1 ZINC000008214693    0.0500
79     H79     2.5260  -18.4386   12.0968 H        1 ZINC000008214693    0.0500
80     H80     2.9378   -3.1089   -1.0602 H        1 ZINC000008214693    0.0800
81     H81     3.3808   -2.3416    0.4835 H        1 ZINC000008214693    0.0800
82     H82     2.5118   -3.8950    0.4789 H        1 ZINC000008214693    0.0800
@<TRIPOS>BOND
1     1     2     1
2     1     35    1
3     1     36    1
4     1     37    1
5     2     33    1
6     2     3     2
7     3     4     1
8     3     5     1
9     4     38    1
10    4     39    1
11    4     40    1
12    5     6     2
13    5     7     1
14    7     8     1
15    7     31    2
16    8     9     1
17    8     41    1
18    8     42    1
19    9     10    1
20    9     43    1
21    9     44    1
22    10    11    1
23    10    12    1
24    10    13    1
25    11    45    1
26    11    46    1
27    11    47    1
28    12    48    1
29    13    14    1
30    13    49    1
31    13    50    1
32    14    15    1
33    14    51    1
34    14    52    1
35    15    16    1
36    15    53    1
37    15    54    1
38    16    17    1
39    16    18    1
40    16    19    1
41    18    55    1
42    18    56    1
43    18    57    1
44    19    20    1
45    19    58    1
46    19    59    1
47    20    21    1
48    20    60    1
49    20    61    1
50    21    22    1
51    21    62    1
52    21    63    1
53    22    23    1
54    22    24    1
55    22    25    1
56    24    64    1
57    24    65    1
58    24    66    1
59    25    26    1
60    25    67    1
61    25    68    1
62    26    27    1
63    26    69    1
64    26    70    1
65    27    28    1
66    27    71    1
67    27    72    1
68    28    29    1
69    28    30    1
70    28    73    1
71    29    74    1
72    29    75    1
73    29    76    1
74    30    77    1
75    30    78    1
76    30    79    1
77    31    32    1
78    31    33    1
79    32    80    1
80    32    81    1
81    32    82    1
82    33    34    2
@<TRIPOS>SUBSTRUCTURE
1   ZINC000008214693 1     RESIDUE    1   A     ZIN   1
