@<TRIPOS>MOLECULE
ZINC000001916005
66    67    1     0     0
SMALL
USER_CHARGES
@<TRIPOS>ATOM
1      C1      0.0360    1.6588   -0.1826 C.3      1 ZINC000001916005   -0.1200
2      C2      0.0804    0.1645    0.0077 C.2      1 ZINC000001916005   -0.1300
3      C3      1.4034   -0.5570    0.0008 C.3      1 ZINC000001916005   -0.1200
4      C4     -1.0311   -0.5072    0.1791 C.2      1 ZINC000001916005   -0.1700
5      C5     -2.3542    0.2143    0.1860 C.3      1 ZINC000001916005   -0.0900
6      C6     -3.2818   -0.4115   -0.8573 C.3      1 ZINC000001916005   -0.0800
7      C7     -4.6049    0.3100   -0.8504 C.2      1 ZINC000001916005   -0.1300
8      C8     -5.6762   -0.0901    0.1311 C.3      1 ZINC000001916005   -0.1200
9      C9     -4.8237    1.2850   -1.6975 C.2      1 ZINC000001916005   -0.1600
10     C10    -6.0963    2.0874   -1.6105 C.3      1 ZINC000001916005   -0.0900
11     C11    -5.7550    3.5748   -1.5012 C.3      1 ZINC000001916005   -0.0800
12     C12    -7.0276    4.3772   -1.4141 C.2      1 ZINC000001916005   -0.1300
13     C13    -7.7498    4.7835   -2.6729 C.3      1 ZINC000001916005   -0.1200
14     C14    -7.5062    4.7215   -0.2443 C.2      1 ZINC000001916005   -0.1600
15     C15    -8.8404    5.4159   -0.1507 C.3      1 ZINC000001916005   -0.0900
16     C16    -9.7535    4.6400    0.8008 C.3      1 ZINC000001916005   -0.1000
17     C17   -11.1080    5.3450    0.8958 C.3      1 ZINC000001916005    0.1200
18     C18   -11.7603    5.3963   -0.4872 C.3      1 ZINC000001916005   -0.1800
19     C19   -12.0184    4.5858    1.8695 C.3      1 ZINC000001916005   -0.1500
20     C20   -13.3971    5.2507    1.8562 C.3      1 ZINC000001916005   -0.0800
21     C21   -13.2424    6.7434    2.0023 C.ar     1 ZINC000001916005   -0.1400
22     C22   -14.3420    7.4915    2.3874 C.ar     1 ZINC000001916005   -0.1100
23     C23   -14.2373    8.8661    2.5279 C.ar     1 ZINC000001916005    0.0700
24     O24   -15.3197    9.5966    2.9073 O.3      1 ZINC000001916005   -0.5000
25     C25   -13.0263    9.4952    2.2812 C.ar     1 ZINC000001916005   -0.1100
26     C26   -11.9295    8.7503    1.8988 C.ar     1 ZINC000001916005   -0.1300
27     C27   -12.0328    7.3703    1.7591 C.ar     1 ZINC000001916005    0.1300
28     O28   -10.9259    6.6721    1.3912 O.3      1 ZINC000001916005   -0.3000
29     H29     1.0496    2.0393   -0.3088 H        1 ZINC000001916005    0.0600
30     H30    -0.5536    1.8950   -1.0684 H        1 ZINC000001916005    0.0700
31     H31    -0.4200    2.1230    0.6919 H        1 ZINC000001916005    0.0700
32     H32     1.7995   -0.5992    1.0154 H        1 ZINC000001916005    0.0700
33     H33     1.2630   -1.5697   -0.3770 H        1 ZINC000001916005    0.0600
34     H34     2.1047   -0.0238   -0.6411 H        1 ZINC000001916005    0.0600
35     H35    -0.9993   -1.5781    0.3154 H        1 ZINC000001916005    0.1100
36     H36    -2.8086    0.1304    1.1732 H        1 ZINC000001916005    0.0700
37     H37    -2.1958    1.2660   -0.0528 H        1 ZINC000001916005    0.0700
38     H38    -2.8274   -0.3276   -1.8445 H        1 ZINC000001916005    0.0700
39     H39    -3.4403   -1.4632   -0.6185 H        1 ZINC000001916005    0.0700
40     H40    -5.3497   -0.9689    0.6871 H        1 ZINC000001916005    0.0600
41     H41    -5.8591    0.7311    0.8241 H        1 ZINC000001916005    0.0700
42     H42    -6.5947   -0.3219   -0.4081 H        1 ZINC000001916005    0.0600
43     H43    -4.0920    1.5137   -2.4583 H        1 ZINC000001916005    0.1100
44     H44    -6.6953    1.9168   -2.5051 H        1 ZINC000001916005    0.0700
45     H45    -6.6611    1.7786   -0.7309 H        1 ZINC000001916005    0.0700
46     H46    -5.1561    3.7453   -0.6065 H        1 ZINC000001916005    0.0700
47     H47    -5.1902    3.8836   -2.3808 H        1 ZINC000001916005    0.0700
48     H48    -7.1607    4.4882   -3.5412 H        1 ZINC000001916005    0.0600
49     H49    -8.7218    4.2916   -2.7090 H        1 ZINC000001916005    0.0600
50     H50    -7.8891    5.8645   -2.6790 H        1 ZINC000001916005    0.0700
51     H51    -6.9446    4.5077    0.6531 H        1 ZINC000001916005    0.1100
52     H52    -8.6974    6.4281    0.2276 H        1 ZINC000001916005    0.0800
53     H53    -9.2979    5.4586   -1.1391 H        1 ZINC000001916005    0.0700
54     H54    -9.8964    3.6278    0.4225 H        1 ZINC000001916005    0.0800
55     H55    -9.2960    4.5973    1.7892 H        1 ZINC000001916005    0.0700
56     H56   -11.9061    4.3817   -0.8580 H        1 ZINC000001916005    0.0700
57     H57   -12.7248    5.8990   -0.4156 H        1 ZINC000001916005    0.0600
58     H58   -11.1148    5.9446   -1.1733 H        1 ZINC000001916005    0.0700
59     H59   -12.1087    3.5465    1.5535 H        1 ZINC000001916005    0.0900
60     H60   -11.5990    4.6296    2.8746 H        1 ZINC000001916005    0.0800
61     H61   -13.8979    5.0284    0.9140 H        1 ZINC000001916005    0.0800
62     H62   -13.9936    4.8653    2.6831 H        1 ZINC000001916005    0.0800
63     H63   -15.2853    7.0017    2.5788 H        1 ZINC000001916005    0.1300
64     H64   -15.4058    9.7040    3.8644 H        1 ZINC000001916005    0.3900
65     H65   -12.9418   10.5666    2.3879 H        1 ZINC000001916005    0.1300
66     H66   -10.9868    9.2410    1.7064 H        1 ZINC000001916005    0.1300
@<TRIPOS>BOND
1     1     2     1
2     1     29    1
3     1     30    1
4     1     31    1
5     2     3     1
6     2     4     2
7     3     32    1
8     3     33    1
9     3     34    1
10    4     5     1
11    4     35    1
12    5     6     1
13    5     36    1
14    5     37    1
15    6     7     1
16    6     38    1
17    6     39    1
18    7     8     1
19    7     9     2
20    8     40    1
21    8     41    1
22    8     42    1
23    9     10    1
24    9     43    1
25    10    11    1
26    10    44    1
27    10    45    1
28    11    12    1
29    11    46    1
30    11    47    1
31    12    13    1
32    12    14    2
33    13    48    1
34    13    49    1
35    13    50    1
36    14    15    1
37    14    51    1
38    15    16    1
39    15    52    1
40    15    53    1
41    16    17    1
42    16    54    1
43    16    55    1
44    17    28    1
45    17    18    1
46    17    19    1
47    18    56    1
48    18    57    1
49    18    58    1
50    19    20    1
51    19    59    1
52    19    60    1
53    20    21    1
54    20    61    1
55    20    62    1
56    21    27    ar
57    21    22    ar
58    22    23    ar
59    22    63    1
60    23    24    1
61    23    25    ar
62    24    64    1
63    25    26    ar
64    25    65    1
65    26    27    ar
66    26    66    1
67    27    28    1
@<TRIPOS>SUBSTRUCTURE
1   ZINC000001916005 1     RESIDUE    1   A     ZIN   1
