@<TRIPOS>MOLECULE
ZINC000055161376
41    46    1     0     0
SMALL
USER_CHARGES
@<TRIPOS>ATOM
1      Br1     0.0021   -0.0041    0.0020 Br       1 ZINC000055161376   -0.0400
2      C2     -0.0236    1.8867    0.0124 C.ar     1 ZINC000055161376   -0.0800
3      C3     -1.2318    2.5614    0.0334 C.ar     1 ZINC000055161376   -0.0800
4      C4     -1.2572    3.9406    0.0412 C.ar     1 ZINC000055161376   -0.0900
5      C5     -0.0618    4.6604    0.0281 C.ar     1 ZINC000055161376   -0.0400
6      C6      0.1988    6.1216    0.0329 C.ar     1 ZINC000055161376   -0.0400
7      C7     -0.6732    7.2108    0.0528 C.ar     1 ZINC000055161376   -0.0900
8      C8     -0.1725    8.4961    0.0526 C.ar     1 ZINC000055161376   -0.0800
9      C9      1.1945    8.7109    0.0329 C.ar     1 ZINC000055161376   -0.0800
10     Br10    1.8732   10.4758    0.0334 Br       1 ZINC000055161376   -0.0400
11     C11     2.0658    7.6349    0.0134 C.ar     1 ZINC000055161376   -0.0600
12     C12     1.5742    6.3473    0.0134 C.ar     1 ZINC000055161376   -0.0600
13     C13     2.2486    5.0020   -0.0038 C.3      1 ZINC000055161376    0.1100
14     C14     3.1168    4.8489   -1.2237 C.ar     1 ZINC000055161376   -0.0800
15     C15     2.8433    4.9042   -2.5739 C.ar     1 ZINC000055161376   -0.0900
16     C16     3.8593    4.7218   -3.4954 C.ar     1 ZINC000055161376   -0.1100
17     C17     5.1519    4.4842   -3.0649 C.ar     1 ZINC000055161376   -0.1100
18     C18     5.4359    4.4289   -1.7159 C.ar     1 ZINC000055161376   -0.0900
19     C19     4.4166    4.6117   -0.7805 C.ar     1 ZINC000055161376   -0.0500
20     C20     4.4389    4.6044    0.7036 C.ar     1 ZINC000055161376   -0.0500
21     C21     5.4856    4.4114    1.6061 C.ar     1 ZINC000055161376   -0.0900
22     C22     5.2424    4.4532    2.9635 C.ar     1 ZINC000055161376   -0.1100
23     C23     3.9632    4.6861    3.4349 C.ar     1 ZINC000055161376   -0.1100
24     C24     2.9201    4.8771    2.5461 C.ar     1 ZINC000055161376   -0.0900
25     C25     3.1531    4.8377    1.1879 C.ar     1 ZINC000055161376   -0.0800
26     C26     1.1504    3.9728    0.0070 C.ar     1 ZINC000055161376   -0.0600
27     C27     1.1665    2.5944    0.0049 C.ar     1 ZINC000055161376   -0.0600
28     H28    -2.1580    2.0061    0.0432 H        1 ZINC000055161376    0.1400
29     H29    -2.2022    4.4632    0.0572 H        1 ZINC000055161376    0.1400
30     H30    -1.7407    7.0474    0.0680 H        1 ZINC000055161376    0.1400
31     H31    -0.8494    9.3375    0.0674 H        1 ZINC000055161376    0.1400
32     H32     3.1322    7.8049   -0.0026 H        1 ZINC000055161376    0.1300
33     H33     1.8348    5.0899   -2.9127 H        1 ZINC000055161376    0.1200
34     H34     3.6424    4.7647   -4.5526 H        1 ZINC000055161376    0.1300
35     H35     5.9418    4.3410   -3.7873 H        1 ZINC000055161376    0.1300
36     H36     6.4468    4.2438   -1.3839 H        1 ZINC000055161376    0.1300
37     H37     6.4859    4.2290    1.2421 H        1 ZINC000055161376    0.1300
38     H38     6.0537    4.3032    3.6604 H        1 ZINC000055161376    0.1300
39     H39     3.7782    4.7186    4.4985 H        1 ZINC000055161376    0.1300
40     H40     1.9219    5.0576    2.9169 H        1 ZINC000055161376    0.1200
41     H41     2.1083    2.0660   -0.0056 H        1 ZINC000055161376    0.1300
@<TRIPOS>BOND
1     1     2     1
2     2     27    ar
3     2     3     ar
4     3     4     ar
5     3     28    1
6     4     5     ar
7     4     29    1
8     5     26    ar
9     5     6     1
10    6     12    ar
11    6     7     ar
12    7     8     ar
13    7     30    1
14    8     9     ar
15    8     31    1
16    9     10    1
17    9     11    ar
18    11    12    ar
19    11    32    1
20    12    13    1
21    13    25    1
22    13    14    1
23    13    26    1
24    14    19    ar
25    14    15    ar
26    15    16    ar
27    15    33    1
28    16    17    ar
29    16    34    1
30    17    18    ar
31    17    35    1
32    18    19    ar
33    18    36    1
34    19    20    1
35    20    25    ar
36    20    21    ar
37    21    22    ar
38    21    37    1
39    22    23    ar
40    22    38    1
41    23    24    ar
42    23    39    1
43    24    25    ar
44    24    40    1
45    26    27    ar
46    27    41    1
@<TRIPOS>SUBSTRUCTURE
1   ZINC000055161376 1     RESIDUE    1   A     ZIN   1
