@<TRIPOS>MOLECULE
ZINC000003914190
36    38    1     0     0
SMALL
USER_CHARGES
@<TRIPOS>ATOM
1      O1     -0.1813   -0.0165    0.3471 O.2      1 ZINC000003914190   -0.4000
2      C2     -0.0105    1.1488    0.0396 C.2      1 ZINC000003914190    0.4500
3      C3      1.3496    1.6792   -0.0969 C.2      1 ZINC000003914190   -0.0400
4      C4      2.4153    0.8461    0.0015 C.2      1 ZINC000003914190    0.0700
5      C5      3.7782    1.3946    0.0081 C.ar     1 ZINC000003914190   -0.1200
6      C6      4.0273    2.6534    0.5666 C.ar     1 ZINC000003914190   -0.0800
7      C7      5.3084    3.1611    0.5696 C.ar     1 ZINC000003914190   -0.1100
8      C8      6.3495    2.4293    0.0210 C.ar     1 ZINC000003914190    0.0100
9      Cl9     7.9595    3.0785    0.0295 Cl       1 ZINC000003914190   -0.0200
10     C10     6.1125    1.1822   -0.5336 C.ar     1 ZINC000003914190   -0.1000
11     C11     4.8366    0.6576   -0.5396 C.ar     1 ZINC000003914190    0.0100
12     Cl12    4.5411   -0.9055   -1.2346 Cl       1 ZINC000003914190   -0.0200
13     N13     1.5484    3.0469   -0.3291 N.pl3    1 ZINC000003914190   -0.3600
14     C14     1.2530    4.0710    0.5328 C.2      1 ZINC000003914190    0.0300
15     C15     1.6024    5.2150   -0.0862 C.2      1 ZINC000003914190    0.0100
16     N16     2.0980    4.9035   -1.2930 N.pl3    1 ZINC000003914190   -0.4700
17     H17     2.4255    5.5411   -1.9464 H        1 ZINC000003914190    0.4700
18     C18     2.0756    3.6075   -1.4482 C.cat    1 ZINC000003914190    0.2900
19     C19    -1.1739    2.0275   -0.2020 C.ar     1 ZINC000003914190   -0.1700
20     C20    -1.0584    3.1242   -1.0593 C.ar     1 ZINC000003914190   -0.0800
21     C21    -2.1475    3.9399   -1.2810 C.ar     1 ZINC000003914190   -0.1200
22     C22    -3.3545    3.6740   -0.6552 C.ar     1 ZINC000003914190    0.0000
23     Cl23   -4.7213    4.7059   -0.9394 Cl       1 ZINC000003914190   -0.0400
24     C24    -3.4754    2.5879    0.1963 C.ar     1 ZINC000003914190   -0.1100
25     C25    -2.3951    1.7614    0.4216 C.ar     1 ZINC000003914190   -0.0400
26     H26     2.2621   -0.2204    0.0750 H        1 ZINC000003914190    0.1800
27     H27     3.2172    3.2258    0.9940 H        1 ZINC000003914190    0.1400
28     H28     5.5016    4.1324    1.0004 H        1 ZINC000003914190    0.1500
29     H29     6.9290    0.6178   -0.9592 H        1 ZINC000003914190    0.1600
30     H30     0.8223    3.9784    1.5189 H        1 ZINC000003914190    0.2300
31     H31     1.5007    6.2109    0.3189 H        1 ZINC000003914190    0.2300
32     H32     2.4135    3.0714   -2.3227 H        1 ZINC000003914190    0.2600
33     H33    -0.1177    3.3328   -1.5473 H        1 ZINC000003914190    0.1200
34     H34    -2.0595    4.7881   -1.9437 H        1 ZINC000003914190    0.1400
35     H35    -4.4190    2.3858    0.6813 H        1 ZINC000003914190    0.1500
36     H36    -2.4906    0.9150    1.0855 H        1 ZINC000003914190    0.1500
@<TRIPOS>BOND
1     1     2     2
2     2     3     1
3     2     19    1
4     3     4     2
5     3     13    1
6     4     5     1
7     4     26    1
8     5     11    ar
9     5     6     ar
10    6     7     ar
11    6     27    1
12    7     8     ar
13    7     28    1
14    8     9     1
15    8     10    ar
16    10    11    ar
17    10    29    1
18    11    12    1
19    13    18    ar
20    13    14    1
21    14    15    2
22    14    30    1
23    15    16    1
24    15    31    1
25    16    17    1
26    16    18    ar
27    18    32    1
28    19    25    ar
29    19    20    ar
30    20    21    ar
31    20    33    1
32    21    22    ar
33    21    34    1
34    22    23    1
35    22    24    ar
36    24    25    ar
37    24    35    1
38    25    36    1
@<TRIPOS>SUBSTRUCTURE
1   ZINC000003914190 1     RESIDUE    1   A     ZIN   1
