@<TRIPOS>MOLECULE
ZINC000026167988
31    32    1     0     0
SMALL
USER_CHARGES
@<TRIPOS>ATOM
1      O1      0.0021   -0.0041    0.0020 O.2      1 ZINC000026167988   -0.1900
2      N2     -0.0144    1.2138    0.0087 N.pl3    1 ZINC000026167988    0.0700
3      O3      1.0320    1.8371    0.0021 O.2      1 ZINC000026167988   -0.1000
4      C4     -1.3064    1.9365    0.0188 C.2      1 ZINC000026167988   -0.0100
5      C5     -1.4791    3.2720    0.0209 C.2      1 ZINC000026167988    0.1300
6      N6     -2.7972    3.5199    0.0301 N.2      1 ZINC000026167988   -0.4700
7      C7     -3.4479    2.3887    0.0336 C.2      1 ZINC000026167988    0.2700
8      N8     -2.5550    1.3756    0.0216 N.pl3    1 ZINC000026167988   -0.4500
9      C9     -2.8648   -0.0562    0.0209 C.3      1 ZINC000026167988    0.0700
10     C10    -2.8344   -0.5854    1.4561 C.3      1 ZINC000026167988   -0.0200
11     N11    -3.1451   -2.0211    1.4554 N.4      1 ZINC000026167988   -0.3800
12     H12    -4.0265   -2.1744    0.9887 H        1 ZINC000026167988    0.4200
13     C13    -3.2335   -2.5041    2.8403 C.3      1 ZINC000026167988   -0.0400
14     C14    -3.5574   -4.0001    2.8368 C.3      1 ZINC000026167988    0.0400
15     O15    -2.5502   -4.6990    2.1000 O.3      1 ZINC000026167988   -0.3500
16     C16    -2.4095   -4.2474    0.7502 C.3      1 ZINC000026167988    0.0400
17     C17    -2.0834   -2.7518    0.7496 C.3      1 ZINC000026167988   -0.0500
18     H18    -0.6939    4.0135    0.0165 H        1 ZINC000026167988    0.2100
19     H19    -4.5224    2.2806    0.0408 H        1 ZINC000026167988    0.2400
20     H20    -3.8566   -0.2131   -0.4033 H        1 ZINC000026167988    0.1300
21     H21    -2.1253   -0.5877   -0.5780 H        1 ZINC000026167988    0.1300
22     H22    -1.8427   -0.4285    1.8803 H        1 ZINC000026167988    0.1400
23     H23    -3.5740   -0.0539    2.0551 H        1 ZINC000026167988    0.1400
24     H24    -2.2811   -2.3395    3.3443 H        1 ZINC000026167988    0.1400
25     H25    -4.0209   -1.9627    3.3646 H        1 ZINC000026167988    0.1400
26     H26    -3.5810   -4.3698    3.8619 H        1 ZINC000026167988    0.1400
27     H27    -4.5285   -4.1612    2.3687 H        1 ZINC000026167988    0.0800
28     H28    -1.6022   -4.7961    0.2651 H        1 ZINC000026167988    0.1500
29     H29    -3.3412   -4.4169    0.2106 H        1 ZINC000026167988    0.0800
30     H30    -2.0172   -2.3945   -0.2780 H        1 ZINC000026167988    0.1400
31     H31    -1.1315   -2.5870    1.2543 H        1 ZINC000026167988    0.1500
@<TRIPOS>BOND
1     1     2     2
2     2     3     2
3     2     4     1
4     4     8     1
5     4     5     2
6     5     6     1
7     5     18    1
8     6     7     2
9     7     8     1
10    7     19    1
11    8     9     1
12    9     10    1
13    9     20    1
14    9     21    1
15    10    11    1
16    10    22    1
17    10    23    1
18    11    12    1
19    11    17    1
20    11    13    1
21    13    14    1
22    13    24    1
23    13    25    1
24    14    15    1
25    14    26    1
26    14    27    1
27    15    16    1
28    16    17    1
29    16    28    1
30    16    29    1
31    17    30    1
32    17    31    1
@<TRIPOS>SUBSTRUCTURE
1   ZINC000026167988 1     RESIDUE    1   A     ZIN   1
