@<TRIPOS>MOLECULE
ZINC000003781410
32    33    1     0     0
SMALL
USER_CHARGES
@<TRIPOS>ATOM
1      C1      0.2712    1.5895   -0.1023 C.3      1 ZINC000003781410   -0.1700
2      C2      0.1897    0.0617   -0.1018 C.3      1 ZINC000003781410   -0.1200
3      C3      0.9551   -0.4902   -1.3061 C.3      1 ZINC000003781410   -0.1500
4      H4      1.9718   -0.0973   -1.2962 H        1 ZINC000003781410    0.1200
5      C5      0.2679   -0.0560   -2.5720 C.2      1 ZINC000003781410    0.3600
6      O6      0.3914    1.0239   -3.1112 O.2      1 ZINC000003781410   -0.3900
7      S7     -0.7205   -1.3470   -3.1257 S.3      1 ZINC000003781410   -0.1500
8      C8     -0.3098   -2.5444   -1.8192 C.3      1 ZINC000003781410   -0.1100
9      C9      1.0034   -2.0164   -1.2166 C.3      1 ZINC000003781410   -0.0800
10     H10     1.8528   -2.3953   -1.7852 H        1 ZINC000003781410    0.1000
11     C11     1.1188   -2.4502    0.2461 C.3      1 ZINC000003781410   -0.0500
12     C12     1.2470   -3.9500    0.3167 C.2      1 ZINC000003781410    0.0500
13     C13     0.2386   -4.8427    0.3188 C.2      1 ZINC000003781410    0.0000
14     N14     0.7721   -6.0711    0.3924 N.pl3    1 ZINC000003781410   -0.4700
15     H15     0.2703   -6.9010    0.4101 H        1 ZINC000003781410    0.4700
16     C16     2.0727   -5.9736    0.4359 C.cat    1 ZINC000003781410    0.2900
17     N17     2.4109   -4.6672    0.3850 N.pl3    1 ZINC000003781410   -0.4100
18     C18     3.7694   -4.1193    0.4083 C.3      1 ZINC000003781410    0.0500
19     H19     1.3149    1.8977   -0.0416 H        1 ZINC000003781410    0.0600
20     H20    -0.1692    1.9766   -1.0211 H        1 ZINC000003781410    0.0600
21     H21    -0.2742    1.9827    0.7557 H        1 ZINC000003781410    0.0700
22     H22     0.6300   -0.3254    0.8171 H        1 ZINC000003781410    0.0900
23     H23    -0.8541   -0.2465   -0.1624 H        1 ZINC000003781410    0.0700
24     H24    -1.0942   -2.5666   -1.0627 H        1 ZINC000003781410    0.1100
25     H25    -0.1618   -3.5368   -2.2450 H        1 ZINC000003781410    0.1100
26     H26     1.9992   -1.9888    0.6935 H        1 ZINC000003781410    0.1100
27     H27     0.2279   -2.1356    0.7896 H        1 ZINC000003781410    0.1200
28     H28    -0.8149   -4.6102    0.2698 H        1 ZINC000003781410    0.2200
29     H29     2.7642   -6.8009    0.4983 H        1 ZINC000003781410    0.2600
30     H30     4.1083   -3.9445   -0.6128 H        1 ZINC000003781410    0.1100
31     H31     3.7723   -3.1782    0.9583 H        1 ZINC000003781410    0.1200
32     H32     4.4385   -4.8277    0.8969 H        1 ZINC000003781410    0.1200
@<TRIPOS>BOND
1     1     2     1
2     1     19    1
3     1     20    1
4     1     21    1
5     2     3     1
6     2     22    1
7     2     23    1
8     3     4     1
9     3     9     1
10    3     5     1
11    5     6     2
12    5     7     1
13    7     8     1
14    8     9     1
15    8     24    1
16    8     25    1
17    9     10    1
18    9     11    1
19    11    12    1
20    11    26    1
21    11    27    1
22    12    17    1
23    12    13    2
24    13    14    1
25    13    28    1
26    14    15    1
27    14    16    ar
28    16    17    ar
29    16    29    1
30    17    18    1
31    18    30    1
32    18    31    1
33    18    32    1
@<TRIPOS>SUBSTRUCTURE
1   ZINC000003781410 1     RESIDUE    1   A     ZIN   1
