@<TRIPOS>MOLECULE
ZINC000095616583
  44   47    0    0    0
SMALL
USER_CHARGES
NO_NAME
@<TRIPOS>ATOM
    1 O1       -0.0938     1.3343    -0.0765 O.3    1 <0>      -0.5600
    2 C2       -0.0545    -0.0919     0.0043 C.3    1 <0>       0.1100
    3 H3       -1.0705    -0.4798     0.0777 H      1 <0>       0.0900
    4 C4        0.7421    -0.5109     1.2415 C.3    1 <0>      -0.1700
    5 C5        0.0259    -0.0175     2.5003 C.3    1 <0>       0.1900
    6 H6       -0.1286     1.0600     2.4439 H      1 <0>       0.1500
    7 C7        0.8372    -0.3601     3.7247 C.ar   1 <0>      -0.1000
    8 C8        2.1040    -0.0119     4.1356 C.ar   1 <0>      -0.0800
    9 C9        2.5976    -0.4896     5.3379 C.ar   1 <0>      -0.0800
   10 C10       1.8209    -1.3170     6.1290 C.ar   1 <0>      -0.1000
   11 C11       0.5497    -1.6718     5.7267 C.ar   1 <0>      -0.0600
   12 C12       0.0454    -1.1945     4.5157 C.ar   1 <0>      -0.0700
   13 C13      -1.2493    -1.3961     3.8345 C.2    1 <0>       0.0800
   14 C14      -2.4579    -2.0151     3.9314 C.2    1 <0>       0.0300
   15 N15      -3.1671    -1.7037     2.8402 N.pl3  1 <0>      -0.4700
   16 H16      -4.0675    -2.0111     2.6514 H      1 <0>       0.4700
   17 C17      -2.4604    -0.9216     2.0687 C.cat  1 <0>       0.3100
   18 N18      -1.2615    -0.7028     2.6474 N.pl3  1 <0>      -0.4200
   19 C19       0.6171    -0.6555    -1.2496 C.3    1 <0>      -0.1200
   20 C20       0.6592    -2.1825    -1.1631 C.3    1 <0>      -0.1100
   21 C21       1.3308    -2.7460    -2.4170 C.3    1 <0>      -0.1200
   22 C22       0.5342    -2.3270    -3.6543 C.3    1 <0>      -0.1200
   23 C23       0.4922    -0.8001    -3.7408 C.3    1 <0>      -0.1200
   24 C24      -0.1794    -0.2365    -2.4869 C.3    1 <0>      -0.1100
   25 H25       0.7774     1.7485    -0.1443 H      1 <0>       0.3900
   26 H26       0.8220    -1.5976     1.2714 H      1 <0>       0.1000
   27 H27       1.7398    -0.0743     1.1964 H      1 <0>       0.1100
   28 H28       2.7128     0.6342     3.5205 H      1 <0>       0.1400
   29 H29       3.5918    -0.2158     5.6588 H      1 <0>       0.1500
   30 H30       2.2112    -1.6866     7.0658 H      1 <0>       0.1500
   31 H31      -0.0540    -2.3174     6.3474 H      1 <0>       0.1400
   32 H32      -2.7859    -2.6460     4.7443 H      1 <0>       0.2300
   33 H33      -2.7834    -0.5151     1.1216 H      1 <0>       0.2600
   34 H34       1.6331    -0.2676    -1.3231 H      1 <0>       0.0800
   35 H35       1.2266    -2.4809    -0.2817 H      1 <0>       0.0600
   36 H36      -0.3568    -2.5703    -1.0896 H      1 <0>       0.0600
   37 H37       2.3468    -2.3581    -2.4905 H      1 <0>       0.0700
   38 H38       1.3607    -3.8339    -2.3554 H      1 <0>       0.0700
   39 H39       1.0127    -2.7285    -4.5476 H      1 <0>       0.0700
   40 H40      -0.4818    -2.7149    -3.5808 H      1 <0>       0.0600
   41 H41       1.5082    -0.4122    -3.8142 H      1 <0>       0.0600
   42 H42      -0.0753    -0.5016    -4.6222 H      1 <0>       0.0700
   43 H43      -1.1954    -0.6244    -2.4134 H      1 <0>       0.0600
   44 H44      -0.2094     0.8513    -2.5485 H      1 <0>       0.0700
@<TRIPOS>BOND
   1    1    2 1
   2    1   25 1
   3    2    3 1
   4    2    4 1
   5    2   19 1
   6    4    5 1
   7    4   26 1
   8    4   27 1
   9    5    6 1
  10    5   18 1
  11    5    7 1
  12    7   12 ar
  13    7    8 ar
  14    8    9 ar
  15    8   28 1
  16    9   10 ar
  17    9   29 1
  18   10   11 ar
  19   10   30 1
  20   11   12 ar
  21   11   31 1
  22   12   13 1
  23   13   18 1
  24   13   14 2
  25   14   15 1
  26   14   32 1
  27   15   16 1
  28   15   17 ar
  29   17   18 ar
  30   17   33 1
  31   19   24 1
  32   19   20 1
  33   19   34 1
  34   20   21 1
  35   20   35 1
  36   20   36 1
  37   21   22 1
  38   21   37 1
  39   21   38 1
  40   22   23 1
  41   22   39 1
  42   22   40 1
  43   23   24 1
  44   23   41 1
  45   23   42 1
  46   24   43 1
  47   24   44 1
