@<TRIPOS>MOLECULE
ZINC000043153645
67    71    1     0     0
SMALL
USER_CHARGES
@<TRIPOS>ATOM
1      C1     -0.0184    1.5022    0.0103 C.2      1 ZINC000043153645   -0.1600
2      C2      1.1089    2.1719    0.0031 C.2      1 ZINC000043153645   -0.1300
3      C3      1.0799    3.6793    0.0217 C.3      1 ZINC000043153645    0.0900
4      O4      0.6878    4.1255    1.3232 O.3      1 ZINC000043153645   -0.3800
5      C5      0.6186    5.5463    1.4464 C.3      1 ZINC000043153645    0.1100
6      C6      0.3643    5.9215    2.8807 C.ar     1 ZINC000043153645   -0.1100
7      C7     -0.6358    5.2901    3.5983 C.ar     1 ZINC000043153645   -0.0500
8      C8     -0.8986    5.6532    4.9026 C.ar     1 ZINC000043153645    0.1100
9      C9     -0.1282    6.6527    5.5114 C.ar     1 ZINC000043153645   -0.0700
10     C10     0.8818    7.2635    4.7993 C.ar     1 ZINC000043153645   -0.2100
11     C11     1.1246    6.9133    3.4828 C.ar     1 ZINC000043153645    0.1500
12     O12     2.1063    7.5400    2.7809 O.3      1 ZINC000043153645   -0.2900
13     C13     2.8488    8.5511    3.4653 C.3      1 ZINC000043153645    0.0700
14     C14     3.9007    9.1380    2.5219 C.3      1 ZINC000043153645    0.0500
15     N15     3.2316    9.8308    1.4127 N.3      1 ZINC000043153645   -0.5100
16     C16     2.6217   11.1051    1.8715 C.3      1 ZINC000043153645    0.0300
17     C17     2.4532   11.9104    0.5587 C.3      1 ZINC000043153645   -0.1200
18     C18     3.7244   11.5404   -0.2394 C.3      1 ZINC000043153645   -0.1300
19     C19     4.2004   10.2039    0.3593 C.3      1 ZINC000043153645    0.0400
20     N20    -1.9276    5.0810    5.6689 N.pl3    1 ZINC000043153645   -0.6900
21     C21    -1.7768    3.8193    6.2132 C.ar     1 ZINC000043153645    0.5700
22     N22    -1.6931    3.7854    7.5514 N.ar     1 ZINC000043153645   -0.5300
23     C23    -1.5560    2.6393    8.1886 C.ar     1 ZINC000043153645    0.1700
24     C24    -1.5210    1.4569    7.4742 C.ar     1 ZINC000043153645   -0.2400
25     C25    -1.6152    1.5234    6.0768 C.ar     1 ZINC000043153645    0.2400
26     N26    -1.7098    2.7210    5.4999 N.ar     1 ZINC000043153645   -0.5200
27     C27    -1.6603    0.2708    5.2885 C.ar     1 ZINC000043153645   -0.0600
28     C28    -1.8221   -0.9519    5.9503 C.ar     1 ZINC000043153645   -0.0900
29     C29    -1.8707   -2.1236    5.2234 C.ar     1 ZINC000043153645   -0.1300
30     C30    -1.7617   -2.0942    3.8465 C.ar     1 ZINC000043153645   -0.0800
31     C31    -1.6056   -0.8869    3.1859 C.ar     1 ZINC000043153645   -0.1000
32     C32    -1.5619    0.2912    3.9009 C.ar     1 ZINC000043153645   -0.0400
33     C33    -1.4728   -0.8582    1.6861 C.3      1 ZINC000043153645    0.1000
34     O34    -0.1338   -0.4924    1.3374 O.3      1 ZINC000043153645   -0.3700
35     C35     0.0021   -0.0041    0.0020 C.3      1 ZINC000043153645    0.0900
36     H36    -0.9617    2.0280    0.0266 H        1 ZINC000043153645    0.1100
37     H37     2.0509    1.6513   -0.0086 H        1 ZINC000043153645    0.1200
38     H38     2.0719    4.0656   -0.2123 H        1 ZINC000043153645    0.0600
39     H39     0.3642    4.0389   -0.7176 H        1 ZINC000043153645    0.0600
40     H40     1.5613    5.9847    1.1188 H        1 ZINC000043153645    0.0700
41     H41    -0.1918    5.9250    0.8236 H        1 ZINC000043153645    0.0600
42     H42    -1.2158    4.5067    3.1332 H        1 ZINC000043153645    0.1400
43     H43    -0.3244    6.9427    6.5331 H        1 ZINC000043153645    0.1300
44     H44     1.4881    8.0216    5.2725 H        1 ZINC000043153645    0.1300
45     H45     2.1720    9.3409    3.7913 H        1 ZINC000043153645    0.0600
46     H46     3.3426    8.1145    4.3334 H        1 ZINC000043153645    0.0700
47     H47     4.5247    9.8452    3.0683 H        1 ZINC000043153645    0.0600
48     H48     4.5225    8.3349    2.1263 H        1 ZINC000043153645    0.0900
49     H49     1.6535   10.9222    2.3377 H        1 ZINC000043153645    0.0800
50     H50     3.2887   11.6252    2.5590 H        1 ZINC000043153645    0.0400
51     H51     1.5569   11.5945    0.0248 H        1 ZINC000043153645    0.0800
52     H52     2.4242   12.9806    0.7637 H        1 ZINC000043153645    0.0700
53     H53     3.4856   11.4180   -1.2959 H        1 ZINC000043153645    0.0700
54     H54     4.4888   12.3066   -0.1099 H        1 ZINC000043153645    0.0700
55     H55     5.1930   10.3240    0.7934 H        1 ZINC000043153645    0.0400
56     H56     4.2211    9.4367   -0.4147 H        1 ZINC000043153645    0.0800
57     H57    -2.7493    5.5746    5.8174 H        1 ZINC000043153645    0.4200
58     H58    -1.4709    2.6246    9.2651 H        1 ZINC000043153645    0.1700
59     H59    -1.4241    0.5069    7.9787 H        1 ZINC000043153645    0.1500
60     H60    -1.9082   -0.9782    7.0265 H        1 ZINC000043153645    0.1300
61     H61    -1.9940   -3.0678    5.7329 H        1 ZINC000043153645    0.1300
62     H62    -1.7980   -3.0152    3.2836 H        1 ZINC000043153645    0.1300
63     H63    -1.4503    1.2321    3.3826 H        1 ZINC000043153645    0.1400
64     H64    -1.6974   -1.8453    1.2820 H        1 ZINC000043153645    0.0600
65     H65    -2.1688   -0.1281    1.2730 H        1 ZINC000043153645    0.0600
66     H66    -0.8235   -0.3744   -0.6057 H        1 ZINC000043153645    0.0600
67     H67     0.9460   -0.3520   -0.4176 H        1 ZINC000043153645    0.0900
@<TRIPOS>BOND
1     1     35    1
2     1     2     2
3     1     36    1
4     2     3     1
5     2     37    1
6     3     4     1
7     3     38    1
8     3     39    1
9     4     5     1
10    5     6     1
11    5     40    1
12    5     41    1
13    6     11    ar
14    6     7     ar
15    7     8     ar
16    7     42    1
17    8     9     ar
18    8     20    1
19    9     10    ar
20    9     43    1
21    10    11    ar
22    10    44    1
23    11    12    1
24    12    13    1
25    13    14    1
26    13    45    1
27    13    46    1
28    14    15    1
29    14    47    1
30    14    48    1
31    15    19    1
32    15    16    1
33    16    17    1
34    16    49    1
35    16    50    1
36    17    18    1
37    17    51    1
38    17    52    1
39    18    19    1
40    18    53    1
41    18    54    1
42    19    55    1
43    19    56    1
44    20    21    1
45    20    57    1
46    21    26    ar
47    21    22    ar
48    22    23    ar
49    23    24    ar
50    23    58    1
51    24    25    ar
52    24    59    1
53    25    26    ar
54    25    27    1
55    27    32    ar
56    27    28    ar
57    28    29    ar
58    28    60    1
59    29    30    ar
60    29    61    1
61    30    31    ar
62    30    62    1
63    31    32    ar
64    31    33    1
65    32    63    1
66    33    34    1
67    33    64    1
68    33    65    1
69    34    35    1
70    35    66    1
71    35    67    1
@<TRIPOS>SUBSTRUCTURE
1   ZINC000043153645 1     RESIDUE    1   A     ZIN   1
