@<TRIPOS>MOLECULE
ZINC000000000630
36    37    1     0     0
SMALL
USER_CHARGES
@<TRIPOS>ATOM
1      O1     -0.4478    0.5741    0.0198 O.2      1 ZINC000000000630   -0.1700
2      N2     -0.6869    1.7680    0.0514 N.pl3    1 ZINC000000000630    0.0800
3      O3      0.2275    2.5726    0.0493 O.2      1 ZINC000000000630   -0.0900
4      C4     -2.0891    2.2413    0.0861 C.2      1 ZINC000000000630    0.2400
5      N5     -2.4702    3.4891    0.1156 N.2      1 ZINC000000000630   -0.4000
6      C6     -3.8102    3.5419    0.1408 C.2      1 ZINC000000000630    0.0000
7      C7     -4.2772    2.2788    0.1263 C.2      1 ZINC000000000630    0.0100
8      N8     -3.1859    1.4535    0.0865 N.pl3    1 ZINC000000000630   -0.4100
9      C9     -3.2043   -0.0111    0.0584 C.3      1 ZINC000000000630    0.0500
10     C10    -3.0532   -0.5505    1.4821 C.3      1 ZINC000000000630    0.0600
11     H11    -3.8256   -0.1183    2.1183 H        1 ZINC000000000630    0.1100
12     O12    -1.7650   -0.1983    1.9907 O.3      1 ZINC000000000630   -0.5600
13     C13    -3.1970   -2.0737    1.4684 C.3      1 ZINC000000000630    0.0300
14     N14    -3.1599   -2.5815    2.8463 N.3      1 ZINC000000000630   -0.5200
15     C15    -4.0586   -1.8112    3.7155 C.3      1 ZINC000000000630    0.0500
16     C16    -4.1051   -2.4558    5.1027 C.3      1 ZINC000000000630   -0.1200
17     C17    -2.6932   -2.4845    5.6944 C.3      1 ZINC000000000630   -0.1200
18     C18    -1.7665   -3.2510    4.7466 C.3      1 ZINC000000000630   -0.1200
19     C19    -1.7878   -2.5834    3.3697 C.3      1 ZINC000000000630    0.0400
20     H20    -4.4095    4.4399    0.1682 H        1 ZINC000000000630    0.2000
21     H21    -5.3137    1.9755    0.1395 H        1 ZINC000000000630    0.2000
22     H22    -4.1495   -0.3546   -0.3619 H        1 ZINC000000000630    0.1200
23     H23    -2.3803   -0.3730   -0.5566 H        1 ZINC000000000630    0.1200
24     H24    -1.0280   -0.5498    1.4727 H        1 ZINC000000000630    0.3900
25     H25    -4.1465   -2.3448    1.0067 H        1 ZINC000000000630    0.0900
26     H26    -2.3776   -2.5109    0.8978 H        1 ZINC000000000630    0.0900
27     H27    -3.6916   -0.7885    3.8023 H        1 ZINC000000000630    0.0400
28     H28    -5.0601   -1.8022    3.2854 H        1 ZINC000000000630    0.0700
29     H29    -4.7601   -1.8749    5.7521 H        1 ZINC000000000630    0.0700
30     H30    -4.4851   -3.4739    5.0184 H        1 ZINC000000000630    0.0700
31     H31    -2.3280   -1.4646    5.8151 H        1 ZINC000000000630    0.0600
32     H32    -2.7146   -2.9818    6.6641 H        1 ZINC000000000630    0.0600
33     H33    -0.7507   -3.2383    5.1415 H        1 ZINC000000000630    0.0700
34     H34    -2.1098   -4.2816    4.6567 H        1 ZINC000000000630    0.0700
35     H35    -1.1401   -3.1352    2.6885 H        1 ZINC000000000630    0.0700
36     H36    -1.4314   -1.5571    3.4581 H        1 ZINC000000000630    0.0600
@<TRIPOS>BOND
1     1     2     2
2     2     3     2
3     2     4     1
4     4     8     1
5     4     5     2
6     5     6     1
7     6     7     2
8     6     20    1
9     7     8     1
10    7     21    1
11    8     9     1
12    9     10    1
13    9     22    1
14    9     23    1
15    10    11    1
16    10    12    1
17    10    13    1
18    12    24    1
19    13    14    1
20    13    25    1
21    13    26    1
22    14    19    1
23    14    15    1
24    15    16    1
25    15    27    1
26    15    28    1
27    16    17    1
28    16    29    1
29    16    30    1
30    17    18    1
31    17    31    1
32    17    32    1
33    18    19    1
34    18    33    1
35    18    34    1
36    19    35    1
37    19    36    1
@<TRIPOS>SUBSTRUCTURE
1   ZINC000000000630 1     RESIDUE    1   A     ZIN   1
