@<TRIPOS>MOLECULE
ZINC000028764836
49    52    1     0     0
SMALL
USER_CHARGES
@<TRIPOS>ATOM
1      N1     -0.0167    1.3794    0.0096 N.pl3    1 ZINC000028764836   -0.8100
2      C2      0.0021   -0.0041    0.0020 C.ar     1 ZINC000028764836    0.5400
3      C3     -1.1961   -0.7385    0.0037 C.ar     1 ZINC000028764836   -0.1300
4      N4     -2.5120   -0.4126    0.0116 N.2      1 ZINC000028764836   -0.4600
5      C5     -3.2271   -1.4994    0.0091 C.2      1 ZINC000028764836    0.2800
6      N6     -2.4120   -2.5932   -0.0006 N.pl3    1 ZINC000028764836   -0.4600
7      C7     -2.8410   -3.9940   -0.0066 C.3      1 ZINC000028764836    0.3200
8      H8     -2.1635   -4.5991   -0.6090 H        1 ZINC000028764836    0.1300
9      O9     -4.1951   -4.1089   -0.4943 O.3      1 ZINC000028764836   -0.3500
10     C10    -4.7108   -5.3603   -0.0100 C.3      1 ZINC000028764836    0.0600
11     H11    -4.5456   -6.1413   -0.7522 H        1 ZINC000028764836    0.1000
12     C12    -6.2068   -5.2284    0.2820 C.3      1 ZINC000028764836    0.0800
13     O13    -6.9140   -5.0150   -0.9413 O.3      1 ZINC000028764836   -0.5600
14     C14    -3.9486   -5.6992    1.2857 C.3      1 ZINC000028764836    0.0500
15     H15    -4.6313   -5.7217    2.1351 H        1 ZINC000028764836    0.0900
16     O16    -3.2727   -6.9515    1.1554 O.3      1 ZINC000028764836   -0.5500
17     C17    -2.9256   -4.5451    1.4396 C.3      1 ZINC000028764836    0.0700
18     H18    -1.9594   -4.9237    1.7730 H        1 ZINC000028764836    0.1000
19     O19    -3.4156   -3.5454    2.3355 O.3      1 ZINC000028764836   -0.5400
20     C20    -1.1169   -2.1409   -0.0043 C.ar     1 ZINC000028764836    0.3400
21     N21     0.0788   -2.7217   -0.0130 N.ar     1 ZINC000028764836   -0.5700
22     C22     1.1808   -1.9923   -0.0143 C.ar     1 ZINC000028764836    0.5700
23     O23     2.3810   -2.6212   -0.0233 O.3      1 ZINC000028764836   -0.2900
24     C24     3.5466   -1.7945   -0.0243 C.3      1 ZINC000028764836    0.0800
25     C25     4.7971   -2.6761   -0.0350 C.3      1 ZINC000028764836   -0.0800
26     C26     6.0263   -1.8043   -0.0360 C.ar     1 ZINC000028764836   -0.0800
27     C27     6.5809   -1.3935   -1.2338 C.ar     1 ZINC000028764836   -0.1000
28     C28     7.7083   -0.5939   -1.2354 C.ar     1 ZINC000028764836   -0.1100
29     C29     8.2817   -0.2047   -0.0380 C.ar     1 ZINC000028764836   -0.0300
30     Cl30    9.6974    0.8001   -0.0392 Cl       1 ZINC000028764836   -0.0700
31     C31     7.7262   -0.6161    1.1604 C.ar     1 ZINC000028764836   -0.1100
32     C32     6.5955   -1.4111    1.1608 C.ar     1 ZINC000028764836   -0.1000
33     N33     1.1533   -0.6673   -0.0125 N.ar     1 ZINC000028764836   -0.6300
34     H34     0.8167    1.8758    0.0043 H        1 ZINC000028764836    0.4100
35     H35    -0.8632    1.8530    0.0162 H        1 ZINC000028764836    0.4200
36     H36    -4.3067   -1.5310    0.0143 H        1 ZINC000028764836    0.2200
37     H37    -6.5666   -6.1421    0.7550 H        1 ZINC000028764836    0.0600
38     H38    -6.3735   -4.3835    0.9502 H        1 ZINC000028764836    0.0600
39     H39    -7.8703   -4.9221   -0.8317 H        1 ZINC000028764836    0.3900
40     H40    -3.8621   -7.7021    0.9992 H        1 ZINC000028764836    0.3900
41     H41    -3.5739   -3.8660    3.2340 H        1 ZINC000028764836    0.3900
42     H42     3.5415   -1.1604   -0.9109 H        1 ZINC000028764836    0.0700
43     H43     3.5499   -1.1700    0.8690 H        1 ZINC000028764836    0.0700
44     H44     4.8021   -3.3102    0.8516 H        1 ZINC000028764836    0.0900
45     H45     4.7937   -3.3006   -0.9283 H        1 ZINC000028764836    0.0900
46     H46     6.1334   -1.6976   -2.1685 H        1 ZINC000028764836    0.1300
47     H47     8.1418   -0.2733   -2.1712 H        1 ZINC000028764836    0.1400
48     H48     8.1736   -0.3129    2.0955 H        1 ZINC000028764836    0.1400
49     H49     6.1615   -1.7320    2.0963 H        1 ZINC000028764836    0.1300
@<TRIPOS>BOND
1     1     2     1
2     1     34    1
3     1     35    1
4     2     33    ar
5     2     3     ar
6     3     20    ar
7     3     4     1
8     4     5     2
9     5     6     1
10    5     36    1
11    6     7     1
12    6     20    1
13    7     8     1
14    7     17    1
15    7     9     1
16    9     10    1
17    10    11    1
18    10    12    1
19    10    14    1
20    12    13    1
21    12    37    1
22    12    38    1
23    13    39    1
24    14    15    1
25    14    16    1
26    14    17    1
27    16    40    1
28    17    18    1
29    17    19    1
30    19    41    1
31    20    21    ar
32    21    22    ar
33    22    23    1
34    22    33    ar
35    23    24    1
36    24    25    1
37    24    42    1
38    24    43    1
39    25    26    1
40    25    44    1
41    25    45    1
42    26    32    ar
43    26    27    ar
44    27    28    ar
45    27    46    1
46    28    29    ar
47    28    47    1
48    29    30    1
49    29    31    ar
50    31    32    ar
51    31    48    1
52    32    49    1
@<TRIPOS>SUBSTRUCTURE
1   ZINC000028764836 1     RESIDUE    1   A     ZIN   1
