@<TRIPOS>MOLECULE
ZINC000024492326
  15   14    0    0    0
SMALL
USER_CHARGES
NO_NAME
@<TRIPOS>ATOM
    1 O1        0.0021    -0.0041     0.0020 O.2    1 <0>      -0.4200
    2 C2       -0.0143     1.2034     0.0087 C.2    1 <0>       0.3400
    3 C3        1.2804     1.9746     0.0004 C.3    1 <0>       0.0300
    4 O4        2.3790     1.0609    -0.0150 O.3    1 <0>      -0.5600
    5 C5       -1.3295     1.9391     0.0189 C.3    1 <0>       0.0900
    6 O6       -2.4029     0.9958     0.0189 O.3    1 <0>      -0.7400
    7 P7       -3.9529     1.4313     0.0286 P.3    1 <0>       2.1200
    8 O8       -4.2207     2.3816     1.2450 O.co2  1 <0>      -1.1800
    9 O9       -4.2931     2.1808    -1.3044 O.co2  1 <0>      -1.1800
   10 O10      -4.8531     0.1552     0.1546 O.co2  1 <0>      -1.1600
   11 H11       1.3211     2.6067    -0.8866 H      1 <0>       0.0800
   12 H12       1.3381     2.5972     0.8933 H      1 <0>       0.0800
   13 H13       3.2462     1.4886    -0.0209 H      1 <0>       0.3700
   14 H14      -1.3915     2.5601     0.9126 H      1 <0>       0.0700
   15 H15      -1.3999     2.5697    -0.8673 H      1 <0>       0.0700
@<TRIPOS>BOND
   1    1    2 2
   2    2    3 1
   3    2    5 1
   4    3    4 1
   5    3   11 1
   6    3   12 1
   7    4   13 1
   8    5    6 1
   9    5   14 1
  10    5   15 1
  11    6    7 1
  12    7    8 ar
  13    7    9 ar
  14    7   10 ar
