@<TRIPOS>MOLECULE
ZINC000003870431
41    42    1     0     0
SMALL
USER_CHARGES
@<TRIPOS>ATOM
1      C1     -0.0173    1.4248    0.0099 C.3      1 ZINC000003870431    0.0300
2      O2      0.0021   -0.0041    0.0020 O.3      1 ZINC000003870431   -0.3200
3      C3     -1.2009   -0.6378    0.0101 C.ar     1 ZINC000003870431    0.1100
4      C4     -2.3739    0.1025    0.0196 C.ar     1 ZINC000003870431   -0.2000
5      C5     -3.6011   -0.5347    0.0260 C.ar     1 ZINC000003870431   -0.0700
6      C6     -3.6611   -1.9189    0.0227 C.ar     1 ZINC000003870431    0.0800
7      N7     -4.8949   -2.5815    0.0184 N.pl3    1 ZINC000003870431   -0.5400
8      C8     -4.9701   -3.8974    0.2928 C.2      1 ZINC000003870431    0.3000
9      S9     -6.4851   -4.6913    0.2193 S.2      1 ZINC000003870431   -0.7600
10     C10    -3.7366   -4.6803    0.6635 C.3      1 ZINC000003870431    0.1800
11     H11    -3.8416   -5.7099    0.3214 H        1 ZINC000003870431    0.1300
12     C12    -3.5559   -4.6618    2.1827 C.3      1 ZINC000003870431   -0.0800
13     S13    -2.0711   -5.6045    2.6267 S.3      1 ZINC000003870431   -0.2400
14     C14    -2.0272   -5.4690    4.4351 C.3      1 ZINC000003870431   -0.1300
15     N15    -2.5665   -4.0649    0.0197 N.am     1 ZINC000003870431   -0.5200
16     C16    -1.6079   -4.8220   -0.5500 C.2      1 ZINC000003870431    0.6600
17     O17    -1.7025   -6.0334   -0.5368 O.2      1 ZINC000003870431   -0.5500
18     O18    -0.5454   -4.2359   -1.1338 O.3      1 ZINC000003870431   -0.3500
19     C19     0.4478   -5.1132   -1.7272 C.3      1 ZINC000003870431    0.0900
20     C20     1.1116   -4.4056   -2.9103 C.3      1 ZINC000003870431   -0.1500
21     C21     1.5087   -5.4633   -0.6818 C.3      1 ZINC000003870431   -0.1700
22     C22    -2.4799   -2.6636    0.0168 C.ar     1 ZINC000003870431    0.1200
23     C23    -1.2539   -2.0250    0.0032 C.ar     1 ZINC000003870431   -0.1400
24     H24     1.0053    1.8021    0.0021 H        1 ZINC000003870431    0.0900
25     H25    -0.5445    1.7859   -0.8732 H        1 ZINC000003870431    0.0500
26     H26    -0.5275    1.7763    0.9067 H        1 ZINC000003870431    0.0500
27     H27    -2.3285    1.1815    0.0222 H        1 ZINC000003870431    0.1200
28     H28    -4.5117    0.0459    0.0340 H        1 ZINC000003870431    0.1300
29     H29    -3.4478   -3.6320    2.5232 H        1 ZINC000003870431    0.0800
30     H30    -4.4276   -5.1119    2.6578 H        1 ZINC000003870431    0.1100
31     H31    -1.1608   -6.0077    4.8189 H        1 ZINC000003870431    0.1000
32     H32    -1.9574   -4.4190    4.7192 H        1 ZINC000003870431    0.0700
33     H33    -2.9371   -5.8989    4.8538 H        1 ZINC000003870431    0.0800
34     H34    -0.0352   -6.0265   -2.0746 H        1 ZINC000003870431    0.0900
35     H35     1.5946   -3.4923   -2.5629 H        1 ZINC000003870431    0.0700
36     H36     1.8572   -5.0642   -3.3557 H        1 ZINC000003870431    0.0800
37     H37     0.3558   -4.1562   -3.6550 H        1 ZINC000003870431    0.0600
38     H38     1.9918   -4.5500   -0.3344 H        1 ZINC000003870431    0.0600
39     H39     1.0358   -5.9674    0.1610 H        1 ZINC000003870431    0.0700
40     H40     2.2543   -6.1219   -1.1273 H        1 ZINC000003870431    0.0700
41     H41    -0.3414   -2.6027   -0.0085 H        1 ZINC000003870431    0.1400
@<TRIPOS>BOND
1     1     2     1
2     1     24    1
3     1     25    1
4     1     26    1
5     2     3     1
6     3     23    ar
7     3     4     ar
8     4     5     ar
9     4     27    1
10    5     6     ar
11    5     28    1
12    6     22    ar
13    6     7     1
14    7     8     1
15    8     9     2
16    8     10    1
17    10    11    1
18    10    12    1
19    10    15    1
20    12    13    1
21    12    29    1
22    12    30    1
23    13    14    1
24    14    31    1
25    14    32    1
26    14    33    1
27    15    16    am
28    15    22    1
29    16    17    2
30    16    18    1
31    18    19    1
32    19    20    1
33    19    21    1
34    19    34    1
35    20    35    1
36    20    36    1
37    20    37    1
38    21    38    1
39    21    39    1
40    21    40    1
41    22    23    ar
42    23    41    1
@<TRIPOS>SUBSTRUCTURE
1   ZINC000003870431 1     RESIDUE    1   A     ZIN   1
