@<TRIPOS>MOLECULE
ZINC000004097472
  66   69    0    0    0
SMALL
USER_CHARGES
NO_NAME
@<TRIPOS>ATOM
    1 C1       -0.5811     1.5422    -0.2326 C.3    1 <0>      -0.1700
    2 C2       -0.7643     0.0236    -0.1972 C.3    1 <0>      -0.0400
    3 C3       -2.1165    -0.3171     0.3994 C.3    1 <0>      -0.1300
    4 C4       -2.1981     0.3823     1.7654 C.3    1 <0>       0.1100
    5 H5       -3.1466     0.1284     2.2386 H      1 <0>       0.0600
    6 O6       -2.1397     1.7965     1.5690 O.3    1 <0>      -0.5500
    7 C7       -1.0553    -0.0383     2.6847 C.3    1 <0>      -0.0600
    8 H8       -1.1682    -1.0942     2.9307 H      1 <0>       0.0800
    9 C9        0.3153     0.1778     2.0269 C.3    1 <0>      -0.0800
   10 H10       0.4737     1.2391     1.8358 H      1 <0>       0.1000
   11 C11       1.4063    -0.3542     2.9608 C.3    1 <0>      -0.1100
   12 C12       1.4273     0.4862     4.2394 C.3    1 <0>      -0.1000
   13 C13       0.0386     0.4781     4.8521 C.2    1 <0>      -0.0100
   14 C14      -0.0639     0.2041     6.1524 C.2    1 <0>      -0.2500
   15 C15      -1.3804     0.1990     6.7992 C.2    1 <0>       0.3900
   16 O16      -1.5803    -0.3972     7.8368 O.2    1 <0>      -0.4600
   17 C17      -2.4784     0.9781     6.1017 C.3    1 <0>      -0.1700
   18 C18      -2.4824     0.5488     4.6353 C.3    1 <0>      -0.1000
   19 C19      -1.1212     0.7849     3.9773 C.3    1 <0>      -0.0300
   20 C20      -1.0352     2.2606     3.5827 C.3    1 <0>      -0.1400
   21 C21       0.3136    -0.6154     0.7191 C.3    1 <0>      -0.0800
   22 H22       0.0890    -1.6644     0.9125 H      1 <0>       0.0800
   23 C23       1.5785    -0.4896    -0.1375 C.3    1 <0>      -0.1100
   24 C24       1.0748    -0.8629    -1.5585 C.3    1 <0>      -0.1500
   25 C25      -0.4537    -0.5667    -1.5688 C.3    1 <0>       0.1100
   26 O26      -1.1915    -1.7777    -1.7460 O.3    1 <0>      -0.5400
   27 C27      -0.7882     0.4145    -2.6626 C.2    1 <0>       0.3400
   28 O28       0.0486     1.1936    -3.0514 O.2    1 <0>      -0.4100
   29 C29      -2.1667     0.4234    -3.2712 C.3    1 <0>       0.0200
   30 O30      -2.2373     1.4508    -4.2948 O.3    1 <0>      -0.3400
   31 C31      -3.4068     1.5903    -4.9387 C.2    1 <0>       0.4600
   32 O32      -4.3406     0.8775    -4.6563 O.2    1 <0>      -0.5100
   33 C33      -3.5550     2.6359    -6.0137 C.3    1 <0>      -0.0900
   34 C34      -4.9745     2.5850    -6.5824 C.3    1 <0>      -0.1700
   35 C35      -5.1228     3.6306    -7.6575 C.2    1 <0>       0.4900
   36 O36      -4.1804     4.3499    -7.9424 O.co2  1 <0>      -0.7000
   37 O37      -6.1850     3.7573    -8.2423 O.co2  1 <0>      -0.7000
   38 H38       0.3118     1.7871    -0.8079 H      1 <0>       0.0500
   39 H39      -1.4518     2.0024    -0.6996 H      1 <0>       0.0500
   40 H40      -0.4726     1.9189     0.7845 H      1 <0>       0.1100
   41 H41      -2.9118     0.0457    -0.2517 H      1 <0>       0.0700
   42 H42      -2.2042    -1.3959     0.5287 H      1 <0>       0.0800
   43 H43      -2.8550     2.1474     1.0211 H      1 <0>       0.3700
   44 H44       1.1959    -1.3938     3.2117 H      1 <0>       0.0600
   45 H45       2.3747    -0.2871     2.4650 H      1 <0>       0.0700
   46 H46       2.1405     0.0602     4.9451 H      1 <0>       0.0800
   47 H47       1.7147     1.5098     3.9992 H      1 <0>       0.0900
   48 H48       0.8223    -0.0145     6.7297 H      1 <0>       0.1300
   49 H49      -3.4418     0.7494     6.5574 H      1 <0>       0.0900
   50 H50      -2.2776     2.0470     6.1743 H      1 <0>       0.1000
   51 H51      -2.7244    -0.5123     4.5765 H      1 <0>       0.0600
   52 H52      -3.2449     1.1158     4.1013 H      1 <0>       0.0900
   53 H53      -0.7383     2.8517     4.4491 H      1 <0>       0.0400
   54 H54      -0.2973     2.3823     2.7898 H      1 <0>       0.0700
   55 H55      -2.0087     2.5993     3.2282 H      1 <0>       0.0900
   56 H56       1.9569     0.5324    -0.1187 H      1 <0>       0.0700
   57 H57       2.3425    -1.1912     0.1974 H      1 <0>       0.0700
   58 H58       1.5762    -0.2488    -2.3065 H      1 <0>       0.0800
   59 H59       1.2597    -1.9189    -1.7556 H      1 <0>       0.0800
   60 H60      -1.0091    -2.2308    -2.5805 H      1 <0>       0.3800
   61 H61      -2.3730    -0.5493    -3.7179 H      1 <0>       0.1000
   62 H62      -2.9047     0.6312    -2.4964 H      1 <0>       0.1000
   63 H63      -3.3688     3.6224    -5.5892 H      1 <0>       0.1100
   64 H64      -2.8372     2.4419    -6.8107 H      1 <0>       0.1100
   65 H65      -5.1607     1.5985    -7.0069 H      1 <0>       0.0700
   66 H66      -5.6924     2.7790    -5.7854 H      1 <0>       0.0700
@<TRIPOS>BOND
   1    1    2 1
   2    1   38 1
   3    1   39 1
   4    1   40 1
   5    2   21 1
   6    2   25 1
   7    2    3 1
   8    3    4 1
   9    3   41 1
  10    3   42 1
  11    4    5 1
  12    4    6 1
  13    4    7 1
  14    6   43 1
  15    7    8 1
  16    7   19 1
  17    7    9 1
  18    9   10 1
  19    9   11 1
  20    9   21 1
  21   11   12 1
  22   11   44 1
  23   11   45 1
  24   12   13 1
  25   12   46 1
  26   12   47 1
  27   13   19 1
  28   13   14 2
  29   14   15 1
  30   14   48 1
  31   15   16 2
  32   15   17 1
  33   17   18 1
  34   17   49 1
  35   17   50 1
  36   18   19 1
  37   18   51 1
  38   18   52 1
  39   19   20 1
  40   20   53 1
  41   20   54 1
  42   20   55 1
  43   21   22 1
  44   21   23 1
  45   23   24 1
  46   23   56 1
  47   23   57 1
  48   24   25 1
  49   24   58 1
  50   24   59 1
  51   25   26 1
  52   25   27 1
  53   26   60 1
  54   27   28 2
  55   27   29 1
  56   29   30 1
  57   29   61 1
  58   29   62 1
  59   30   31 1
  60   31   32 2
  61   31   33 1
  62   33   34 1
  63   33   63 1
  64   33   64 1
  65   34   35 1
  66   34   65 1
  67   34   66 1
  68   35   36 ar
  69   35   37 ar
