@<TRIPOS>MOLECULE
ZINC000059498704
76    76    1     0     0
SMALL
USER_CHARGES
@<TRIPOS>ATOM
1      C1      0.4938    1.5808    0.0262 C.3      1 ZINC000059498704   -0.1200
2      C2      0.2196    0.0990    0.0379 C.2      1 ZINC000059498704   -0.1300
3      C3      0.3749   -0.6859    1.3149 C.3      1 ZINC000059498704   -0.1200
4      C4     -0.1537   -0.5067   -1.0620 C.2      1 ZINC000059498704   -0.1700
5      C5     -0.1858    0.2496   -2.3651 C.3      1 ZINC000059498704   -0.0900
6      C6      0.6526   -0.4937   -3.4070 C.3      1 ZINC000059498704   -0.0800
7      C7      0.6205    0.2627   -4.7100 C.2      1 ZINC000059498704   -0.1300
8      C8     -0.5131    0.0462   -5.6792 C.3      1 ZINC000059498704   -0.1200
9      C9      1.5780    1.1083   -5.0003 C.2      1 ZINC000059498704   -0.1600
10     C10     1.4823    1.9579   -6.2412 C.3      1 ZINC000059498704   -0.0900
11     C11     1.6350    3.4325   -5.8627 C.3      1 ZINC000059498704   -0.0800
12     C12     1.5393    4.2822   -7.1037 C.2      1 ZINC000059498704   -0.1300
13     C13     2.7636    4.5218   -7.9491 C.3      1 ZINC000059498704   -0.1200
14     C14     0.3919    4.8125   -7.4475 C.2      1 ZINC000059498704   -0.1700
15     C15     0.2694    5.5667   -8.7465 C.3      1 ZINC000059498704   -0.0900
16     C16    -0.8715    4.9731   -9.5753 C.3      1 ZINC000059498704   -0.1400
17     C17    -0.9958    5.7388  -10.8940 C.3      1 ZINC000059498704    0.1300
18     C18    -1.1655    7.2313  -10.6032 C.3      1 ZINC000059498704   -0.1500
19     O19     0.1837    5.5368  -11.6751 O.3      1 ZINC000059498704   -0.5500
20     C20    -2.2132    5.2282  -11.6674 C.3      1 ZINC000059498704   -0.1400
21     C21    -2.3375    5.9939  -12.9862 C.3      1 ZINC000059498704   -0.0800
22     C22    -3.5367    5.4911  -13.7479 C.2      1 ZINC000059498704   -0.1200
23     C23    -4.7116    6.1271  -13.6437 C.2      1 ZINC000059498704   -0.1200
24     C24    -4.8338    7.3451  -12.7648 C.3      1 ZINC000059498704   -0.1200
25     C25    -5.8868    5.6345  -14.3908 C.2      1 ZINC000059498704    0.4100
26     O26    -6.9516    6.2108  -14.2964 O.2      1 ZINC000059498704   -0.4100
27     C27    -5.7669    4.4411  -15.2530 C.2      1 ZINC000059498704   -0.1300
28     C28    -6.9658    3.9389  -16.0155 C.3      1 ZINC000059498704   -0.1200
29     C29    -4.5918    3.8054  -15.3575 C.2      1 ZINC000059498704   -0.1300
30     C30    -4.4693    2.5882  -16.2375 C.3      1 ZINC000059498704   -0.1200
31     C31    -3.4154    4.3007  -14.6141 C.2      1 ZINC000059498704    0.4100
32     O32    -2.3505    3.7246  -14.7088 O.2      1 ZINC000059498704   -0.4100
33     H33     0.7020    1.9198    1.0410 H        1 ZINC000059498704    0.0600
34     H34     1.3553    1.7859   -0.6093 H        1 ZINC000059498704    0.0700
35     H35    -0.3775    2.1085   -0.3616 H        1 ZINC000059498704    0.0600
36     H36    -0.5716   -0.6913    1.8555 H        1 ZINC000059498704    0.0700
37     H37     0.6644   -1.7100    1.0790 H        1 ZINC000059498704    0.0600
38     H38     1.1442   -0.2243    1.9339 H        1 ZINC000059498704    0.0600
39     H39    -0.4385   -1.5481   -1.0350 H        1 ZINC000059498704    0.1100
40     H40    -1.2152    0.3269   -2.7151 H        1 ZINC000059498704    0.0700
41     H41     0.2231    1.2489   -2.2154 H        1 ZINC000059498704    0.0700
42     H42     1.6820   -0.5710   -3.0570 H        1 ZINC000059498704    0.0700
43     H43     0.2437   -1.4929   -3.5567 H        1 ZINC000059498704    0.0700
44     H44    -1.1588   -0.7509   -5.3108 H        1 ZINC000059498704    0.0600
45     H45    -1.0899    0.9661   -5.7749 H        1 ZINC000059498704    0.0600
46     H46    -0.1104   -0.2331   -6.6528 H        1 ZINC000059498704    0.0600
47     H47     2.4360    1.1965   -4.3503 H        1 ZINC000059498704    0.1100
48     H48     2.2742    1.6772   -6.9357 H        1 ZINC000059498704    0.0700
49     H49     0.5125    1.8027   -6.7140 H        1 ZINC000059498704    0.0700
50     H50     0.8431    3.7132   -5.1682 H        1 ZINC000059498704    0.0700
51     H51     2.6048    3.5877   -5.3900 H        1 ZINC000059498704    0.0700
52     H52     3.5996    3.9485   -7.5485 H        1 ZINC000059498704    0.0600
53     H53     2.5650    4.2070   -8.9736 H        1 ZINC000059498704    0.0700
54     H54     3.0117    5.5831   -7.9366 H        1 ZINC000059498704    0.0700
55     H55    -0.4664    4.7092   -6.8001 H        1 ZINC000059498704    0.1000
56     H56     0.0599    6.6161   -8.5390 H        1 ZINC000059498704    0.0700
57     H57     1.2031    5.4857   -9.3030 H        1 ZINC000059498704    0.0800
58     H58    -0.6620    3.9237   -9.7828 H        1 ZINC000059498704    0.0700
59     H59    -1.8052    5.0540   -9.0187 H        1 ZINC000059498704    0.0700
60     H60    -0.2982    7.5950  -10.0522 H        1 ZINC000059498704    0.0700
61     H61    -1.2541    7.7768  -11.5427 H        1 ZINC000059498704    0.0600
62     H62    -2.0652    7.3853  -10.0074 H        1 ZINC000059498704    0.0700
63     H63     0.3545    4.6114  -11.8975 H        1 ZINC000059498704    0.3800
64     H64    -2.0923    4.1650  -11.8746 H        1 ZINC000059498704    0.0700
65     H65    -3.1129    5.3823  -11.0716 H        1 ZINC000059498704    0.0700
66     H66    -2.4584    7.0572  -12.7789 H        1 ZINC000059498704    0.0900
67     H67    -1.4378    5.8399  -13.5819 H        1 ZINC000059498704    0.0900
68     H68    -4.6093    8.2381  -13.3482 H        1 ZINC000059498704    0.0800
69     H69    -5.8495    7.4116  -12.3751 H        1 ZINC000059498704    0.0800
70     H70    -4.1308    7.2667  -11.9355 H        1 ZINC000059498704    0.0800
71     H71    -7.8232    4.5787  -15.8069 H        1 ZINC000059498704    0.0800
72     H72    -6.7504    3.9568  -17.0839 H        1 ZINC000059498704    0.0800
73     H73    -7.1908    2.9179  -15.7073 H        1 ZINC000059498704    0.0800
74     H74    -4.1857    2.8948  -17.2443 H        1 ZINC000059498704    0.0900
75     H75    -3.7074    1.9222  -15.8324 H        1 ZINC000059498704    0.0800
76     H76    -5.4261    2.0672  -16.2723 H        1 ZINC000059498704    0.0800
@<TRIPOS>BOND
1     1     2     1
2     1     33    1
3     1     34    1
4     1     35    1
5     2     3     1
6     2     4     2
7     3     36    1
8     3     37    1
9     3     38    1
10    4     5     1
11    4     39    1
12    5     6     1
13    5     40    1
14    5     41    1
15    6     7     1
16    6     42    1
17    6     43    1
18    7     8     1
19    7     9     2
20    8     44    1
21    8     45    1
22    8     46    1
23    9     10    1
24    9     47    1
25    10    11    1
26    10    48    1
27    10    49    1
28    11    12    1
29    11    50    1
30    11    51    1
31    12    13    1
32    12    14    2
33    13    52    1
34    13    53    1
35    13    54    1
36    14    15    1
37    14    55    1
38    15    16    1
39    15    56    1
40    15    57    1
41    16    17    1
42    16    58    1
43    16    59    1
44    17    18    1
45    17    19    1
46    17    20    1
47    18    60    1
48    18    61    1
49    18    62    1
50    19    63    1
51    20    21    1
52    20    64    1
53    20    65    1
54    21    22    1
55    21    66    1
56    21    67    1
57    22    31    1
58    22    23    2
59    23    24    1
60    23    25    1
61    24    68    1
62    24    69    1
63    24    70    1
64    25    26    2
65    25    27    1
66    27    28    1
67    27    29    2
68    28    71    1
69    28    72    1
70    28    73    1
71    29    30    1
72    29    31    1
73    30    74    1
74    30    75    1
75    30    76    1
76    31    32    2
@<TRIPOS>SUBSTRUCTURE
1   ZINC000059498704 1     RESIDUE    1   A     ZIN   1
