@<TRIPOS>MOLECULE
ZINC000001817747
37    38    1     0     0
SMALL
USER_CHARGES
@<TRIPOS>ATOM
1      C1     -0.0187    1.5258    0.0104 C.3      1 ZINC000001817747   -0.1600
2      C2      0.0021   -0.0041    0.0020 C.3      1 ZINC000001817747    0.1300
3      H3      0.5293   -0.3651    0.8851 H        1 ZINC000001817747    0.1000
4      C4     -1.4333   -0.5336    0.0129 C.3      1 ZINC000001817747    0.1100
5      N5     -1.4164   -1.9929   -0.1155 N.am     1 ZINC000001817747   -0.7300
6      C6     -2.5748   -2.6816   -0.1296 C.2      1 ZINC000001817747    0.5700
7      O7     -3.6336   -2.0920   -0.0358 O.2      1 ZINC000001817747   -0.5300
8      C8     -2.5578   -4.1542   -0.2592 C.ar     1 ZINC000001817747   -0.1900
9      C9     -3.7542   -4.8807   -0.2810 C.ar     1 ZINC000001817747   -0.0100
10     C10    -3.6834   -6.2573   -0.4045 C.ar     1 ZINC000001817747   -0.1800
11     C11    -2.4450   -6.8656   -0.5015 C.ar     1 ZINC000001817747    0.1200
12     N12    -1.3334   -6.1550   -0.4777 N.ar     1 ZINC000001817747   -0.4900
13     C13    -1.3489   -4.8431   -0.3676 C.ar     1 ZINC000001817747    0.1400
14     N14     0.6878   -0.4765   -1.2033 N.am     1 ZINC000001817747   -0.7300
15     C15     2.0310   -0.5870   -1.2149 C.2      1 ZINC000001817747    0.5700
16     O16     2.6734   -0.2946   -0.2254 O.2      1 ZINC000001817747   -0.5300
17     C17     2.7230   -1.0638   -2.4313 C.ar     1 ZINC000001817747   -0.1900
18     C18     4.1170   -1.1885   -2.4544 C.ar     1 ZINC000001817747   -0.0100
19     C19     4.7160   -1.6397   -3.6176 C.ar     1 ZINC000001817747   -0.1800
20     C20     3.9259   -1.9500   -4.7095 C.ar     1 ZINC000001817747    0.1300
21     N21     2.6135   -1.8222   -4.6590 N.ar     1 ZINC000001817747   -0.4900
22     C22     1.9969   -1.4026   -3.5740 C.ar     1 ZINC000001817747    0.1400
23     H23     1.0039    1.9031    0.0027 H        1 ZINC000001817747    0.0700
24     H24    -0.5459    1.8868   -0.8726 H        1 ZINC000001817747    0.0600
25     H25    -0.5289    1.8773    0.9072 H        1 ZINC000001817747    0.0700
26     H26    -1.9156   -0.2570    0.9504 H        1 ZINC000001817747    0.0900
27     H27    -1.9862   -0.1019   -0.8214 H        1 ZINC000001817747    0.0800
28     H28    -0.5715   -2.4635   -0.1904 H        1 ZINC000001817747    0.4000
29     H29    -4.7078   -4.3798   -0.2031 H        1 ZINC000001817747    0.1500
30     H30    -4.5857   -6.8505   -0.4246 H        1 ZINC000001817747    0.1500
31     H31    -2.3869   -7.9397   -0.5980 H        1 ZINC000001817747    0.1600
32     H32    -0.4178   -4.2961   -0.3521 H        1 ZINC000001817747    0.1500
33     H33     0.1751   -0.7099   -1.9930 H        1 ZINC000001817747    0.4000
34     H34     4.7100   -0.9387   -1.5869 H        1 ZINC000001817747    0.1500
35     H35     5.7892   -1.7480   -3.6722 H        1 ZINC000001817747    0.1500
36     H36     4.3907   -2.3023   -5.6185 H        1 ZINC000001817747    0.1600
37     H37     0.9208   -1.3113   -3.5711 H        1 ZINC000001817747    0.1600
@<TRIPOS>BOND
1     1     2     1
2     1     23    1
3     1     24    1
4     1     25    1
5     2     3     1
6     2     4     1
7     2     14    1
8     4     5     1
9     4     26    1
10    4     27    1
11    5     6     am
12    5     28    1
13    6     7     2
14    6     8     1
15    8     13    ar
16    8     9     ar
17    9     10    ar
18    9     29    1
19    10    11    ar
20    10    30    1
21    11    12    ar
22    11    31    1
23    12    13    ar
24    13    32    1
25    14    15    am
26    14    33    1
27    15    16    2
28    15    17    1
29    17    22    ar
30    17    18    ar
31    18    19    ar
32    18    34    1
33    19    20    ar
34    19    35    1
35    20    21    ar
36    20    36    1
37    21    22    ar
38    22    37    1
@<TRIPOS>SUBSTRUCTURE
1   ZINC000001817747 1     RESIDUE    1   A     ZIN   1
