@<TRIPOS>MOLECULE
ZINC000001665564
  45   46    0    0    0
SMALL
USER_CHARGES
NO_NAME
@<TRIPOS>ATOM
    1 N1       -0.0160     1.3282     0.0093 N.pl3  1 <0>      -0.7600
    2 C2        0.0021    -0.0041     0.0020 C.cat  1 <0>       0.6100
    3 N3        1.1649    -0.6545    -0.0126 N.pl3  1 <0>      -0.7600
    4 H4        1.9982    -0.1581    -0.0179 H      1 <0>       0.4300
    5 H5        1.1780    -1.6244    -0.0179 H      1 <0>       0.4400
    6 C6       -1.2673    -0.7602     0.0101 C.ar   1 <0>      -0.2000
    7 C7       -2.4000    -0.2200     0.6231 C.ar   1 <0>      -0.0200
    8 C8       -3.5815    -0.9278     0.6286 C.ar   1 <0>      -0.1500
    9 C9       -3.6474    -2.1782     0.0257 C.ar   1 <0>       0.2000
   10 O10      -4.8134    -2.8727     0.0331 O.3    1 <0>      -0.2900
   11 C11      -4.8109    -4.1515    -0.6047 C.3    1 <0>       0.0600
   12 C12      -6.2022    -4.7787    -0.4954 C.3    1 <0>      -0.1300
   13 C13      -6.1995    -6.1478    -1.1783 C.3    1 <0>       0.0600
   14 O14      -7.4990    -6.7336    -1.0762 O.3    1 <0>      -0.2900
   15 C15      -7.6682    -7.9587    -1.6352 C.ar   1 <0>       0.2000
   16 C16      -6.6004    -8.5867    -2.2651 C.ar   1 <0>      -0.2100
   17 C17      -6.7684    -9.8300    -2.8335 C.ar   1 <0>      -0.0100
   18 C18      -8.0136   -10.4597    -2.7760 C.ar   1 <0>      -0.2000
   19 C19      -8.1978   -11.7936    -3.3841 C.cat  1 <0>       0.6100
   20 N20      -9.0898   -12.6414    -2.8732 N.pl3  1 <0>      -0.7600
   21 N21      -7.4718   -12.1488    -4.4434 N.pl3  1 <0>      -0.7600
   22 H22      -6.8224   -11.5317    -4.8153 H      1 <0>       0.4400
   23 H23      -7.5927   -13.0246    -4.8427 H      1 <0>       0.4300
   24 C24      -9.0843    -9.8257    -2.1417 C.ar   1 <0>      -0.0200
   25 C25      -8.9074    -8.5845    -1.5714 C.ar   1 <0>      -0.1500
   26 C26      -2.5224    -2.7189    -0.5853 C.ar   1 <0>      -0.2100
   27 C27      -1.3390    -2.0143    -0.6003 C.ar   1 <0>      -0.0100
   28 H28       0.8174     1.8246     0.0041 H      1 <0>       0.4300
   29 H29      -0.8625     1.8017     0.0159 H      1 <0>       0.4500
   30 H30      -2.3494     0.7514     1.0925 H      1 <0>       0.1500
   31 H31      -4.4578    -0.5107     1.1025 H      1 <0>       0.1600
   32 H32      -4.5475    -4.0328    -1.6557 H      1 <0>       0.0800
   33 H33      -4.0814    -4.7988    -0.1181 H      1 <0>       0.0800
   34 H34      -6.4657    -4.8974     0.5556 H      1 <0>       0.1000
   35 H35      -6.9318    -4.1314    -0.9820 H      1 <0>       0.1000
   36 H36      -5.9360    -6.0291    -2.2293 H      1 <0>       0.0800
   37 H37      -5.4699    -6.7951    -0.6917 H      1 <0>       0.0800
   38 H38      -5.6378    -8.0991    -2.3092 H      1 <0>       0.1500
   39 H39      -5.9383   -10.3171    -3.3234 H      1 <0>       0.1400
   40 H40      -9.6183   -12.3828    -2.1021 H      1 <0>       0.4500
   41 H41      -9.2107   -13.5171    -3.2725 H      1 <0>       0.4300
   42 H42     -10.0488   -10.3095    -2.0956 H      1 <0>       0.1500
   43 H43      -9.7348    -8.0937    -1.0804 H      1 <0>       0.1600
   44 H44      -2.5772    -3.6911    -1.0526 H      1 <0>       0.1500
   45 H45      -0.4652    -2.4350    -1.0756 H      1 <0>       0.1400
@<TRIPOS>BOND
   1    1    2 ar
   2    1   28 1
   3    1   29 1
   4    2    3 ar
   5    2    6 1
   6    3    4 1
   7    3    5 1
   8    6   27 ar
   9    6    7 ar
  10    7    8 ar
  11    7   30 1
  12    8    9 ar
  13    8   31 1
  14    9   10 1
  15    9   26 ar
  16   10   11 1
  17   11   12 1
  18   11   32 1
  19   11   33 1
  20   12   13 1
  21   12   34 1
  22   12   35 1
  23   13   14 1
  24   13   36 1
  25   13   37 1
  26   14   15 1
  27   15   25 ar
  28   15   16 ar
  29   16   17 ar
  30   16   38 1
  31   17   18 ar
  32   17   39 1
  33   18   19 1
  34   18   24 ar
  35   19   20 ar
  36   19   21 ar
  37   20   40 1
  38   20   41 1
  39   21   22 1
  40   21   23 1
  41   24   25 ar
  42   24   42 1
  43   25   43 1
  44   26   27 ar
  45   26   44 1
  46   27   45 1
