@<TRIPOS>MOLECULE
ZINC000000388258
16    16    1     0     0
SMALL
USER_CHARGES
@<TRIPOS>ATOM
1      S1      0.0021   -0.0041    0.0020 S.2      1 ZINC000000388258   -0.7500
2      C2     -0.0211    1.7077    0.0114 C.2      1 ZINC000000388258    0.5000
3      S3      1.4497    2.5838    0.0021 S.3      1 ZINC000000388258   -0.7400
4      N4     -1.1974    2.3657    0.0206 N.am     1 ZINC000000388258   -0.5600
5      C5     -1.3619    3.8267    0.0229 C.3      1 ZINC000000388258    0.1000
6      C6     -2.8771    4.1170    0.0606 C.3      1 ZINC000000388258   -0.1300
7      C7     -3.4673    2.8080    0.6484 C.3      1 ZINC000000388258   -0.1300
8      C8     -2.5321    1.7396    0.0235 C.3      1 ZINC000000388258    0.1000
9      H9     -0.8809    4.2525    0.9034 H        1 ZINC000000388258    0.0700
10     H10    -0.9257    4.2503   -0.8817 H        1 ZINC000000388258    0.0700
11     H11    -3.0915    4.9636    0.7128 H        1 ZINC000000388258    0.0800
12     H12    -3.2606    4.2959   -0.9439 H        1 ZINC000000388258    0.0700
13     H13    -3.3997    2.8030    1.7363 H        1 ZINC000000388258    0.0700
14     H14    -4.4970    2.6624    0.3218 H        1 ZINC000000388258    0.0800
15     H15    -2.8493    1.5055   -0.9927 H        1 ZINC000000388258    0.0700
16     H16    -2.5232    0.8382    0.6363 H        1 ZINC000000388258    0.0900
@<TRIPOS>BOND
1     1     2     2
2     2     3     1
3     2     4     am
4     4     8     1
5     4     5     1
6     5     6     1
7     5     9     1
8     5     10    1
9     6     7     1
10    6     11    1
11    6     12    1
12    7     8     1
13    7     13    1
14    7     14    1
15    8     15    1
16    8     16    1
@<TRIPOS>SUBSTRUCTURE
1   ZINC000000388258 1     RESIDUE    1   A     ZIN   1
