@<TRIPOS>MOLECULE
ZINC000100369812
  44   45    0    0    0
SMALL
USER_CHARGES
NO_NAME
@<TRIPOS>ATOM
    1 C1        0.0483     1.3479     0.0051 C.2    1 <0>      -0.1200
    2 C2        0.0429     0.0198     0.0027 C.2    1 <0>       0.0200
    3 N3       -1.1340    -0.6704     0.0150 N.2    1 <0>      -0.4600
    4 C4       -1.1990    -1.9275    -0.2229 C.2    1 <0>       0.1900
    5 C5       -2.5545    -2.5854    -0.1968 C.3    1 <0>      -0.1200
    6 C6       -0.0042    -2.7831    -0.5265 C.3    1 <0>      -0.0900
    7 C7       -0.3625    -3.7726    -1.6052 C.2    1 <0>       0.4700
    8 O8        0.2429    -3.7720    -2.6509 O.2    1 <0>      -0.4700
    9 O9       -1.3542    -4.6547    -1.4044 O.3    1 <0>      -0.3500
   10 C10      -1.6445    -5.5779    -2.4868 C.3    1 <0>       0.0600
   11 C11      -2.7956    -6.4986    -2.0769 C.3    1 <0>      -0.1500
   12 C12       1.1673    -1.9204    -1.0016 C.3    1 <0>      -0.0300
   13 H13       2.0777    -2.5193    -1.0277 H      1 <0>       0.1200
   14 C14       0.8751    -1.3805    -2.3779 C.ar   1 <0>      -0.0400
   15 C15      -0.2959    -0.6851    -2.6131 C.ar   1 <0>      -0.1400
   16 C16      -0.5646    -0.1890    -3.8754 C.ar   1 <0>      -0.1100
   17 C17       0.3374    -0.3881    -4.9035 C.ar   1 <0>      -0.1000
   18 C18       1.5100    -1.0841    -4.6698 C.ar   1 <0>      -0.0400
   19 Cl19      2.6433    -1.3345    -5.9608 Cl     1 <0>      -0.0500
   20 C20       1.7815    -1.5762    -3.4046 C.ar   1 <0>       0.0400
   21 Cl21      3.2527    -2.4493    -3.1095 Cl     1 <0>      -0.0400
   22 C22       1.3417    -0.7560    -0.0200 C.3    1 <0>      -0.0700
   23 C23       2.4670     0.1358    -0.4775 C.2    1 <0>       0.4700
   24 O24       3.0741    -0.1279    -1.4884 O.2    1 <0>      -0.4700
   25 O25       2.7949     1.2232     0.2379 O.3    1 <0>      -0.3600
   26 C26       3.8890     2.0362    -0.2624 C.3    1 <0>       0.0300
   27 H27       0.9857     1.8842    -0.0093 H      1 <0>       0.1300
   28 H28      -0.8847     1.8917     0.0169 H      1 <0>       0.1200
   29 H29      -3.3156    -1.8404     0.0353 H      1 <0>       0.0900
   30 H30      -2.7632    -3.0265    -1.1715 H      1 <0>       0.0900
   31 H31      -2.5653    -3.3652     0.5647 H      1 <0>       0.0900
   32 H32       0.2894    -3.3232     0.3736 H      1 <0>       0.1400
   33 H33      -1.9278    -5.0164    -3.3771 H      1 <0>       0.0700
   34 H34      -0.7591    -6.1764    -2.7012 H      1 <0>       0.0700
   35 H35      -3.0135    -7.1917    -2.8895 H      1 <0>       0.0800
   36 H36      -2.5123    -7.0601    -1.1866 H      1 <0>       0.0700
   37 H37      -3.6810    -5.9001    -1.8625 H      1 <0>       0.0700
   38 H38      -1.0015    -0.5292    -1.8105 H      1 <0>       0.1500
   39 H39      -1.4801     0.3540    -4.0583 H      1 <0>       0.1300
   40 H40       0.1267    -0.0007    -5.8893 H      1 <0>       0.1400
   41 H41       1.5546    -1.1408     0.9774 H      1 <0>       0.1300
   42 H42       4.0500     2.8808     0.4075 H      1 <0>       0.1000
   43 H43       4.7961     1.4338    -0.3121 H      1 <0>       0.0700
   44 H44       3.6423     2.4043    -1.2583 H      1 <0>       0.0700
@<TRIPOS>BOND
   1    1    2 2
   2    1   27 1
   3    1   28 1
   4    2   22 1
   5    2    3 1
   6    3    4 2
   7    4    5 1
   8    4    6 1
   9    5   29 1
  10    5   30 1
  11    5   31 1
  12    6    7 1
  13    6   12 1
  14    6   32 1
  15    7    8 2
  16    7    9 1
  17    9   10 1
  18   10   11 1
  19   10   33 1
  20   10   34 1
  21   11   35 1
  22   11   36 1
  23   11   37 1
  24   12   13 1
  25   12   14 1
  26   12   22 1
  27   14   20 ar
  28   14   15 ar
  29   15   16 ar
  30   15   38 1
  31   16   17 ar
  32   16   39 1
  33   17   18 ar
  34   17   40 1
  35   18   19 1
  36   18   20 ar
  37   20   21 1
  38   22   23 1
  39   22   41 1
  40   23   24 2
  41   23   25 1
  42   25   26 1
  43   26   42 1
  44   26   43 1
  45   26   44 1
