@<TRIPOS>MOLECULE
ZINC000068009799
105   105   1     0     0
SMALL
USER_CHARGES
@<TRIPOS>ATOM
1      C1     -1.2480   -1.1532    0.8483 C.3      1 ZINC000068009799   -0.1500
2      C2     -1.8274    0.0691    1.5632 C.3      1 ZINC000068009799   -0.1100
3      C3     -1.0713    0.2997    2.8732 C.3      1 ZINC000068009799   -0.1400
4      C4     -1.6820    1.3006    0.6670 C.3      1 ZINC000068009799   -0.1200
5      C5     -2.5626    1.1355   -0.5733 C.3      1 ZINC000068009799    0.1300
6      H6     -2.2691    0.2331   -1.1097 H        1 ZINC000068009799    0.1100
7      N7     -2.3973    2.2990   -1.4479 N.am     1 ZINC000068009799   -0.7100
8      C8     -1.3476    2.3649   -2.2907 C.2      1 ZINC000068009799    0.5200
9      O9     -0.5847    1.4267   -2.3835 O.2      1 ZINC000068009799   -0.5300
10     C10    -1.1218    3.6044   -3.1176 C.3      1 ZINC000068009799    0.1300
11     H11    -1.2447    4.4872   -2.4901 H        1 ZINC000068009799    0.1200
12     N12     0.2350    3.5827   -3.6696 N.am     1 ZINC000068009799   -0.7100
13     C13     0.8472    4.7374   -3.9986 C.2      1 ZINC000068009799    0.5200
14     O14     0.2749    5.7945   -3.8376 O.2      1 ZINC000068009799   -0.5300
15     C15     2.2430    4.7151   -4.5665 C.3      1 ZINC000068009799    0.1000
16     N16     2.6812    6.0862   -4.8393 N.am     1 ZINC000068009799   -0.7200
17     C17     3.9059    6.3123   -5.3544 C.2      1 ZINC000068009799    0.5100
18     O18     4.6452    5.3807   -5.5921 O.2      1 ZINC000068009799   -0.5200
19     C19     4.3567    7.7227   -5.6350 C.3      1 ZINC000068009799    0.0500
20     N20     5.7172    7.7009   -6.1886 N.3      1 ZINC000068009799   -0.8300
21     C21    -2.1372    3.6463   -4.2614 C.3      1 ZINC000068009799   -0.1000
22     C22    -3.5540    3.6767   -3.6848 C.3      1 ZINC000068009799   -0.1600
23     C23    -1.9031    4.9008   -5.1054 C.3      1 ZINC000068009799   -0.1400
24     C24    -4.0056    1.0235   -0.1536 C.2      1 ZINC000068009799    0.5200
25     O25    -4.7402    1.9842   -0.2453 O.2      1 ZINC000068009799   -0.5300
26     N26    -4.4799   -0.1443    0.3238 N.am     1 ZINC000068009799   -0.7000
27     C27    -5.9059   -0.2861    0.6282 C.3      1 ZINC000068009799    0.1300
28     H28    -6.2914    0.6587    1.0112 H        1 ZINC000068009799    0.1200
29     C29    -6.0934   -1.3628    1.6658 C.2      1 ZINC000068009799    0.5200
30     O30    -5.1306   -1.9535    2.1076 O.2      1 ZINC000068009799   -0.5300
31     N31    -7.3309   -1.6693    2.1029 N.am     1 ZINC000068009799   -0.7000
32     C32    -7.5132   -2.7159    3.1116 C.3      1 ZINC000068009799    0.1400
33     H33    -6.7774   -3.5045    2.9540 H        1 ZINC000068009799    0.1100
34     C34    -7.3277   -2.1170    4.5073 C.3      1 ZINC000068009799   -0.1100
35     C35    -5.8785   -1.6564    4.6761 C.3      1 ZINC000068009799   -0.1300
36     C36    -5.6958   -1.0665    6.0508 C.2      1 ZINC000068009799    0.5100
37     N37    -4.4915   -0.5915    6.4257 N.am     1 ZINC000068009799   -0.8600
38     O38    -6.6325   -1.0191    6.8197 O.2      1 ZINC000068009799   -0.5400
39     C39    -8.9006   -3.2921    2.9926 C.2      1 ZINC000068009799    0.5300
40     O40    -9.8006   -2.6174    2.5392 O.2      1 ZINC000068009799   -0.5100
41     N41    -9.1412   -4.5573    3.3901 N.am     1 ZINC000068009799   -0.6000
42     C42    -8.1735   -5.4469    4.0577 C.3      1 ZINC000068009799    0.1000
43     C43    -9.0430   -6.4661    4.8354 C.3      1 ZINC000068009799   -0.1300
44     C44   -10.2271   -6.6774    3.8552 C.3      1 ZINC000068009799   -0.1300
45     C45   -10.4140   -5.2766    3.2354 C.3      1 ZINC000068009799    0.1200
46     H46   -10.6555   -5.3690    2.1765 H        1 ZINC000068009799    0.1000
47     C47   -11.5191   -4.5429    3.9507 C.2      1 ZINC000068009799    0.4900
48     O48   -11.2807   -3.5062    4.5331 O.2      1 ZINC000068009799   -0.5300
49     N49   -12.7722   -5.0389    3.9431 N.am     1 ZINC000068009799   -0.7000
50     C50   -13.8465   -4.3257    4.6385 C.3      1 ZINC000068009799    0.0500
51     C51   -15.1388   -5.0842    4.4784 C.2      1 ZINC000068009799    0.4900
52     O52   -15.1605   -6.1241    3.8424 O.co2    1 ZINC000068009799   -0.6900
53     O53   -16.1626   -4.6579    4.9849 O.co2    1 ZINC000068009799   -0.6900
54     C54    -6.6637   -0.6674   -0.6451 C.3      1 ZINC000068009799   -0.1000
55     C55    -6.4734    0.4256   -1.6986 C.3      1 ZINC000068009799   -0.1400
56     C56    -6.1226   -1.9937   -1.1828 C.3      1 ZINC000068009799   -0.1500
57     H57    -1.2599   -2.0087    1.5237 H        1 ZINC000068009799    0.0600
58     H58    -1.8492   -1.3776   -0.0328 H        1 ZINC000068009799    0.0500
59     H59    -0.2223   -0.9442    0.5447 H        1 ZINC000068009799    0.0600
60     H60    -2.8823   -0.1016    1.7778 H        1 ZINC000068009799    0.0800
61     H61    -0.0163    0.4704    2.6586 H        1 ZINC000068009799    0.0500
62     H62    -1.4840    1.1705    3.3825 H        1 ZINC000068009799    0.0500
63     H63    -1.1748   -0.5777    3.5117 H        1 ZINC000068009799    0.0600
64     H64    -1.9922    2.1890    1.2171 H        1 ZINC000068009799    0.0700
65     H65    -0.6410    1.4071    0.3619 H        1 ZINC000068009799    0.0800
66     H66    -3.0434    3.0221   -1.4205 H        1 ZINC000068009799    0.4200
67     H67     0.6928    2.7372   -3.7984 H        1 ZINC000068009799    0.4100
68     H68     2.9202    4.2534   -3.8479 H        1 ZINC000068009799    0.1000
69     H69     2.2492    4.1406   -5.4927 H        1 ZINC000068009799    0.1000
70     H70     2.0898    6.8312   -4.6491 H        1 ZINC000068009799    0.4100
71     H71     3.6794    8.1844   -6.3536 H        1 ZINC000068009799    0.0600
72     H72     4.3504    8.2972   -4.7088 H        1 ZINC000068009799    0.1000
73     H73     5.7629    7.1210   -7.0130 H        1 ZINC000068009799    0.3500
74     H74     6.0425    8.6355   -6.3854 H        1 ZINC000068009799    0.3500
75     H75    -2.0179    2.7608   -4.8857 H        1 ZINC000068009799    0.0800
76     H76    -3.6615    4.5417   -3.0302 H        1 ZINC000068009799    0.0600
77     H77    -4.2761    3.7449   -4.4985 H        1 ZINC000068009799    0.0700
78     H78    -3.7339    2.7652   -3.1148 H        1 ZINC000068009799    0.0700
79     H79    -0.8937    4.8792   -5.5162 H        1 ZINC000068009799    0.0500
80     H80    -2.6264    4.9307   -5.9203 H        1 ZINC000068009799    0.0500
81     H81    -2.0223    5.7863   -4.4811 H        1 ZINC000068009799    0.0700
82     H82    -3.8771   -0.8909    0.4658 H        1 ZINC000068009799    0.4100
83     H83    -8.1009   -1.1968    1.7496 H        1 ZINC000068009799    0.4100
84     H84    -7.9963   -1.2647    4.6287 H        1 ZINC000068009799    0.0900
85     H85    -7.5594   -2.8707    5.2598 H        1 ZINC000068009799    0.0900
86     H86    -5.2099   -2.5087    4.5547 H        1 ZINC000068009799    0.1000
87     H87    -5.6467   -0.9027    3.9236 H        1 ZINC000068009799    0.0900
88     H88    -3.7423   -0.6294    5.8107 H        1 ZINC000068009799    0.4000
89     H89    -4.3739   -0.2118    7.3105 H        1 ZINC000068009799    0.4000
90     H90    -7.5573   -5.9596    3.3191 H        1 ZINC000068009799    0.0800
91     H91    -7.5481   -4.8786    4.7461 H        1 ZINC000068009799    0.0800
92     H92    -8.5007   -7.3973    4.9995 H        1 ZINC000068009799    0.0900
93     H93    -9.3879   -6.0451    5.7798 H        1 ZINC000068009799    0.0800
94     H94    -9.9688   -7.4101    3.0907 H        1 ZINC000068009799    0.0900
95     H95   -11.1245   -6.9809    4.3943 H        1 ZINC000068009799    0.0900
96     H96   -12.9629   -5.8681    3.4773 H        1 ZINC000068009799    0.4100
97     H97   -13.6021   -4.2438    5.6976 H        1 ZINC000068009799    0.0600
98     H98   -13.9554   -3.3282    4.2126 H        1 ZINC000068009799    0.0600
99     H99    -7.7247   -0.7730   -0.4186 H        1 ZINC000068009799    0.0900
100    H100   -7.0132    0.1540   -2.6057 H        1 ZINC000068009799    0.0600
101    H101   -6.8588    1.3705   -1.3155 H        1 ZINC000068009799    0.0700
102    H102   -5.4124    0.5312   -1.9251 H        1 ZINC000068009799    0.0500
103    H103   -6.2582   -2.7725   -0.4323 H        1 ZINC000068009799    0.0600
104    H104   -6.6625   -2.2654   -2.0899 H        1 ZINC000068009799    0.0600
105    H105   -5.0616   -1.8882   -1.4093 H        1 ZINC000068009799    0.0600
@<TRIPOS>BOND
1     1     2     1
2     1     57    1
3     1     58    1
4     1     59    1
5     2     3     1
6     2     4     1
7     2     60    1
8     3     61    1
9     3     62    1
10    3     63    1
11    4     5     1
12    4     64    1
13    4     65    1
14    5     6     1
15    5     7     1
16    5     24    1
17    7     8     am
18    7     66    1
19    8     9     2
20    8     10    1
21    10    11    1
22    10    12    1
23    10    21    1
24    12    13    am
25    12    67    1
26    13    14    2
27    13    15    1
28    15    16    1
29    15    68    1
30    15    69    1
31    16    17    am
32    16    70    1
33    17    18    2
34    17    19    1
35    19    20    1
36    19    71    1
37    19    72    1
38    20    73    1
39    20    74    1
40    21    22    1
41    21    23    1
42    21    75    1
43    22    76    1
44    22    77    1
45    22    78    1
46    23    79    1
47    23    80    1
48    23    81    1
49    24    25    2
50    24    26    am
51    26    27    1
52    26    82    1
53    27    28    1
54    27    29    1
55    27    54    1
56    29    30    2
57    29    31    am
58    31    32    1
59    31    83    1
60    32    33    1
61    32    34    1
62    32    39    1
63    34    35    1
64    34    84    1
65    34    85    1
66    35    36    1
67    35    86    1
68    35    87    1
69    36    37    am
70    36    38    2
71    37    88    1
72    37    89    1
73    39    40    2
74    39    41    am
75    41    45    1
76    41    42    1
77    42    43    1
78    42    90    1
79    42    91    1
80    43    44    1
81    43    92    1
82    43    93    1
83    44    45    1
84    44    94    1
85    44    95    1
86    45    46    1
87    45    47    1
88    47    48    2
89    47    49    am
90    49    50    1
91    49    96    1
92    50    51    1
93    50    97    1
94    50    98    1
95    51    52    ar
96    51    53    ar
97    54    55    1
98    54    56    1
99    54    99    1
100   55    100   1
101   55    101   1
102   55    102   1
103   56    103   1
104   56    104   1
105   56    105   1
@<TRIPOS>SUBSTRUCTURE
1   ZINC000068009799 1     RESIDUE    1   A     ZIN   1
