@<TRIPOS>MOLECULE
ZINC000100038399
  44   48    0    0    0
SMALL
USER_CHARGES
NO_NAME
@<TRIPOS>ATOM
    1 O1        0.0021    -0.0041     0.0020 O.2    1 <0>      -0.5100
    2 C2       -0.0144     1.2118     0.0087 C.2    1 <0>       0.5300
    3 O3        1.1440     1.9018     0.0013 O.3    1 <0>      -0.3400
    4 C4        2.3723     1.1276    -0.0145 C.3    1 <0>       0.0900
    5 H5        2.2110     0.1780     0.4956 H      1 <0>       0.0900
    6 C6        2.7933     0.8653    -1.4633 C.3    1 <0>      -0.1200
    7 C7        3.0728     2.2015    -2.1560 C.3    1 <0>       0.0800
    8 H8        3.3988     2.0154    -3.1794 H      1 <0>       0.0900
    9 C9        1.7943     3.0406    -2.1775 C.3    1 <0>      -0.1600
   10 C10       2.0613     4.3869    -1.4856 C.3    1 <0>      -0.1300
   11 H11       1.1903     5.0408    -1.5279 H      1 <0>       0.1000
   12 C12       2.4755     4.0853    -0.0351 C.3    1 <0>      -0.1500
   13 C13       3.7280     3.2083    -0.0437 C.3    1 <0>       0.0800
   14 H14       4.5428     3.7412     0.4464 H      1 <0>       0.0900
   15 C15       3.4793     1.9096     0.6978 C.3    1 <0>      -0.1100
   16 N16       4.1309     2.9164    -1.4322 N.3    1 <0>      -0.5200
   17 C17       4.5183     4.1574    -2.1342 C.3    1 <0>       0.0100
   18 C18       3.2684     5.0106    -2.1777 C.2    1 <0>       0.3300
   19 O19       3.2387     6.1023    -2.6931 O.2    1 <0>      -0.4500
   20 C20      -1.2950     1.9281     0.0187 C.2    1 <0>      -0.2300
   21 C21      -1.4745     3.2810     0.0209 C.2    1 <0>       0.1400
   22 N22      -2.7979     3.5674     0.0304 N.pl3  1 <0>      -0.5700
   23 C23      -3.5426     2.4058     0.0348 C.ar   1 <0>       0.0800
   24 C24      -4.9099     2.1518     0.0447 C.ar   1 <0>      -0.1200
   25 C25      -5.3679     0.8521     0.0475 C.ar   1 <0>      -0.1000
   26 C26      -4.4771    -0.2111     0.0409 C.ar   1 <0>      -0.1300
   27 C27      -3.1186     0.0201     0.0316 C.ar   1 <0>      -0.0700
   28 C28      -2.6423     1.3283     0.0218 C.ar   1 <0>      -0.0600
   29 H29       3.6951     0.2532    -1.4754 H      1 <0>       0.0900
   30 H30       1.9916     0.3444    -1.9868 H      1 <0>       0.0800
   31 H31       1.4909     3.2155    -3.2097 H      1 <0>       0.0600
   32 H32       1.0019     2.5105    -1.6491 H      1 <0>       0.1100
   33 H33       2.6884     5.0194     0.4847 H      1 <0>       0.0700
   34 H34       1.6666     3.5604     0.4732 H      1 <0>       0.1100
   35 H35       3.1624     2.1280     1.7176 H      1 <0>       0.0800
   36 H36       4.3970     1.3219     0.7198 H      1 <0>       0.1000
   37 H37       5.3214     4.6596    -1.5947 H      1 <0>       0.1200
   38 H38       4.8321     3.9309    -3.1531 H      1 <0>       0.1100
   39 H39      -0.6805     4.0130     0.0161 H      1 <0>       0.1800
   40 H40      -3.1700     4.4632     0.0339 H      1 <0>       0.4200
   41 H41      -5.6121     2.9724     0.0506 H      1 <0>       0.1200
   42 H42      -6.4305     0.6594     0.0552 H      1 <0>       0.1300
   43 H43      -4.8498    -1.2248     0.0436 H      1 <0>       0.1300
   44 H44      -2.4269    -0.8093     0.0272 H      1 <0>       0.1300
@<TRIPOS>BOND
   1    1    2 2
   2    2    3 1
   3    2   20 1
   4    3    4 1
   5    4    5 1
   6    4   15 1
   7    4    6 1
   8    6    7 1
   9    6   29 1
  10    6   30 1
  11    7    8 1
  12    7   16 1
  13    7    9 1
  14    9   10 1
  15    9   31 1
  16    9   32 1
  17   10   11 1
  18   10   18 1
  19   10   12 1
  20   12   13 1
  21   12   33 1
  22   12   34 1
  23   13   14 1
  24   13   15 1
  25   13   16 1
  26   15   35 1
  27   15   36 1
  28   16   17 1
  29   17   18 1
  30   17   37 1
  31   17   38 1
  32   18   19 2
  33   20   28 1
  34   20   21 2
  35   21   22 1
  36   21   39 1
  37   22   23 1
  38   22   40 1
  39   23   28 ar
  40   23   24 ar
  41   24   25 ar
  42   24   41 1
  43   25   26 ar
  44   25   42 1
  45   26   27 ar
  46   26   43 1
  47   27   28 ar
  48   27   44 1
