@<TRIPOS>MOLECULE
ZINC000096903803
49    52    1     0     0
SMALL
USER_CHARGES
@<TRIPOS>ATOM
1      C1     -1.7924   -1.4187   -2.0492 C.3      1 ZINC000096903803   -0.1700
2      C2     -2.3044   -0.2851   -1.1583 C.3      1 ZINC000096903803    0.1100
3      N3     -1.5115   -0.2352    0.0726 N.am     1 ZINC000096903803   -0.6100
4      C4     -0.2414    0.4946    0.0966 C.3      1 ZINC000096903803    0.1000
5      C5     -0.5100    1.9770    0.3635 C.3      1 ZINC000096903803   -0.1700
6      C6     -1.9504   -0.8607    1.1828 C.2      1 ZINC000096903803    0.5300
7      O7     -2.9640   -1.5256    1.1436 O.2      1 ZINC000096903803   -0.5300
8      C8     -1.1818   -0.7339    2.4728 C.3      1 ZINC000096903803   -0.0700
9      H9     -0.8182    0.2876    2.5846 H        1 ZINC000096903803    0.1200
10     C10    -0.0181   -1.6883    2.4655 C.2      1 ZINC000096903803   -0.1300
11     C11     0.3949   -2.2881    3.5676 C.2      1 ZINC000096903803   -0.0500
12     C12     1.5357   -3.2215    3.4950 C.ar     1 ZINC000096903803    0.0000
13     C13     2.2206   -3.3937    4.7161 C.ar     1 ZINC000096903803   -0.1300
14     C14     1.8964   -2.7278    5.9723 C.2      1 ZINC000096903803   -0.1700
15     C15     2.7831   -3.1885    6.8482 C.2      1 ZINC000096903803    0.0600
16     N16     3.6426   -4.0872    6.2355 N.pl3    1 ZINC000096903803   -0.6000
17     C17     3.3221   -4.2296    4.9192 C.ar     1 ZINC000096903803    0.1100
18     C18     3.7918   -4.9474    3.8201 C.ar     1 ZINC000096903803   -0.1200
19     C19     3.1267   -4.7782    2.6112 C.ar     1 ZINC000096903803   -0.1000
20     C20     2.0260   -3.9434    2.4309 C.ar     1 ZINC000096903803   -0.1300
21     C21     0.7561   -1.7449    6.0246 C.3      1 ZINC000096903803   -0.0200
22     C22    -0.2491   -2.0713    4.9113 C.3      1 ZINC000096903803    0.1400
23     H23    -0.7286   -3.0120    5.1819 H        1 ZINC000096903803    0.0500
24     N24    -1.2934   -1.0555    4.8821 N.3      1 ZINC000096903803   -0.5500
25     C25    -2.1517   -1.1484    6.0707 C.3      1 ZINC000096903803    0.0300
26     C26    -2.0924   -1.0898    3.6535 C.3      1 ZINC000096903803    0.0800
27     H27    -2.3823   -1.4558   -2.9650 H        1 ZINC000096903803    0.0700
28     H28    -0.7461   -1.2409   -2.2980 H        1 ZINC000096903803    0.0600
29     H29    -1.8838   -2.3668   -1.5194 H        1 ZINC000096903803    0.0600
30     H30    -2.2130    0.6630   -1.6881 H        1 ZINC000096903803    0.0800
31     H31    -3.3507   -0.4629   -0.9095 H        1 ZINC000096903803    0.0900
32     H32     0.3937    0.0926    0.8860 H        1 ZINC000096903803    0.0900
33     H33     0.2597    0.3835   -0.8649 H        1 ZINC000096903803    0.0800
34     H34    -1.0112    2.0881    1.3250 H        1 ZINC000096903803    0.0600
35     H35     0.4349    2.5200    0.3814 H        1 ZINC000096903803    0.0700
36     H36    -1.1452    2.3790   -0.4259 H        1 ZINC000096903803    0.0600
37     H37     0.4923   -1.8882    1.5350 H        1 ZINC000096903803    0.1200
38     H38     2.8277   -2.9035    7.8890 H        1 ZINC000096903803    0.1700
39     H39     4.3698   -4.5492    6.6812 H        1 ZINC000096903803    0.4200
40     H40     4.6406   -5.6098    3.9047 H        1 ZINC000096903803    0.1300
41     H41     3.4872   -5.3298    1.7555 H        1 ZINC000096903803    0.1200
42     H42     1.5591   -3.8636    1.4603 H        1 ZINC000096903803    0.1200
43     H43     0.2609   -1.8137    6.9932 H        1 ZINC000096903803    0.0800
44     H44     1.1400   -0.7346    5.8831 H        1 ZINC000096903803    0.0800
45     H45    -1.5482   -1.0037    6.9668 H        1 ZINC000096903803    0.0700
46     H46    -2.9224   -0.3791    6.0234 H        1 ZINC000096903803    0.0700
47     H47    -2.6212   -2.1316    6.1038 H        1 ZINC000096903803    0.0300
48     H48    -2.9032   -0.3647    3.7234 H        1 ZINC000096903803    0.0900
49     H49    -2.5023   -2.0897    3.5109 H        1 ZINC000096903803    0.0500
@<TRIPOS>BOND
1     1     2     1
2     1     27    1
3     1     28    1
4     1     29    1
5     2     3     1
6     2     30    1
7     2     31    1
8     3     4     1
9     3     6     am
10    4     5     1
11    4     32    1
12    4     33    1
13    5     34    1
14    5     35    1
15    5     36    1
16    6     7     2
17    6     8     1
18    8     9     1
19    8     26    1
20    8     10    1
21    10    11    2
22    10    37    1
23    11    22    1
24    11    12    1
25    12    20    ar
26    12    13    ar
27    13    17    ar
28    13    14    1
29    14    15    2
30    14    21    1
31    15    16    1
32    15    38    1
33    16    17    1
34    16    39    1
35    17    18    ar
36    18    19    ar
37    18    40    1
38    19    20    ar
39    19    41    1
40    20    42    1
41    21    22    1
42    21    43    1
43    21    44    1
44    22    23    1
45    22    24    1
46    24    25    1
47    24    26    1
48    25    45    1
49    25    46    1
50    25    47    1
51    26    48    1
52    26    49    1
@<TRIPOS>SUBSTRUCTURE
1   ZINC000096903803 1     RESIDUE    1   A     ZIN   1
