@<TRIPOS>MOLECULE
ZINC000003811823
81    83    1     0     0
SMALL
USER_CHARGES
@<TRIPOS>ATOM
1      C1     -1.7112    1.2316    1.8889 C.3      1 ZINC000003811823   -0.1900
2      C2     -1.5931   -0.2865    1.7388 C.3      1 ZINC000003811823   -0.0200
3      N3     -1.0202   -0.6054    0.4242 N.4      1 ZINC000003811823   -0.3800
4      H4     -1.5747   -0.1716   -0.2986 H        1 ZINC000003811823    0.4200
5      C5      0.3573   -0.0997    0.3546 C.3      1 ZINC000003811823   -0.0200
6      C6      0.9217   -0.3484   -1.0455 C.3      1 ZINC000003811823   -0.1900
7      C7     -1.0174   -2.0617    0.2316 C.3      1 ZINC000003811823   -0.0100
8      C8     -2.4590   -2.5698    0.1624 C.3      1 ZINC000003811823   -0.1700
9      C9     -2.4579   -4.0641   -0.1662 C.3      1 ZINC000003811823    0.1200
10     N10    -3.8382   -4.5505   -0.2324 N.am     1 ZINC000003811823   -0.5900
11     C11    -4.5283   -4.6226   -1.5227 C.3      1 ZINC000003811823    0.0600
12     C12    -4.1146   -5.8794   -2.2440 C.2      1 ZINC000003811823    0.4900
13     O13    -3.5312   -6.7581   -1.6454 O.2      1 ZINC000003811823   -0.5100
14     N14    -4.3930   -6.0269   -3.5545 N.am     1 ZINC000003811823   -0.6000
15     C15    -4.1258   -7.3039   -4.2208 C.3      1 ZINC000003811823    0.1500
16     C16    -2.6341   -7.6291   -4.1210 C.3      1 ZINC000003811823   -0.1300
17     C17    -2.3551   -8.9628   -4.8169 C.3      1 ZINC000003811823   -0.1200
18     C18    -3.1650  -10.0704   -4.1401 C.3      1 ZINC000003811823   -0.1200
19     C19    -4.6567   -9.7453   -4.2400 C.3      1 ZINC000003811823   -0.1200
20     C20    -4.9357   -8.4116   -3.5440 C.3      1 ZINC000003811823   -0.1400
21     C21    -4.9627   -4.9102   -4.3125 C.3      1 ZINC000003811823    0.1300
22     C22    -6.2202   -4.4021   -3.6045 C.3      1 ZINC000003811823   -0.1600
23     C23    -6.8152   -3.2358   -4.3962 C.3      1 ZINC000003811823   -0.1200
24     C24    -5.7888   -2.1048   -4.4870 C.3      1 ZINC000003811823   -0.1200
25     C25    -4.5313   -2.6129   -5.1950 C.3      1 ZINC000003811823   -0.1200
26     C26    -3.9363   -3.7792   -4.4033 C.3      1 ZINC000003811823   -0.1400
27     C27    -4.4731   -4.9317    0.8937 C.2      1 ZINC000003811823    0.5700
28     O28    -3.9319   -4.7930    1.9732 O.2      1 ZINC000003811823   -0.5100
29     C29    -5.8279   -5.5185    0.8159 C.ar     1 ZINC000003811823   -0.0900
30     C30    -6.1280   -6.4612   -0.1687 C.ar     1 ZINC000003811823   -0.1000
31     C31    -7.3941   -7.0048   -0.2358 C.ar     1 ZINC000003811823   -0.0600
32     C32    -8.3656   -6.6171    0.6699 C.ar     1 ZINC000003811823   -0.0200
33     N33    -9.7220   -7.2046    0.5920 N.pl3    1 ZINC000003811823    0.0200
34     O34    -9.9809   -8.0273   -0.2680 O.2      1 ZINC000003811823   -0.1400
35     O35   -10.5792   -6.8652    1.3879 O.2      1 ZINC000003811823   -0.1400
36     C36    -8.0747   -5.6831    1.6483 C.ar     1 ZINC000003811823   -0.0600
37     C37    -6.8108   -5.1364    1.7303 C.ar     1 ZINC000003811823   -0.0600
38     H38    -2.1363    1.4683    2.8643 H        1 ZINC000003811823    0.1100
39     H39    -0.7227    1.6831    1.8041 H        1 ZINC000003811823    0.0800
40     H40    -2.3587    1.6249    1.1052 H        1 ZINC000003811823    0.0800
41     H41    -0.9456   -0.6798    2.5224 H        1 ZINC000003811823    0.1300
42     H42    -2.5816   -0.7379    1.8235 H        1 ZINC000003811823    0.1300
43     H43     0.3625    0.9701    0.5637 H        1 ZINC000003811823    0.1300
44     H44     0.9719   -0.6169    1.0914 H        1 ZINC000003811823    0.1300
45     H45     0.8458   -1.4091   -1.2847 H        1 ZINC000003811823    0.0800
46     H46     0.3538    0.2300   -1.7743 H        1 ZINC000003811823    0.0800
47     H47     1.9677   -0.0433   -1.0750 H        1 ZINC000003811823    0.1100
48     H48    -0.5017   -2.3044   -0.6975 H        1 ZINC000003811823    0.1300
49     H49    -0.5041   -2.5378    1.0671 H        1 ZINC000003811823    0.1400
50     H50    -2.9472   -2.4095    1.1237 H        1 ZINC000003811823    0.1000
51     H51    -2.9985   -2.0274   -0.6140 H        1 ZINC000003811823    0.0900
52     H52    -1.9696   -4.2243   -1.1274 H        1 ZINC000003811823    0.0900
53     H53    -1.9184   -4.6064    0.6103 H        1 ZINC000003811823    0.1000
54     H54    -5.6057   -4.6360   -1.3582 H        1 ZINC000003811823    0.1300
55     H55    -4.2635   -3.7539   -2.1254 H        1 ZINC000003811823    0.1200
56     H56    -4.4128   -7.2333   -5.2700 H        1 ZINC000003811823    0.0900
57     H57    -2.0572   -6.8399   -4.6032 H        1 ZINC000003811823    0.0600
58     H58    -2.3471   -7.6997   -3.0718 H        1 ZINC000003811823    0.0900
59     H59    -2.6421   -8.8921   -5.8661 H        1 ZINC000003811823    0.0600
60     H60    -1.2924   -9.1944   -4.7457 H        1 ZINC000003811823    0.0700
61     H61    -2.9662  -11.0206   -4.6359 H        1 ZINC000003811823    0.0700
62     H62    -2.8779  -10.1410   -3.0909 H        1 ZINC000003811823    0.0600
63     H63    -4.9437   -9.6747   -5.2891 H        1 ZINC000003811823    0.0600
64     H64    -5.2336  -10.5344   -3.7578 H        1 ZINC000003811823    0.0700
65     H65    -4.6487   -8.4822   -2.4948 H        1 ZINC000003811823    0.0800
66     H66    -5.9984   -8.1800   -3.6152 H        1 ZINC000003811823    0.0600
67     H67    -5.2219   -5.2471   -5.3162 H        1 ZINC000003811823    0.1000
68     H68    -6.9514   -5.2078   -3.5398 H        1 ZINC000003811823    0.0800
69     H69    -5.9610   -4.0652   -2.6008 H        1 ZINC000003811823    0.0800
70     H70    -7.0744   -3.5727   -5.3999 H        1 ZINC000003811823    0.0700
71     H71    -7.7111   -2.8738   -3.8917 H        1 ZINC000003811823    0.0700
72     H72    -6.2127   -1.2739   -5.0510 H        1 ZINC000003811823    0.0700
73     H73    -5.5297   -1.7679   -3.4833 H        1 ZINC000003811823    0.0600
74     H74    -4.7905   -2.9498   -6.1987 H        1 ZINC000003811823    0.0700
75     H75    -3.8001   -1.8071   -5.2597 H        1 ZINC000003811823    0.0700
76     H76    -3.6771   -3.4423   -3.3996 H        1 ZINC000003811823    0.0600
77     H77    -3.0404   -4.1412   -4.9077 H        1 ZINC000003811823    0.0700
78     H78    -5.3707   -6.7641   -0.8766 H        1 ZINC000003811823    0.1600
79     H79    -7.6276   -7.7344   -0.9971 H        1 ZINC000003811823    0.1600
80     H80    -8.8377   -5.3845    2.3520 H        1 ZINC000003811823    0.1700
81     H81    -6.5850   -4.4074    2.4945 H        1 ZINC000003811823    0.1600
@<TRIPOS>BOND
1     1     2     1
2     1     38    1
3     1     39    1
4     1     40    1
5     2     3     1
6     2     41    1
7     2     42    1
8     3     4     1
9     3     5     1
10    3     7     1
11    5     6     1
12    5     43    1
13    5     44    1
14    6     45    1
15    6     46    1
16    6     47    1
17    7     8     1
18    7     48    1
19    7     49    1
20    8     9     1
21    8     50    1
22    8     51    1
23    9     10    1
24    9     52    1
25    9     53    1
26    10    11    1
27    10    27    am
28    11    12    1
29    11    54    1
30    11    55    1
31    12    13    2
32    12    14    am
33    14    15    1
34    14    21    1
35    15    20    1
36    15    16    1
37    15    56    1
38    16    17    1
39    16    57    1
40    16    58    1
41    17    18    1
42    17    59    1
43    17    60    1
44    18    19    1
45    18    61    1
46    18    62    1
47    19    20    1
48    19    63    1
49    19    64    1
50    20    65    1
51    20    66    1
52    21    26    1
53    21    22    1
54    21    67    1
55    22    23    1
56    22    68    1
57    22    69    1
58    23    24    1
59    23    70    1
60    23    71    1
61    24    25    1
62    24    72    1
63    24    73    1
64    25    26    1
65    25    74    1
66    25    75    1
67    26    76    1
68    26    77    1
69    27    28    2
70    27    29    1
71    29    37    ar
72    29    30    ar
73    30    31    ar
74    30    78    1
75    31    32    ar
76    31    79    1
77    32    33    1
78    32    36    ar
79    33    34    2
80    33    35    2
81    36    37    ar
82    36    80    1
83    37    81    1
@<TRIPOS>SUBSTRUCTURE
1   ZINC000003811823 1     RESIDUE    1   A     ZIN   1
