@<TRIPOS>MOLECULE
ZINC000053041013
  29   30    0    0    0
SMALL
USER_CHARGES
NO_NAME
@<TRIPOS>ATOM
    1 C1       -0.0173     1.4248     0.0099 C.3    1 <0>       0.0400
    2 O2        0.0021    -0.0041     0.0020 O.3    1 <0>      -0.2300
    3 N3       -1.2835    -0.5976     0.0111 N.2    1 <0>      -0.2800
    4 C4       -1.4013    -1.8863     0.0053 C.2    1 <0>       0.2300
    5 C5       -0.2316    -2.7122    -0.0103 C.1    1 <0>       0.2100
    6 N6        0.6964    -3.3673    -0.0227 N.1    1 <0>      -0.3700
    7 C7       -2.7695    -2.5179     0.0150 C.3    1 <0>      -0.0600
    8 H8       -2.8462    -3.2104     0.8533 H      1 <0>       0.1100
    9 C9       -3.8369    -1.4281     0.1502 C.3    1 <0>       0.0500
   10 N10      -4.7228    -1.4658    -1.0211 N.3    1 <0>      -0.5200
   11 C11      -3.9767    -1.1890    -2.2564 C.3    1 <0>       0.0500
   12 C12      -2.9127    -2.2713    -2.4599 C.3    1 <0>      -0.1500
   13 C13      -2.9953    -3.2754    -1.2996 C.3    1 <0>      -0.0800
   14 C14      -4.4033    -3.8835    -1.2780 C.3    1 <0>      -0.1500
   15 C15      -5.4271    -2.7524    -1.1092 C.3    1 <0>       0.0500
   16 H16       1.0053     1.8021     0.0021 H      1 <0>       0.1000
   17 H17      -0.5445     1.7859    -0.8732 H      1 <0>       0.0600
   18 H18      -0.5275     1.7763     0.9067 H      1 <0>       0.0600
   19 H19      -4.4213    -1.6016     1.0538 H      1 <0>       0.0900
   20 H20      -3.3548    -0.4524     0.2103 H      1 <0>       0.1000
   21 H21      -4.6627    -1.1896    -3.1035 H      1 <0>       0.0800
   22 H22      -3.4943    -0.2146    -2.1793 H      1 <0>       0.0800
   23 H23      -3.0929    -2.7879    -3.4026 H      1 <0>       0.0700
   24 H24      -1.9239    -1.8129    -2.4757 H      1 <0>       0.0600
   25 H25      -2.2407    -4.0523    -1.4218 H      1 <0>       0.0800
   26 H26      -4.5900    -4.4059    -2.2163 H      1 <0>       0.0700
   27 H27      -4.4865    -4.5826    -0.4459 H      1 <0>       0.0700
   28 H28      -6.0009    -2.9144    -0.1967 H      1 <0>       0.0800
   29 H29      -6.1011    -2.7411    -1.9658 H      1 <0>       0.0800
@<TRIPOS>BOND
   1    1    2 1
   2    1   16 1
   3    1   17 1
   4    1   18 1
   5    2    3 1
   6    3    4 2
   7    4    5 1
   8    4    7 1
   9    5    6 3
  10    7    8 1
  11    7   13 1
  12    7    9 1
  13    9   10 1
  14    9   19 1
  15    9   20 1
  16   10   15 1
  17   10   11 1
  18   11   12 1
  19   11   21 1
  20   11   22 1
  21   12   13 1
  22   12   23 1
  23   12   24 1
  24   13   14 1
  25   13   25 1
  26   14   15 1
  27   14   26 1
  28   14   27 1
  29   15   28 1
  30   15   29 1
