@<TRIPOS>MOLECULE
ZINC000043133316
98    105   1     0     0
SMALL
USER_CHARGES
@<TRIPOS>ATOM
1      C1     -0.7457   -1.0954   -0.4194 C.3      1 ZINC000043133316   -0.1500
2      C2     -0.2399   -1.6810    0.9005 C.3      1 ZINC000043133316   -0.0800
3      H3      0.2387   -2.6441    0.7230 H        1 ZINC000043133316    0.0900
4      C4     -1.4159   -1.8471    1.8934 C.3      1 ZINC000043133316   -0.1100
5      C5     -1.0985   -0.9143    3.0590 C.3      1 ZINC000043133316   -0.0800
6      H6     -1.5026    0.0767    2.8521 H        1 ZINC000043133316    0.0800
7      C7     -1.5562   -1.3700    4.4239 C.3      1 ZINC000043133316   -0.0300
8      H8     -1.3783   -2.4408    4.5239 H        1 ZINC000043133316    0.0900
9      C9     -3.0524   -1.0891    4.5864 C.3      1 ZINC000043133316   -0.1100
10     C10    -3.5228   -1.5047    5.9826 C.3      1 ZINC000043133316   -0.0900
11     C11    -2.7121   -0.7282    7.0021 C.2      1 ZINC000043133316   -0.0200
12     C12    -3.3381    0.0106    7.9066 C.2      1 ZINC000043133316   -0.2300
13     C13    -2.5705    0.8074    8.8770 C.2      1 ZINC000043133316    0.4100
14     O14    -3.1350    1.4205    9.7637 O.2      1 ZINC000043133316   -0.4600
15     C15    -1.1035    0.8457    8.7511 C.2      1 ZINC000043133316   -0.2100
16     C16    -0.4993    0.0867    7.8488 C.2      1 ZINC000043133316   -0.0700
17     C17    -1.2176   -0.8454    6.9373 C.3      1 ZINC000043133316    0.0200
18     C18    -0.8406   -2.2747    7.3323 C.3      1 ZINC000043133316   -0.1300
19     C19    -0.7905   -0.6347    5.4998 C.2      1 ZINC000043133316   -0.1000
20     C20     0.2199    0.1555    5.2683 C.2      1 ZINC000043133316   -0.1500
21     C21     0.7776    0.4234    3.8896 C.3      1 ZINC000043133316   -0.0800
22     C22     0.4502   -0.8494    3.0644 C.3      1 ZINC000043133316   -0.0500
23     C23     1.1363   -2.0806    3.6596 C.3      1 ZINC000043133316   -0.1400
24     C24     0.7632   -0.7027    1.5675 C.3      1 ZINC000043133316   -0.1300
25     H25     0.5390    0.3073    1.2244 H        1 ZINC000043133316    0.1000
26     C26     2.2028   -1.0503    1.2882 C.2      1 ZINC000043133316    0.3700
27     O27     2.4998   -2.1735    0.9588 O.2      1 ZINC000043133316   -0.4300
28     C28     3.2717    0.0038    1.4201 C.3      1 ZINC000043133316    0.0000
29     N29     4.5582   -0.5444    0.9703 N.3      1 ZINC000043133316   -0.5300
30     C30     5.6633    0.3658    1.3017 C.3      1 ZINC000043133316    0.0500
31     C31     6.9902   -0.2758    0.8893 C.3      1 ZINC000043133316    0.0700
32     N32     6.9644   -0.5656   -0.5512 N.3      1 ZINC000043133316   -0.4700
33     C33     8.1784   -1.0830   -0.9756 C.ar     1 ZINC000043133316    0.3900
34     C34     8.3718   -1.4222   -2.3112 C.ar     1 ZINC000043133316   -0.2800
35     C35     9.6075   -1.9378   -2.6916 C.ar     1 ZINC000043133316    0.3800
36     N36     9.8458   -2.2892   -4.0111 N.3      1 ZINC000043133316   -0.4600
37     C37     9.7494   -1.1054   -4.9030 C.3      1 ZINC000043133316    0.0500
38     C38    10.5322   -1.5474   -6.1648 C.3      1 ZINC000043133316   -0.1200
39     C39    11.7004   -2.3712   -5.5760 C.3      1 ZINC000043133316   -0.1300
40     C40    11.2193   -2.8111   -4.1809 C.3      1 ZINC000043133316    0.0400
41     N41    10.5575   -2.0885   -1.7715 N.ar     1 ZINC000043133316   -0.5700
42     C42    10.3377   -1.7546   -0.5087 C.ar     1 ZINC000043133316    0.5300
43     N43    11.3500   -1.9254    0.4193 N.3      1 ZINC000043133316   -0.4500
44     C44    12.5247   -1.0792    0.0873 C.3      1 ZINC000043133316    0.0600
45     C45    13.2856   -0.9850    1.4337 C.3      1 ZINC000043133316   -0.1200
46     C46    12.1429   -0.8977    2.4712 C.3      1 ZINC000043133316   -0.1300
47     C47    10.9124   -1.4974    1.7657 C.3      1 ZINC000043133316    0.0400
48     N48     9.1765   -1.2566   -0.1120 N.ar     1 ZINC000043133316   -0.6000
49     C49     5.8593   -1.4758   -0.8826 C.3      1 ZINC000043133316    0.0700
50     C50     4.5324   -0.8342   -0.4702 C.3      1 ZINC000043133316    0.0500
51     H51     0.0952   -0.9464   -1.0967 H        1 ZINC000043133316    0.0500
52     H52    -1.4595   -1.7835   -0.8723 H        1 ZINC000043133316    0.0600
53     H53    -1.2331   -0.1392   -0.2295 H        1 ZINC000043133316    0.0600
54     H54    -2.3533   -1.5544    1.4203 H        1 ZINC000043133316    0.0700
55     H55    -1.4737   -2.8787    2.2406 H        1 ZINC000043133316    0.0700
56     H56    -3.2369   -0.0241    4.4456 H        1 ZINC000043133316    0.0700
57     H57    -3.6086   -1.6512    3.8362 H        1 ZINC000043133316    0.0800
58     H58    -4.5812   -1.2718    6.0991 H        1 ZINC000043133316    0.0800
59     H59    -3.3628   -2.5738    6.1221 H        1 ZINC000043133316    0.0900
60     H60    -4.4177    0.0284    7.9316 H        1 ZINC000043133316    0.1400
61     H61    -0.5218    1.4912    9.3925 H        1 ZINC000043133316    0.1400
62     H62     0.5761    0.1480    7.7699 H        1 ZINC000043133316    0.1300
63     H63    -1.1359   -2.4559    8.3658 H        1 ZINC000043133316    0.0600
64     H64    -1.3543   -2.9798    6.6787 H        1 ZINC000043133316    0.0700
65     H65     0.2368   -2.4067    7.2337 H        1 ZINC000043133316    0.0700
66     H66     0.6850    0.6472    6.1100 H        1 ZINC000043133316    0.1100
67     H67     0.3248    1.3224    3.4715 H        1 ZINC000043133316    0.0900
68     H68     1.8604    0.5377    3.9401 H        1 ZINC000043133316    0.0700
69     H69     0.8380   -2.1945    4.7018 H        1 ZINC000043133316    0.0700
70     H70     0.8419   -2.9674    3.0984 H        1 ZINC000043133316    0.0600
71     H71     2.2178   -1.9570    3.6027 H        1 ZINC000043133316    0.0600
72     H72     3.0096    0.8658    0.8065 H        1 ZINC000043133316    0.0700
73     H73     3.3523    0.3111    2.4628 H        1 ZINC000043133316    0.1100
74     H74     5.5325    1.3065    0.7669 H        1 ZINC000043133316    0.0500
75     H75     5.6690    0.5551    2.3751 H        1 ZINC000043133316    0.0900
76     H76     7.8090    0.4097    1.1077 H        1 ZINC000043133316    0.0900
77     H77     7.1339   -1.2029    1.4442 H        1 ZINC000043133316    0.0600
78     H78     7.5818   -1.2889   -3.0355 H        1 ZINC000043133316    0.1500
79     H79     8.7091   -0.8937   -5.1501 H        1 ZINC000043133316    0.0900
80     H80    10.2208   -0.2372   -4.4423 H        1 ZINC000043133316    0.0600
81     H81     9.9084   -2.1681   -6.8080 H        1 ZINC000043133316    0.0800
82     H82    10.9073   -0.6809   -6.7093 H        1 ZINC000043133316    0.0800
83     H83    11.9008   -3.2426   -6.1993 H        1 ZINC000043133316    0.0800
84     H84    12.5940   -1.7528   -5.4904 H        1 ZINC000043133316    0.0700
85     H85    11.8723   -2.3941   -3.4143 H        1 ZINC000043133316    0.0800
86     H86    11.2137   -3.8992   -4.1160 H        1 ZINC000043133316    0.0800
87     H87    13.1428   -1.5596   -0.6711 H        1 ZINC000043133316    0.1000
88     H88    12.2057   -0.0911   -0.2442 H        1 ZINC000043133316    0.0500
89     H89    13.8892   -1.8775    1.5989 H        1 ZINC000043133316    0.0800
90     H90    13.9045   -0.0883    1.4651 H        1 ZINC000043133316    0.0800
91     H91    12.3918   -1.4804    3.3581 H        1 ZINC000043133316    0.0800
92     H92    11.9553    0.1416    2.7408 H        1 ZINC000043133316    0.0700
93     H93    10.1297   -0.7436    1.6797 H        1 ZINC000043133316    0.0800
94     H94    10.5444   -2.3562    2.3271 H        1 ZINC000043133316    0.0800
95     H95     5.8536   -1.6651   -1.9560 H        1 ZINC000043133316    0.0900
96     H96     5.9901   -2.4165   -0.3478 H        1 ZINC000043133316    0.0600
97     H97     3.7136   -1.5198   -0.6886 H        1 ZINC000043133316    0.1000
98     H98     4.3887    0.0929   -1.0251 H        1 ZINC000043133316    0.0400
@<TRIPOS>BOND
1     1     2     1
2     1     51    1
3     1     52    1
4     1     53    1
5     2     3     1
6     2     24    1
7     2     4     1
8     4     5     1
9     4     54    1
10    4     55    1
11    5     6     1
12    5     22    1
13    5     7     1
14    7     8     1
15    7     19    1
16    7     9     1
17    9     10    1
18    9     56    1
19    9     57    1
20    10    11    1
21    10    58    1
22    10    59    1
23    11    17    1
24    11    12    2
25    12    13    1
26    12    60    1
27    13    14    2
28    13    15    1
29    15    16    2
30    15    61    1
31    16    17    1
32    16    62    1
33    17    18    1
34    17    19    1
35    18    63    1
36    18    64    1
37    18    65    1
38    19    20    2
39    20    21    1
40    20    66    1
41    21    22    1
42    21    67    1
43    21    68    1
44    22    23    1
45    22    24    1
46    23    69    1
47    23    70    1
48    23    71    1
49    24    25    1
50    24    26    1
51    26    27    2
52    26    28    1
53    28    29    1
54    28    72    1
55    28    73    1
56    29    50    1
57    29    30    1
58    30    31    1
59    30    74    1
60    30    75    1
61    31    32    1
62    31    76    1
63    31    77    1
64    32    33    1
65    32    49    1
66    33    48    ar
67    33    34    ar
68    34    35    ar
69    34    78    1
70    35    36    1
71    35    41    ar
72    36    40    1
73    36    37    1
74    37    38    1
75    37    79    1
76    37    80    1
77    38    39    1
78    38    81    1
79    38    82    1
80    39    40    1
81    39    83    1
82    39    84    1
83    40    85    1
84    40    86    1
85    41    42    ar
86    42    43    1
87    42    48    ar
88    43    47    1
89    43    44    1
90    44    45    1
91    44    87    1
92    44    88    1
93    45    46    1
94    45    89    1
95    45    90    1
96    46    47    1
97    46    91    1
98    46    92    1
99    47    93    1
100   47    94    1
101   49    50    1
102   49    95    1
103   49    96    1
104   50    97    1
105   50    98    1
@<TRIPOS>SUBSTRUCTURE
1   ZINC000043133316 1     RESIDUE    1   A     ZIN   1
