@<TRIPOS>MOLECULE
ZINC000000538015
  52   55    0    0    0
SMALL
USER_CHARGES
NO_NAME
@<TRIPOS>ATOM
    1 O1        0.8791     1.7547     0.3109 O.2    1 <0>      -0.4900
    2 C2       -0.2095     1.2380     0.1409 C.2    1 <0>       0.6100
    3 C3       -0.3298    -0.2226     0.1029 C.2    1 <0>      -0.1200
    4 C4        0.7046    -1.1140     0.1299 C.2    1 <0>      -0.0900
    5 C5        0.1344    -2.3954     0.0755 C.2    1 <0>      -0.2300
    6 C6       -1.2059    -2.2323     0.0185 C.2    1 <0>       0.0000
    7 O7       -1.4819    -0.9219     0.0411 O.3    1 <0>      -0.1000
    8 N8       -1.3054     2.0085    -0.0069 N.am   1 <0>      -0.5300
    9 C9       -1.1747     3.3902    -0.1244 C.ar   1 <0>       0.3100
   10 C10       0.0629     3.9507    -0.4283 C.ar   1 <0>       0.0400
   11 N11       0.1828     5.2604    -0.5387 N.ar   1 <0>      -0.4100
   12 C12      -0.8707     6.0395    -0.3611 C.ar   1 <0>       0.0200
   13 C13      -2.1011     5.4863    -0.0588 C.ar   1 <0>       0.0800
   14 N14      -2.2302     4.1751     0.0476 N.ar   1 <0>      -0.4700
   15 C15      -2.6342     1.3927    -0.0439 C.3    1 <0>       0.1400
   16 C16      -2.7487     0.4967    -1.2803 C.3    1 <0>      -0.1600
   17 C17      -4.1159    -0.1909    -1.2813 C.3    1 <0>       0.0700
   18 N18      -4.2634    -0.9915    -0.0591 N.3    1 <0>      -0.5300
   19 C19      -5.5055    -1.7752    -0.0899 C.3    1 <0>       0.0600
   20 C20      -5.7507    -2.3966     1.2865 C.3    1 <0>      -0.0800
   21 C21      -7.0249    -3.2006     1.2550 C.ar   1 <0>      -0.0800
   22 C22      -8.2303    -2.5978     1.5625 C.ar   1 <0>      -0.1200
   23 C23      -9.3991    -3.3352     1.5336 C.ar   1 <0>      -0.1200
   24 C24      -9.3627    -4.6754     1.1966 C.ar   1 <0>      -0.1200
   25 C25      -8.1574    -5.2780     0.8882 C.ar   1 <0>      -0.1200
   26 C26      -6.9891    -4.5395     0.9130 C.ar   1 <0>      -0.1200
   27 C27      -4.2042    -0.1459     1.1400 C.3    1 <0>       0.0600
   28 C28      -2.8396     0.5430     1.2132 C.3    1 <0>      -0.1600
   29 H29       1.7573    -0.8786     0.1828 H      1 <0>       0.1600
   30 H30       0.6668    -3.3351     0.0782 H      1 <0>       0.1600
   31 H31      -1.9346    -3.0277    -0.0328 H      1 <0>       0.2100
   32 H32       0.9238     3.3148    -0.5731 H      1 <0>       0.2000
   33 H33      -0.7696     7.1109    -0.4521 H      1 <0>       0.1700
   34 H34      -2.9591     6.1261     0.0859 H      1 <0>       0.1800
   35 H35      -3.3956     2.1715    -0.0856 H      1 <0>       0.1100
   36 H36      -2.6458     1.1033    -2.1801 H      1 <0>       0.0700
   37 H37      -1.9621    -0.2575    -1.2573 H      1 <0>       0.1200
   38 H38      -4.9018     0.5636    -1.3183 H      1 <0>       0.0300
   39 H39      -4.1951    -0.8406    -2.1529 H      1 <0>       0.0800
   40 H40      -6.3401    -1.1233    -0.3481 H      1 <0>       0.0400
   41 H41      -5.4179    -2.5658    -0.8351 H      1 <0>       0.0800
   42 H42      -4.9161    -3.0485     1.5448 H      1 <0>       0.0800
   43 H43      -5.8383    -1.6060     2.0317 H      1 <0>       0.0800
   44 H44      -8.2588    -1.5507     1.8258 H      1 <0>       0.1200
   45 H45     -10.3408    -2.8645     1.7745 H      1 <0>       0.1200
   46 H46     -10.2758    -5.2517     1.1747 H      1 <0>       0.1200
   47 H47      -8.1289    -6.3251     0.6252 H      1 <0>       0.1200
   48 H48      -6.0475    -5.0103     0.6720 H      1 <0>       0.1200
   49 H49      -4.9897     0.6083     1.0916 H      1 <0>       0.0300
   50 H50      -4.3476    -0.7630     2.0270 H      1 <0>       0.0900
   51 H51      -2.0545    -0.2105     1.2755 H      1 <0>       0.1200
   52 H52      -2.8017     1.1826     2.0950 H      1 <0>       0.0700
@<TRIPOS>BOND
   1    1    2 2
   2    2    3 1
   3    2    8 am
   4    3    7 1
   5    3    4 2
   6    4    5 1
   7    4   29 1
   8    5    6 2
   9    5   30 1
  10    6    7 1
  11    6   31 1
  12    8    9 1
  13    8   15 1
  14    9   14 ar
  15    9   10 ar
  16   10   11 ar
  17   10   32 1
  18   11   12 ar
  19   12   13 ar
  20   12   33 1
  21   13   14 ar
  22   13   34 1
  23   15   28 1
  24   15   16 1
  25   15   35 1
  26   16   17 1
  27   16   36 1
  28   16   37 1
  29   17   18 1
  30   17   38 1
  31   17   39 1
  32   18   19 1
  33   18   27 1
  34   19   20 1
  35   19   40 1
  36   19   41 1
  37   20   21 1
  38   20   42 1
  39   20   43 1
  40   21   26 ar
  41   21   22 ar
  42   22   23 ar
  43   22   44 1
  44   23   24 ar
  45   23   45 1
  46   24   25 ar
  47   24   46 1
  48   25   26 ar
  49   25   47 1
  50   26   48 1
  51   27   28 1
  52   27   49 1
  53   27   50 1
  54   28   51 1
  55   28   52 1
