@<TRIPOS>MOLECULE
ZINC000095644685
  48   51    0    0    0
SMALL
USER_CHARGES
NO_NAME
@<TRIPOS>ATOM
    1 C1       -0.0547     1.5138     0.0227 C.3    1 <0>      -0.0800
    2 C2       -0.0107     0.0076     0.0049 C.2    1 <0>       0.2800
    3 N3       -0.0897    -0.7289    -1.0654 N.2    1 <0>      -0.4600
    4 C4       -0.0169    -2.0363    -0.7202 C.ar   1 <0>      -0.1000
    5 C5       -0.0477    -3.2494    -1.4318 C.ar   1 <0>       0.3500
    6 C6       -0.1868    -3.2590    -2.9053 C.ar   1 <0>      -0.2300
    7 C7       -0.9650    -2.2975    -3.5588 C.ar   1 <0>       0.2500
    8 N8       -1.0642    -2.3399    -4.8750 N.ar   1 <0>      -0.5700
    9 C9       -0.4388    -3.2764    -5.5748 C.ar   1 <0>       0.5800
   10 N10      -0.5684    -3.2852    -6.9507 N.pl3  1 <0>      -0.8100
   11 N11       0.3076    -4.2046    -4.9923 N.ar   1 <0>      -0.5700
   12 C12       0.4613    -4.2264    -3.6809 C.ar   1 <0>       0.2400
   13 N13       0.0515    -4.3885    -0.7500 N.ar   1 <0>      -0.5600
   14 C14       0.1768    -4.3882     0.5695 C.ar   1 <0>       0.6000
   15 N15       0.2764    -5.6012     1.2315 N.pl3  1 <0>      -0.5900
   16 C16       0.4108    -5.6562     2.6958 C.3    1 <0>       0.1000
   17 C17      -0.6365    -6.6338     3.2411 C.3    1 <0>       0.0500
   18 O18      -0.5256    -7.8783     2.5463 O.3    1 <0>      -0.3800
   19 C19      -0.7891    -7.7910     1.1439 C.3    1 <0>       0.0500
   20 C20       0.2447    -6.8728     0.4917 C.3    1 <0>       0.0900
   21 N21       0.2105    -3.2699     1.2771 N.ar   1 <0>      -0.5700
   22 C22       0.1176    -2.0883     0.6798 C.ar   1 <0>       0.3400
   23 N23       0.1236    -0.7842     1.1072 N.pl3  1 <0>      -0.4700
   24 C24       0.2494    -0.3266     2.4932 C.3    1 <0>       0.1400
   25 C25      -0.8472    -0.9700     3.3443 C.3    1 <0>      -0.1700
   26 C26       1.6209    -0.7277     3.0402 C.3    1 <0>      -0.1700
   27 H27       0.9619     1.9070     0.0237 H      1 <0>       0.0900
   28 H28      -0.5821     1.8724    -0.8613 H      1 <0>       0.1000
   29 H29      -0.5758     1.8515     0.9185 H      1 <0>       0.0800
   30 H30      -1.4775    -1.5319    -2.9951 H      1 <0>       0.1800
   31 H31      -1.1109    -2.6123    -7.3910 H      1 <0>       0.4200
   32 H32      -0.1168    -3.9641    -7.4760 H      1 <0>       0.4200
   33 H33       1.0711    -4.9852    -3.2132 H      1 <0>       0.1700
   34 H34       1.4097    -6.0033     2.9600 H      1 <0>       0.0700
   35 H35       0.2426    -4.6652     3.1174 H      1 <0>       0.1000
   36 H36      -0.4651    -6.7946     4.3055 H      1 <0>       0.1100
   37 H37      -1.6337    -6.2204     3.0906 H      1 <0>       0.0500
   38 H38      -0.7275    -8.7844     0.6994 H      1 <0>       0.1100
   39 H39      -1.7869    -7.3818     0.9857 H      1 <0>       0.0600
   40 H40      -0.0312    -6.6885    -0.5466 H      1 <0>       0.1100
   41 H41       1.2286    -7.3400     0.5332 H      1 <0>       0.0800
   42 H42       0.1473     0.7581     2.5285 H      1 <0>       0.1100
   43 H43      -0.7536    -0.6296     4.3755 H      1 <0>       0.0800
   44 H44      -1.8242    -0.6843     2.9546 H      1 <0>       0.0600
   45 H45      -0.7450    -2.0547     3.3091 H      1 <0>       0.0800
   46 H46       2.4002    -0.2040     2.4866 H      1 <0>       0.0600
   47 H47       1.6833    -0.4614     4.0954 H      1 <0>       0.0800
   48 H48       1.7562    -1.8035     2.9284 H      1 <0>       0.0700
@<TRIPOS>BOND
   1    1    2 1
   2    1   27 1
   3    1   28 1
   4    1   29 1
   5    2   23 1
   6    2    3 2
   7    3    4 1
   8    4   22 ar
   9    4    5 ar
  10    5    6 1
  11    5   13 ar
  12    6   12 ar
  13    6    7 ar
  14    7    8 ar
  15    7   30 1
  16    8    9 ar
  17    9   10 1
  18    9   11 ar
  19   10   31 1
  20   10   32 1
  21   11   12 ar
  22   12   33 1
  23   13   14 ar
  24   14   15 1
  25   14   21 ar
  26   15   20 1
  27   15   16 1
  28   16   17 1
  29   16   34 1
  30   16   35 1
  31   17   18 1
  32   17   36 1
  33   17   37 1
  34   18   19 1
  35   19   20 1
  36   19   38 1
  37   19   39 1
  38   20   40 1
  39   20   41 1
  40   21   22 ar
  41   22   23 1
  42   23   24 1
  43   24   25 1
  44   24   26 1
  45   24   42 1
  46   25   43 1
  47   25   44 1
  48   25   45 1
  49   26   46 1
  50   26   47 1
  51   26   48 1
