@<TRIPOS>MOLECULE
ZINC000095930184
56    60    1     0     0
SMALL
USER_CHARGES
@<TRIPOS>ATOM
1      C1     -0.0184    1.5028    0.0103 C.3      1 ZINC000095930184   -0.1500
2      C2      0.0021   -0.0041    0.0020 C.ar     1 ZINC000095930184    0.1600
3      C3      0.0056   -0.6804   -1.2030 C.ar     1 ZINC000095930184   -0.1200
4      C4      0.0249   -2.0669   -1.1996 C.ar     1 ZINC000095930184    0.0100
5      C5      0.0400   -2.7236    0.0212 C.ar     1 ZINC000095930184   -0.0800
6      C6      0.0618   -4.2294    0.0774 C.3      1 ZINC000095930184   -0.0400
7      C7      1.4897   -4.7111    0.0894 C.ar     1 ZINC000095930184   -0.1200
8      C8      2.1836   -4.7910    1.3145 C.ar     1 ZINC000095930184   -0.0100
9      C9      1.5646   -4.4290    2.5213 C.ar     1 ZINC000095930184   -0.1500
10     C10     2.2591   -4.5165    3.6904 C.ar     1 ZINC000095930184   -0.0800
11     C11     3.5778   -4.9607    3.7086 C.ar     1 ZINC000095930184   -0.1300
12     C12     4.2100   -5.3201    2.5546 C.ar     1 ZINC000095930184   -0.0600
13     C13     3.5257   -5.2427    1.3369 C.ar     1 ZINC000095930184   -0.0500
14     C14     4.1605   -5.6169    0.0769 C.ar     1 ZINC000095930184    0.2100
15     N15     5.4298   -6.0541    0.0208 N.2      1 ZINC000095930184   -0.5300
16     C16     5.9895   -6.3871   -1.1056 C.2      1 ZINC000095930184    0.4000
17     N17     5.3486   -6.3218   -2.2994 N.am     1 ZINC000095930184   -0.5200
18     C18     6.0504   -6.7153   -3.5237 C.3      1 ZINC000095930184    0.1200
19     H19     5.3838   -6.5981   -4.3782 H        1 ZINC000095930184    0.1300
20     C20     7.2826   -5.8284   -3.7127 C.3      1 ZINC000095930184   -0.1300
21     C21     8.0155   -6.2394   -4.9913 C.3      1 ZINC000095930184   -0.1200
22     C22     8.4517   -7.7018   -4.8815 C.3      1 ZINC000095930184   -0.1200
23     C23     7.2194   -8.5887   -4.6925 C.3      1 ZINC000095930184   -0.1500
24     C24     6.4865   -8.1777   -3.4139 C.3      1 ZINC000095930184    0.1000
25     H25     7.1531   -8.2949   -2.5594 H        1 ZINC000095930184    0.0600
26     O26     5.3356   -9.0061   -3.2373 O.3      1 ZINC000095930184   -0.5600
27     C27     4.0658   -5.8963   -2.3679 C.2      1 ZINC000095930184    0.5500
28     O28     3.4768   -5.8320   -3.4319 O.2      1 ZINC000095930184   -0.5100
29     C29     3.4115   -5.5141   -1.1099 C.ar     1 ZINC000095930184   -0.2100
30     C30     2.0826   -5.0651   -1.0761 C.ar     1 ZINC000095930184   -0.0200
31     C31     0.0354   -1.9798    1.1862 C.ar     1 ZINC000095930184    0.1200
32     N32     0.0219   -0.6619    1.1449 N.ar     1 ZINC000095930184   -0.4400
33     H33     0.0188   -0.1633    1.9769 H        1 ZINC000095930184    0.4500
34     H34     1.0042    1.8801    0.0026 H        1 ZINC000095930184    0.1200
35     H35    -0.5455    1.8639   -0.8728 H        1 ZINC000095930184    0.1200
36     H36    -0.5286    1.8543    0.9071 H        1 ZINC000095930184    0.1000
37     H37    -0.0069   -0.1359   -2.1356 H        1 ZINC000095930184    0.1900
38     H38     0.0278   -2.6220   -2.1261 H        1 ZINC000095930184    0.1800
39     H39    -0.4431   -4.5665    0.9827 H        1 ZINC000095930184    0.1100
40     H40    -0.4505   -4.6330   -0.7960 H        1 ZINC000095930184    0.1100
41     H41     0.5418   -4.0822    2.5231 H        1 ZINC000095930184    0.1200
42     H42     1.7792   -4.2367    4.6165 H        1 ZINC000095930184    0.1300
43     H43     4.1073   -5.0213    4.6480 H        1 ZINC000095930184    0.1300
44     H44     5.2339   -5.6627    2.5808 H        1 ZINC000095930184    0.1400
45     H45     7.0130   -6.7315   -1.0894 H        1 ZINC000095930184    0.2000
46     H46     6.9719   -4.7865   -3.7909 H        1 ZINC000095930184    0.0800
47     H47     7.9492   -5.9456   -2.8582 H        1 ZINC000095930184    0.0800
48     H48     7.3490   -6.1222   -5.8458 H        1 ZINC000095930184    0.0700
49     H49     8.8934   -5.6075   -5.1260 H        1 ZINC000095930184    0.0800
50     H50     8.9738   -7.9946   -5.7924 H        1 ZINC000095930184    0.0800
51     H51     9.1182   -7.8189   -4.0271 H        1 ZINC000095930184    0.0700
52     H52     6.5529   -8.4715   -5.5470 H        1 ZINC000095930184    0.0800
53     H53     7.5302   -9.6305   -4.6143 H        1 ZINC000095930184    0.0800
54     H54     5.5375   -9.9486   -3.1601 H        1 ZINC000095930184    0.3900
55     H55     1.5226   -4.9977   -1.9971 H        1 ZINC000095930184    0.1400
56     H56     0.0467   -2.4838    2.1413 H        1 ZINC000095930184    0.2100
@<TRIPOS>BOND
1     1     2     1
2     1     34    1
3     1     35    1
4     1     36    1
5     2     32    ar
6     2     3     ar
7     3     4     ar
8     3     37    1
9     4     5     ar
10    4     38    1
11    5     6     1
12    5     31    ar
13    6     7     1
14    6     39    1
15    6     40    1
16    7     30    ar
17    7     8     ar
18    8     13    ar
19    8     9     ar
20    9     10    ar
21    9     41    1
22    10    11    ar
23    10    42    1
24    11    12    ar
25    11    43    1
26    12    13    ar
27    12    44    1
28    13    14    ar
29    14    29    ar
30    14    15    1
31    15    16    2
32    16    17    1
33    16    45    1
34    17    18    1
35    17    27    am
36    18    19    1
37    18    24    1
38    18    20    1
39    20    21    1
40    20    46    1
41    20    47    1
42    21    22    1
43    21    48    1
44    21    49    1
45    22    23    1
46    22    50    1
47    22    51    1
48    23    24    1
49    23    52    1
50    23    53    1
51    24    25    1
52    24    26    1
53    26    54    1
54    27    28    2
55    27    29    1
56    29    30    ar
57    30    55    1
58    31    32    ar
59    31    56    1
60    32    33    1
@<TRIPOS>SUBSTRUCTURE
1   ZINC000095930184 1     RESIDUE    1   A     ZIN   1
