@<TRIPOS>MOLECULE
ZINC000000598308
58    61    1     0     0
SMALL
USER_CHARGES
@<TRIPOS>ATOM
1      O1      0.0021   -0.0041    0.0020 O.2      1 ZINC000000598308   -0.3900
2      C2     -0.0144    1.2114    0.0087 C.2      1 ZINC000000598308    0.5400
3      N3      1.1435    1.9011    0.0014 N.am     1 ZINC000000598308   -0.6400
4      C4      2.3197    1.2431   -0.0134 C.2      1 ZINC000000598308    0.5200
5      S5      2.3429   -0.4687   -0.0228 S.2      1 ZINC000000598308   -0.5000
6      N6      3.4776    1.9328   -0.0208 N.am     1 ZINC000000598308   -0.6800
7      C7      4.7560    1.2177   -0.0368 C.3      1 ZINC000000598308    0.1200
8      C8      5.9053    2.2277   -0.0424 C.3      1 ZINC000000598308   -0.1300
9      C9      7.2405    1.4808   -0.0591 C.3      1 ZINC000000598308   -0.0900
10     C10     7.3816    0.7134   -1.3769 C.3      1 ZINC000000598308   -0.1500
11     C11     8.7518    0.0338   -1.4209 C.3      1 ZINC000000598308   -0.0100
12     N12     9.8085    1.0484   -1.3283 N.4      1 ZINC000000598308   -0.3800
13     H13     9.6967    1.7180   -2.0748 H        1 ZINC000000598308    0.4200
14     C14    11.1207    0.3990   -1.4474 C.3      1 ZINC000000598308    0.0400
15     C15    12.2079    1.4197   -1.2302 C.ar     1 ZINC000000598308   -0.1600
16     C16    12.7138    2.1297   -2.3030 C.ar     1 ZINC000000598308   -0.0900
17     C17    13.7111    3.0659   -2.1038 C.ar     1 ZINC000000598308   -0.1100
18     C18    14.2022    3.2926   -0.8316 C.ar     1 ZINC000000598308   -0.0800
19     C19    13.6957    2.5832    0.2413 C.ar     1 ZINC000000598308   -0.1100
20     C20    12.6954    1.6500    0.0427 C.ar     1 ZINC000000598308   -0.1000
21     C21     9.7234    1.7396   -0.0362 C.3      1 ZINC000000598308   -0.0100
22     C22     8.3905    2.4849    0.0611 C.3      1 ZINC000000598308   -0.1400
23     C23    -1.3019    1.9316    0.0187 C.ar     1 ZINC000000598308   -0.1300
24     C24    -1.3230    3.3284    0.0206 C.ar     1 ZINC000000598308   -0.0800
25     C25    -2.5265    3.9993    0.0295 C.ar     1 ZINC000000598308   -0.1100
26     C26    -3.7209    3.2918    0.0372 C.ar     1 ZINC000000598308    0.0700
27     O27    -5.0177    3.7132    0.0475 O.3      1 ZINC000000598308   -0.3000
28     C28    -5.7967    2.5737   -0.3615 C.3      1 ZINC000000598308    0.2100
29     O29    -4.9965    1.4476    0.0440 O.3      1 ZINC000000598308   -0.3000
30     C30    -3.7068    1.8959    0.0353 C.ar     1 ZINC000000598308    0.0300
31     C31    -2.5041    1.2180    0.0205 C.ar     1 ZINC000000598308   -0.0400
32     H32     1.1303    2.8710    0.0067 H        1 ZINC000000598308    0.4100
33     H33     3.4644    2.9027   -0.0154 H        1 ZINC000000598308    0.4000
34     H34     4.8308    0.5871    0.8491 H        1 ZINC000000598308    0.0900
35     H35     4.8138    0.5967   -0.9307 H        1 ZINC000000598308    0.0900
36     H36     5.8306    2.8582   -0.9283 H        1 ZINC000000598308    0.0800
37     H37     5.8476    2.8487    0.8516 H        1 ZINC000000598308    0.0800
38     H38     7.2779    0.7821    0.7767 H        1 ZINC000000598308    0.1000
39     H39     6.5984   -0.0417   -1.4440 H        1 ZINC000000598308    0.1200
40     H40     7.2921    1.4068   -2.2132 H        1 ZINC000000598308    0.0900
41     H41     8.8401   -0.6594   -0.5844 H        1 ZINC000000598308    0.1300
42     H42     8.8555   -0.5136   -2.3578 H        1 ZINC000000598308    0.1300
43     H43    11.2061   -0.3879   -0.6980 H        1 ZINC000000598308    0.1400
44     H44    11.2227   -0.0343   -2.4424 H        1 ZINC000000598308    0.1400
45     H45    12.3301    1.9526   -3.2969 H        1 ZINC000000598308    0.1300
46     H46    14.1068    3.6201   -2.9420 H        1 ZINC000000598308    0.1400
47     H47    14.9818    4.0235   -0.6761 H        1 ZINC000000598308    0.1400
48     H48    14.0796    2.7601    1.2352 H        1 ZINC000000598308    0.1400
49     H49    12.2997    1.0959    0.8809 H        1 ZINC000000598308    0.1300
50     H50     9.7910    1.0100    0.7708 H        1 ZINC000000598308    0.1300
51     H51    10.5443    2.4516    0.0492 H        1 ZINC000000598308    0.1300
52     H52     8.3220    3.2150   -0.7454 H        1 ZINC000000598308    0.0900
53     H53     8.3286    2.9960    1.0219 H        1 ZINC000000598308    0.1100
54     H54    -0.3959    3.8825    0.0154 H        1 ZINC000000598308    0.1400
55     H55    -2.5406    5.0793    0.0308 H        1 ZINC000000598308    0.1500
56     H56    -6.7589    2.5639    0.1506 H        1 ZINC000000598308    0.1400
57     H57    -5.9372    2.5741   -1.4424 H        1 ZINC000000598308    0.0900
58     H58    -2.4920    0.1381    0.0136 H        1 ZINC000000598308    0.1600
@<TRIPOS>BOND
1     1     2     2
2     2     3     am
3     2     23    1
4     3     4     am
5     3     32    1
6     4     5     2
7     4     6     am
8     6     7     1
9     6     33    1
10    7     8     1
11    7     34    1
12    7     35    1
13    8     9     1
14    8     36    1
15    8     37    1
16    9     22    1
17    9     10    1
18    9     38    1
19    10    11    1
20    10    39    1
21    10    40    1
22    11    12    1
23    11    41    1
24    11    42    1
25    12    13    1
26    12    14    1
27    12    21    1
28    14    15    1
29    14    43    1
30    14    44    1
31    15    20    ar
32    15    16    ar
33    16    17    ar
34    16    45    1
35    17    18    ar
36    17    46    1
37    18    19    ar
38    18    47    1
39    19    20    ar
40    19    48    1
41    20    49    1
42    21    22    1
43    21    50    1
44    21    51    1
45    22    52    1
46    22    53    1
47    23    31    ar
48    23    24    ar
49    24    25    ar
50    24    54    1
51    25    26    ar
52    25    55    1
53    26    30    ar
54    26    27    1
55    27    28    1
56    28    29    1
57    28    56    1
58    28    57    1
59    29    30    1
60    30    31    ar
61    31    58    1
@<TRIPOS>SUBSTRUCTURE
1   ZINC000000598308 1     RESIDUE    1   A     ZIN   1
