@<TRIPOS>MOLECULE
ZINC000043154039
50    53    1     0     0
SMALL
USER_CHARGES
@<TRIPOS>ATOM
1      N1     -0.0167    1.3835    0.0096 N.pl3    1 ZINC000043154039   -0.8400
2      C2      0.0021   -0.0041    0.0020 C.ar     1 ZINC000043154039    0.4300
3      C3     -1.1996   -0.7076    0.0039 C.ar     1 ZINC000043154039   -0.2000
4      C4     -1.1727   -2.0877   -0.0042 C.ar     1 ZINC000043154039   -0.0500
5      C5     -2.4518   -2.8845   -0.0029 C.3      1 ZINC000043154039    0.5200
6      F6     -3.5450   -2.0116    0.0071 F        1 ZINC000043154039   -0.1800
7      F7     -2.5041   -3.6842   -1.1496 F        1 ZINC000043154039   -0.1600
8      F8     -2.4937   -3.6974    1.1349 F        1 ZINC000043154039   -0.1600
9      C9      0.0718   -2.7294   -0.0140 C.ar     1 ZINC000043154039   -0.1300
10     C10     0.1540   -4.2093   -0.0235 C.ar     1 ZINC000043154039    0.2600
11     C11     1.3921   -4.8480   -0.0275 C.ar     1 ZINC000043154039   -0.2600
12     C12     1.4185   -6.2417   -0.0365 C.ar     1 ZINC000043154039    0.3900
13     N13     2.6265   -6.9210   -0.0403 N.3      1 ZINC000043154039   -0.4700
14     C14     3.4589   -6.5093   -1.1801 C.3      1 ZINC000043154039    0.0200
15     C15     4.8037   -7.2377   -1.1124 C.3      1 ZINC000043154039    0.0600
16     O16     4.5751   -8.6493   -1.0909 O.3      1 ZINC000043154039   -0.3800
17     C17     3.7684   -9.0852    0.0066 C.3      1 ZINC000043154039    0.0600
18     C18     2.4130   -8.3755   -0.0497 C.3      1 ZINC000043154039    0.0300
19     N19     0.2692   -6.9108   -0.0408 N.ar     1 ZINC000043154039   -0.5700
20     C20    -0.8904   -6.2700   -0.0367 C.ar     1 ZINC000043154039    0.5400
21     N21    -2.0646   -7.0027   -0.0415 N.3      1 ZINC000043154039   -0.4600
22     C22    -2.1091   -7.9192   -1.1901 C.3      1 ZINC000043154039    0.0300
23     C23    -3.3933   -8.7501   -1.1236 C.3      1 ZINC000043154039    0.0600
24     O24    -4.5217   -7.8723   -1.0874 O.3      1 ZINC000043154039   -0.3800
25     C25    -4.5110   -6.9662    0.0190 C.3      1 ZINC000043154039    0.0600
26     C26    -3.2382   -6.1172   -0.0358 C.3      1 ZINC000043154039    0.0100
27     N27    -0.9563   -4.9483   -0.0227 N.ar     1 ZINC000043154039   -0.5700
28     C28     1.2313   -1.9578   -0.0153 C.ar     1 ZINC000043154039    0.2000
29     N29     1.1633   -0.6422   -0.0125 N.ar     1 ZINC000043154039   -0.5200
30     H30     0.8166    1.8799    0.0044 H        1 ZINC000043154039    0.4100
31     H31    -0.8633    1.8570    0.0162 H        1 ZINC000043154039    0.4100
32     H32    -2.1417   -0.1797    0.0120 H        1 ZINC000043154039    0.1500
33     H33     2.3090   -4.2773   -0.0242 H        1 ZINC000043154039    0.1500
34     H34     2.9530   -6.7647   -2.1112 H        1 ZINC000043154039    0.0600
35     H35     3.6255   -5.4328   -1.1390 H        1 ZINC000043154039    0.1000
36     H36     5.4021   -6.9791   -1.9860 H        1 ZINC000043154039    0.1100
37     H37     5.3332   -6.9409   -0.2070 H        1 ZINC000043154039    0.0700
38     H38     3.6179  -10.1628   -0.0577 H        1 ZINC000043154039    0.1100
39     H39     4.2678   -8.8422    0.9445 H        1 ZINC000043154039    0.0600
40     H40     1.8162   -8.6613    0.8164 H        1 ZINC000043154039    0.1000
41     H41     1.8905   -8.6607   -0.9628 H        1 ZINC000043154039    0.0600
42     H42    -2.0954   -7.3437   -2.1157 H        1 ZINC000043154039    0.0500
43     H43    -1.2445   -8.5824   -1.1602 H        1 ZINC000043154039    0.1000
44     H44    -3.4583   -9.3904   -2.0033 H        1 ZINC000043154039    0.1100
45     H45    -3.3822   -9.3659   -0.2244 H        1 ZINC000043154039    0.0600
46     H46    -5.3845   -6.3163   -0.0342 H        1 ZINC000043154039    0.1100
47     H47    -4.5324   -7.5301    0.9515 H        1 ZINC000043154039    0.0600
48     H48    -3.1978   -5.4650    0.8366 H        1 ZINC000043154039    0.1100
49     H49    -3.2425   -5.5129   -0.9430 H        1 ZINC000043154039    0.0800
50     H50     2.1962   -2.4431   -0.0226 H        1 ZINC000043154039    0.1700
@<TRIPOS>BOND
1     1     2     1
2     1     30    1
3     1     31    1
4     2     29    ar
5     2     3     ar
6     3     4     ar
7     3     32    1
8     4     5     1
9     4     9     ar
10    5     6     1
11    5     7     1
12    5     8     1
13    9     10    1
14    9     28    ar
15    10    27    ar
16    10    11    ar
17    11    12    ar
18    11    33    1
19    12    13    1
20    12    19    ar
21    13    18    1
22    13    14    1
23    14    15    1
24    14    34    1
25    14    35    1
26    15    16    1
27    15    36    1
28    15    37    1
29    16    17    1
30    17    18    1
31    17    38    1
32    17    39    1
33    18    40    1
34    18    41    1
35    19    20    ar
36    20    21    1
37    20    27    ar
38    21    26    1
39    21    22    1
40    22    23    1
41    22    42    1
42    22    43    1
43    23    24    1
44    23    44    1
45    23    45    1
46    24    25    1
47    25    26    1
48    25    46    1
49    25    47    1
50    26    48    1
51    26    49    1
52    28    29    ar
53    28    50    1
@<TRIPOS>SUBSTRUCTURE
1   ZINC000043154039 1     RESIDUE    1   A     ZIN   1
