@<TRIPOS>MOLECULE
ZINC000137550409
81    84    1     0     0
SMALL
USER_CHARGES
@<TRIPOS>ATOM
1      C1      3.5736    3.6477   -7.4691 C.3      1 ZINC000137550409    0.0200
2      N2      2.8399    2.4948   -6.9302 N.3      1 ZINC000137550409   -0.5100
3      C3      2.3389    1.6370   -8.0124 C.3      1 ZINC000137550409    0.0200
4      C4      3.6358    1.7654   -6.0397 C.ar     1 ZINC000137550409    0.0900
5      C5      4.8302    1.2001   -6.4766 C.ar     1 ZINC000137550409   -0.0900
6      C6      5.6212    0.4769   -5.6058 C.ar     1 ZINC000137550409   -0.1900
7      C7      6.9094   -0.1348   -6.0930 C.3      1 ZINC000137550409    0.0500
8      N8      6.6999   -1.5622   -6.3697 N.4      1 ZINC000137550409   -0.5100
9      H9      6.4043   -2.0286   -5.5252 H        1 ZINC000137550409    0.4200
10     H10     5.9889   -1.6666   -7.0780 H        1 ZINC000137550409    0.4300
11     C11     7.9556   -2.1584   -6.8446 C.3      1 ZINC000137550409    0.0000
12     C12     7.7373   -3.6451   -7.1328 C.3      1 ZINC000137550409   -0.0900
13     C13     6.6592   -3.8035   -8.2069 C.3      1 ZINC000137550409   -0.1700
14     C14     9.0452   -4.2661   -7.6275 C.3      1 ZINC000137550409   -0.1500
15     C15     7.2892   -4.3524   -5.8522 C.3      1 ZINC000137550409   -0.1700
16     C16     5.2344    0.3121   -4.2846 C.ar     1 ZINC000137550409    0.1600
17     O17     6.0130   -0.3990   -3.4294 O.3      1 ZINC000137550409   -0.4700
18     C18     4.0358    0.8836   -3.8361 C.ar     1 ZINC000137550409   -0.1100
19     C19     3.2357    1.6063   -4.7257 C.ar     1 ZINC000137550409    0.0200
20     C20     1.9401    2.2060   -4.2425 C.3      1 ZINC000137550409   -0.0800
21     C21     2.1067    2.6861   -2.8031 C.3      1 ZINC000137550409   -0.0400
22     H22     2.8168    3.5129   -2.7869 H        1 ZINC000137550409    0.0900
23     C23     0.7598    3.1796   -2.2699 C.3      1 ZINC000137550409   -0.1100
24     C24     0.9322    3.5090   -0.7901 C.3      1 ZINC000137550409   -0.0900
25     H25     1.8444    4.0958   -0.6814 H        1 ZINC000137550409    0.1000
26     C26    -0.2112    4.3499   -0.2575 C.3      1 ZINC000137550409    0.0400
27     H27    -0.4041    5.1662   -0.9536 H        1 ZINC000137550409    0.1500
28     N28     0.1779    4.9159    1.0411 N.4      1 ZINC000137550409   -0.3700
29     H29     0.3144    4.1694    1.7060 H        1 ZINC000137550409    0.4300
30     C30     1.4282    5.6723    0.8906 C.3      1 ZINC000137550409   -0.0500
31     C31    -0.8819    5.8124    1.5219 C.3      1 ZINC000137550409   -0.0500
32     C32    -1.4686    3.5518   -0.0832 C.2      1 ZINC000137550409    0.3000
33     O33    -2.6436    4.1966   -0.0327 O.3      1 ZINC000137550409   -0.5600
34     C34    -1.4578    2.1843    0.0208 C.2      1 ZINC000137550409   -0.4800
35     C35    -2.7219    1.4567    0.2160 C.2      1 ZINC000137550409    0.5800
36     N36    -2.7064    0.1295    0.4502 N.am     1 ZINC000137550409   -0.8700
37     O37    -3.7809    2.0531    0.1660 O.2      1 ZINC000137550409   -0.5500
38     C38    -0.1983    1.4458   -0.0557 C.2      1 ZINC000137550409    0.3900
39     O39    -0.1964    0.2377   -0.1730 O.2      1 ZINC000137550409   -0.4900
40     C40     1.1065    2.2178    0.0078 C.3      1 ZINC000137550409    0.0600
41     O41     1.4532    2.4949    1.3662 O.3      1 ZINC000137550409   -0.5500
42     C42     2.1680    1.3681   -0.6391 C.2      1 ZINC000137550409    0.3800
43     O43     2.6447    0.4527    0.0037 O.2      1 ZINC000137550409   -0.4200
44     C44     2.6313    1.5762   -1.9324 C.2      1 ZINC000137550409   -0.2200
45     C45     3.6285    0.7535   -2.4272 C.2      1 ZINC000137550409    0.2200
46     O46     4.2014   -0.1769   -1.6331 O.3      1 ZINC000137550409   -0.4500
47     H47     4.4605    3.2989   -7.9982 H        1 ZINC000137550409    0.0300
48     H48     2.9320    4.1970   -8.1581 H        1 ZINC000137550409    0.0900
49     H49     3.8729    4.3027   -6.6509 H        1 ZINC000137550409    0.0800
50     H50     1.7405    0.8302   -7.5891 H        1 ZINC000137550409    0.0800
51     H51     1.7235    2.2289   -8.6899 H        1 ZINC000137550409    0.0900
52     H52     3.1810    1.2154   -8.5612 H        1 ZINC000137550409    0.0300
53     H53     5.1403    1.3276   -7.5032 H        1 ZINC000137550409    0.1400
54     H54     7.2287    0.3691   -7.0053 H        1 ZINC000137550409    0.1400
55     H55     7.6775   -0.0219   -5.3279 H        1 ZINC000137550409    0.1500
56     H56     8.2748   -1.6546   -7.7569 H        1 ZINC000137550409    0.1400
57     H57     8.7236   -2.0456   -6.0795 H        1 ZINC000137550409    0.1400
58     H58     6.9785   -3.2996   -9.1192 H        1 ZINC000137550409    0.0700
59     H59     6.5037   -4.8626   -8.4122 H        1 ZINC000137550409    0.0900
60     H60     5.7275   -3.3611   -7.8545 H        1 ZINC000137550409    0.0500
61     H61     9.8132   -4.1533   -6.8623 H        1 ZINC000137550409    0.0700
62     H62     8.8896   -5.3253   -7.8328 H        1 ZINC000137550409    0.0800
63     H63     9.3644   -3.7623   -8.5398 H        1 ZINC000137550409    0.0700
64     H64     6.3574   -3.9100   -5.4998 H        1 ZINC000137550409    0.0500
65     H65     7.1336   -5.4115   -6.0575 H        1 ZINC000137550409    0.0900
66     H66     8.0572   -4.2396   -5.0871 H        1 ZINC000137550409    0.0800
67     H67     5.8049   -1.3428   -3.4003 H        1 ZINC000137550409    0.3900
68     H68     1.1530    1.4532   -4.2855 H        1 ZINC000137550409    0.1000
69     H69     1.6710    3.0497   -4.8780 H        1 ZINC000137550409    0.1200
70     H70     0.4533    4.0735   -2.8132 H        1 ZINC000137550409    0.1000
71     H71     0.0080    2.3994   -2.3887 H        1 ZINC000137550409    0.0900
72     H72     2.2443    4.9848    0.6681 H        1 ZINC000137550409    0.1200
73     H73     1.3239    6.3883    0.0754 H        1 ZINC000137550409    0.1200
74     H74     1.6443    6.2050    1.8167 H        1 ZINC000137550409    0.1200
75     H75    -1.8096    5.2512    1.6335 H        1 ZINC000137550409    0.1400
76     H76    -0.5931    6.2323    2.4854 H        1 ZINC000137550409    0.1200
77     H77    -1.0292    6.6188    0.8035 H        1 ZINC000137550409    0.1200
78     H78    -1.8614   -0.3330    0.5642 H        1 ZINC000137550409    0.4000
79     H79    -3.5402   -0.3632    0.5047 H        1 ZINC000137550409    0.3900
80     H80     1.5711    1.7047    1.9110 H        1 ZINC000137550409    0.4100
81     H81     3.8070   -1.0565   -1.7099 H        1 ZINC000137550409    0.4000
@<TRIPOS>BOND
1     1     2     1
2     1     47    1
3     1     48    1
4     1     49    1
5     2     3     1
6     2     4     1
7     3     50    1
8     3     51    1
9     3     52    1
10    4     19    ar
11    4     5     ar
12    5     6     ar
13    5     53    1
14    6     7     1
15    6     16    ar
16    7     8     1
17    7     54    1
18    7     55    1
19    8     9     1
20    8     10    1
21    8     11    1
22    11    12    1
23    11    56    1
24    11    57    1
25    12    13    1
26    12    14    1
27    12    15    1
28    13    58    1
29    13    59    1
30    13    60    1
31    14    61    1
32    14    62    1
33    14    63    1
34    15    64    1
35    15    65    1
36    15    66    1
37    16    17    1
38    16    18    ar
39    17    67    1
40    18    45    1
41    18    19    ar
42    19    20    1
43    20    21    1
44    20    68    1
45    20    69    1
46    21    22    1
47    21    44    1
48    21    23    1
49    23    24    1
50    23    70    1
51    23    71    1
52    24    25    1
53    24    40    1
54    24    26    1
55    26    27    1
56    26    28    1
57    26    32    1
58    28    29    1
59    28    30    1
60    28    31    1
61    30    72    1
62    30    73    1
63    30    74    1
64    31    75    1
65    31    76    1
66    31    77    1
67    32    33    1
68    32    34    2
69    34    35    1
70    34    38    1
71    35    36    am
72    35    37    2
73    36    78    1
74    36    79    1
75    38    39    2
76    38    40    1
77    40    41    1
78    40    42    1
79    41    80    1
80    42    43    2
81    42    44    1
82    44    45    2
83    45    46    1
84    46    81    1
@<TRIPOS>SUBSTRUCTURE
1   ZINC000137550409 1     RESIDUE    1   A     ZIN   1
