@<TRIPOS>MOLECULE
ZINC000001489430
  52   55    0    0    0
SMALL
USER_CHARGES
NO_NAME
@<TRIPOS>ATOM
    1 C1        0.7352    -0.2636     2.7989 C.3    1 <0>       0.0100
    2 O2        0.3949    -0.8876     1.5591 O.3    1 <0>      -0.2800
    3 C3       -0.8259    -1.4792     1.4809 C.ar   1 <0>       0.2200
    4 C4       -1.2128    -2.1124     0.2912 C.ar   1 <0>       0.1400
    5 O5       -0.3629    -2.1281    -0.7702 O.3    1 <0>      -0.2900
    6 C6       -0.8151    -2.7891    -1.9537 C.3    1 <0>       0.0100
    7 C7       -2.4339    -2.7137     0.1880 C.ar   1 <0>      -0.1400
    8 C8       -3.3104    -2.6978     1.2833 C.ar   1 <0>      -0.0900
    9 C9       -2.9226    -2.0590     2.4863 C.ar   1 <0>       0.1800
   10 C10      -1.6572    -1.4539     2.5634 C.ar   1 <0>      -0.2400
   11 N11      -3.7568    -2.0433     3.5328 N.ar   1 <0>      -0.4800
   12 H12      -3.4803    -1.6024     4.3514 H      1 <0>       0.4500
   13 C13      -4.9396    -2.6092     3.4787 C.ar   1 <0>       0.2300
   14 C14      -5.3910    -3.2552     2.3347 C.ar   1 <0>      -0.2700
   15 C15      -4.5820    -3.3101     1.2134 C.ar   1 <0>       0.2800
   16 O16      -4.9960    -3.9338     0.0829 O.3    1 <0>      -0.2100
   17 C17      -6.1865    -4.5894     0.1152 C.ar   1 <0>       0.0300
   18 C18      -7.3737    -3.8729     0.0763 C.ar   1 <0>      -0.0900
   19 C19      -8.5840    -4.5379     0.1085 C.ar   1 <0>      -0.0900
   20 C20      -8.6126    -5.9237     0.1799 C.ar   1 <0>       0.2100
   21 N21      -9.8405    -6.5989     0.2121 N.am   1 <0>      -0.6800
   22 C22     -10.8930    -6.1169    -0.4781 C.2    1 <0>       0.7200
   23 O23     -10.8006    -5.0562    -1.0652 O.2    1 <0>      -0.5400
   24 N24     -12.0479    -6.8105    -0.5174 N.am   1 <0>      -0.6300
   25 C25     -13.1370    -6.3117    -1.2317 C.2    1 <0>       0.2500
   26 N26     -14.3148    -6.8654    -1.3550 N.2    1 <0>      -0.3800
   27 O27     -15.0513    -6.1919    -2.0376 O.3    1 <0>       0.1000
   28 C28     -14.4466    -5.0753    -2.4684 C.2    1 <0>      -0.0100
   29 C29     -15.0504    -4.0020    -3.3369 C.3    1 <0>      -0.0800
   30 C30     -13.1911    -5.0971    -1.9659 C.2    1 <0>      -0.2300
   31 C31      -7.4232    -6.6415     0.2188 C.ar   1 <0>      -0.0600
   32 Cl32     -7.4575    -8.3749     0.3074 Cl     1 <0>      -0.0300
   33 C33      -6.2136    -5.9753     0.1812 C.ar   1 <0>      -0.0700
   34 H34       1.7332     0.1685     2.7262 H      1 <0>       0.1200
   35 H35       0.0138     0.5231     3.0197 H      1 <0>       0.0700
   36 H36       0.7181    -1.0065     3.5963 H      1 <0>       0.0700
   37 H37      -1.7244    -2.3078    -2.3137 H      1 <0>       0.0700
   38 H38      -0.0435    -2.7283    -2.7212 H      1 <0>       0.1200
   39 H39      -1.0224    -3.8353    -1.7289 H      1 <0>       0.0700
   40 H40      -2.7239    -3.1989    -0.7322 H      1 <0>       0.1700
   41 H41      -1.3464    -0.9627     3.4736 H      1 <0>       0.1700
   42 H42      -5.5797    -2.5719     4.3477 H      1 <0>       0.2100
   43 H43      -6.3695    -3.7121     2.3203 H      1 <0>       0.1800
   44 H44      -7.3518    -2.7945     0.0212 H      1 <0>       0.1500
   45 H45      -9.5079    -3.9796     0.0786 H      1 <0>       0.1700
   46 H46      -9.9328    -7.4131     0.7312 H      1 <0>       0.4200
   47 H47     -12.1216    -7.6567    -0.0490 H      1 <0>       0.4200
   48 H48     -16.0807    -4.2652    -3.5763 H      1 <0>       0.0900
   49 H49     -15.0327    -3.0510    -2.8044 H      1 <0>       0.0900
   50 H50     -14.4746    -3.9134    -4.2581 H      1 <0>       0.0900
   51 H51     -12.4088    -4.3644    -2.0983 H      1 <0>       0.1900
   52 H52      -5.2890    -6.5326     0.2110 H      1 <0>       0.1600
@<TRIPOS>BOND
   1    1    2 1
   2    1   34 1
   3    1   35 1
   4    1   36 1
   5    2    3 1
   6    3   10 ar
   7    3    4 ar
   8    4    5 1
   9    4    7 ar
  10    5    6 1
  11    6   37 1
  12    6   38 1
  13    6   39 1
  14    7    8 ar
  15    7   40 1
  16    8   15 ar
  17    8    9 ar
  18    9   10 ar
  19    9   11 ar
  20   10   41 1
  21   11   12 1
  22   11   13 ar
  23   13   14 ar
  24   13   42 1
  25   14   15 ar
  26   14   43 1
  27   15   16 1
  28   16   17 1
  29   17   33 ar
  30   17   18 ar
  31   18   19 ar
  32   18   44 1
  33   19   20 ar
  34   19   45 1
  35   20   21 1
  36   20   31 ar
  37   21   22 am
  38   21   46 1
  39   22   23 2
  40   22   24 am
  41   24   25 1
  42   24   47 1
  43   25   30 1
  44   25   26 2
  45   26   27 1
  46   27   28 1
  47   28   29 1
  48   28   30 2
  49   29   48 1
  50   29   49 1
  51   29   50 1
  52   30   51 1
  53   31   32 1
  54   31   33 ar
  55   33   52 1
