@<TRIPOS>MOLECULE
ZINC000034842512
39    41    1     0     0
SMALL
USER_CHARGES
@<TRIPOS>ATOM
1      C1     -0.0992    1.7208   -0.2760 C.3      1 ZINC000034842512   -0.1400
2      C2     -0.0739    0.1974   -0.1364 C.3      1 ZINC000034842512   -0.0300
3      C3      0.6257   -0.1834    1.1699 C.3      1 ZINC000034842512   -0.1400
4      C4     -1.4858   -0.3293   -0.1222 C.2      1 ZINC000034842512   -0.1800
5      C5     -1.8991   -1.2132   -1.0695 C.2      1 ZINC000034842512   -0.1000
6      C6     -3.2206   -1.6968   -1.0440 C.2      1 ZINC000034842512    0.1600
7      O7     -3.6335   -2.5798   -1.9894 O.3      1 ZINC000034842512   -0.2500
8      C8     -4.9172   -3.0237   -1.9310 C.ar     1 ZINC000034842512    0.1400
9      C9     -5.2258   -4.1603   -1.1954 C.ar     1 ZINC000034842512   -0.0200
10     Cl10   -3.9725   -5.0141   -0.3505 Cl       1 ZINC000034842512   -0.0400
11     C11    -6.5301   -4.6113   -1.1355 C.ar     1 ZINC000034842512   -0.0600
12     C12    -7.5331   -3.9277   -1.8112 C.ar     1 ZINC000034842512    0.1600
13     N13    -8.8548   -4.3841   -1.7504 N.am     1 ZINC000034842512   -0.3400
14     N14    -9.5123   -4.5155   -2.8458 N.2      1 ZINC000034842512   -0.1600
15     C15   -10.7576   -4.9407   -2.8446 C.2      1 ZINC000034842512    0.0200
16     C16   -11.4819   -5.0842   -4.0715 C.1      1 ZINC000034842512    0.3200
17     N17   -12.0565   -5.1979   -5.0448 N.1      1 ZINC000034842512   -0.4300
18     C18   -11.3922   -5.2673   -1.5527 C.2      1 ZINC000034842512    0.5100
19     O19   -12.5408   -5.6645   -1.4982 O.2      1 ZINC000034842512   -0.5600
20     N20   -10.6514   -5.1098   -0.4306 N.pl3    1 ZINC000034842512   -0.6500
21     C21    -9.3819   -4.6720   -0.5501 C.2      1 ZINC000034842512    0.6100
22     O22    -8.7050   -4.5260    0.4490 O.2      1 ZINC000034842512   -0.5500
23     C23    -7.2239   -2.7906   -2.5471 C.ar     1 ZINC000034842512   -0.0900
24     C24    -5.9203   -2.3371   -2.6023 C.ar     1 ZINC000034842512   -0.0200
25     Cl25   -5.5339   -0.9159   -3.5213 Cl       1 ZINC000034842512   -0.0500
26     N26    -4.0551   -1.3018   -0.1149 N.2      1 ZINC000034842512   -0.2700
27     N27    -3.6514   -0.3928    0.8698 N.pl3    1 ZINC000034842512   -0.4300
28     C28    -2.3906    0.0846    0.8765 C.2      1 ZINC000034842512    0.4300
29     O29    -2.0379    0.8776    1.7353 O.2      1 ZINC000034842512   -0.6300
30     H30     0.9220    2.1018   -0.2862 H        1 ZINC000034842512    0.0400
31     H31    -0.5976    1.9922   -1.2066 H        1 ZINC000034842512    0.0400
32     H32    -0.6401    2.1538    0.5655 H        1 ZINC000034842512    0.0800
33     H33     0.4670   -0.2356   -0.9778 H        1 ZINC000034842512    0.0500
34     H34     0.0848    0.2496    2.0114 H        1 ZINC000034842512    0.0800
35     H35     0.6437   -1.2688    1.2694 H        1 ZINC000034842512    0.0400
36     H36     1.6469    0.1975    1.1597 H        1 ZINC000034842512    0.0400
37     H37    -1.2161   -1.5426   -1.8385 H        1 ZINC000034842512    0.1100
38     H38    -6.7700   -5.4955   -0.5636 H        1 ZINC000034842512    0.1500
39     H39    -8.0034   -2.2591   -3.0728 H        1 ZINC000034842512    0.1500
@<TRIPOS>BOND
1     1     2     1
2     1     30    1
3     1     31    1
4     1     32    1
5     2     3     1
6     2     4     1
7     2     33    1
8     3     34    1
9     3     35    1
10    3     36    1
11    4     28    1
12    4     5     2
13    5     6     1
14    5     37    1
15    6     7     1
16    6     26    2
17    7     8     1
18    8     24    ar
19    8     9     ar
20    9     10    1
21    9     11    ar
22    11    12    ar
23    11    38    1
24    12    13    1
25    12    23    ar
26    13    21    am
27    13    14    1
28    14    15    2
29    15    16    1
30    15    18    1
31    16    17    3
32    18    19    2
33    18    20    1
34    20    21    1
35    21    22    2
36    23    24    ar
37    23    39    1
38    24    25    1
39    26    27    1
40    27    28    1
41    28    29    2
@<TRIPOS>SUBSTRUCTURE
1   ZINC000034842512 1     RESIDUE    1   A     ZIN   1
