@<TRIPOS>MOLECULE
ZINC000001590366
  32   33    0    0    0
SMALL
USER_CHARGES
NO_NAME
@<TRIPOS>ATOM
    1 O1        0.0021    -0.0041     0.0020 O.2    1 <0>      -0.5100
    2 C2       -0.0144     1.2086     0.0087 C.2    1 <0>       0.5200
    3 C3        1.2803     1.9798     0.0005 C.3    1 <0>      -0.1000
    4 C4        2.4389     1.0162    -0.0158 C.ar   1 <0>      -0.0700
    5 C5        2.9780     0.5634     1.1739 C.ar   1 <0>      -0.1100
    6 C6        4.0408    -0.3204     1.1590 C.ar   1 <0>      -0.1200
    7 C7        4.5641    -0.7519    -0.0455 C.ar   1 <0>      -0.1200
    8 C8        4.0243    -0.2999    -1.2352 C.ar   1 <0>      -0.1200
    9 C9        2.9588     0.5807    -1.2203 C.ar   1 <0>      -0.1000
   10 N10      -1.1906     1.8666     0.0178 N.am   1 <0>      -0.7200
   11 C11      -2.4492     1.1169     0.0197 C.3    1 <0>       0.1300
   12 H12      -2.3288     0.2043     0.6035 H      1 <0>       0.1300
   13 C13      -3.5568     1.9773     0.6372 C.3    1 <0>      -0.1300
   14 C14      -4.8834     1.2182     0.5263 C.3    1 <0>      -0.1400
   15 C15      -5.1292     0.8607    -0.9157 C.2    1 <0>       0.5200
   16 O16      -6.2686     0.7564    -1.3163 O.2    1 <0>      -0.5000
   17 N17      -4.1119     0.6557    -1.7656 N.am   1 <0>      -0.6700
   18 C18      -2.8266     0.7635    -1.3946 C.2    1 <0>       0.5100
   19 O19      -1.9535     0.5751    -2.2143 O.2    1 <0>      -0.4800
   20 H20       1.3211     2.6120    -0.8866 H      1 <0>       0.1100
   21 H21       1.3381     2.6024     0.8933 H      1 <0>       0.1100
   22 H22       2.5692     0.9006     2.1149 H      1 <0>       0.1200
   23 H23       4.4624    -0.6736     2.0884 H      1 <0>       0.1200
   24 H24       5.3948    -1.4420    -0.0572 H      1 <0>       0.1200
   25 H25       4.4334    -0.6367    -2.1762 H      1 <0>       0.1200
   26 H26       2.5371     0.9339    -2.1497 H      1 <0>       0.1200
   27 H27      -1.2037     2.8365     0.0232 H      1 <0>       0.4100
   28 H28      -3.3306     2.1675     1.6863 H      1 <0>       0.1100
   29 H29      -3.6296     2.9221     0.0985 H      1 <0>       0.0900
   30 H30      -4.8334     0.3080     1.1239 H      1 <0>       0.1200
   31 H31      -5.6953     1.8488     0.8887 H      1 <0>       0.1200
   32 H32      -4.3130     0.4192    -2.6846 H      1 <0>       0.4100
@<TRIPOS>BOND
   1    1    2 2
   2    2    3 1
   3    2   10 am
   4    3    4 1
   5    3   20 1
   6    3   21 1
   7    4    9 ar
   8    4    5 ar
   9    5    6 ar
  10    5   22 1
  11    6    7 ar
  12    6   23 1
  13    7    8 ar
  14    7   24 1
  15    8    9 ar
  16    8   25 1
  17    9   26 1
  18   10   11 1
  19   10   27 1
  20   11   12 1
  21   11   18 1
  22   11   13 1
  23   13   14 1
  24   13   28 1
  25   13   29 1
  26   14   15 1
  27   14   30 1
  28   14   31 1
  29   15   16 2
  30   15   17 am
  31   17   18 am
  32   17   32 1
  33   18   19 2
