@<TRIPOS>MOLECULE
ZINC000003948603
  36   38    0    0    0
SMALL
USER_CHARGES
NO_NAME
@<TRIPOS>ATOM
    1 N1       -0.0178     1.4648     0.0101 N.3    1 <0>      -0.8500
    2 C2        0.0021    -0.0041     0.0020 C.3    1 <0>       0.0600
    3 C3        0.8260    -0.5095     1.1880 C.3    1 <0>      -0.0500
    4 C4        0.8464    -2.0163     1.1798 C.2    1 <0>       0.0300
    5 C5        1.7950    -2.7825     0.6515 C.2    1 <0>       0.0000
    6 N6        1.4366    -4.1063     0.8550 N.am   1 <0>      -0.5600
    7 C7        0.2603    -4.1236     1.5124 C.2    1 <0>       0.4600
    8 S8       -0.5995    -5.5224     1.9973 S.2    1 <0>      -0.6100
    9 N9       -0.1182    -2.8482     1.7272 N.am   1 <0>      -0.4500
   10 C10      -1.3395    -2.4164     2.4115 C.3    1 <0>       0.1200
   11 H11      -1.3804    -1.3275     2.4376 H      1 <0>       0.1200
   12 C12      -2.5673    -2.9625     1.6715 C.3    1 <0>       0.0400
   13 O13      -3.7397    -2.4419     2.2994 O.3    1 <0>      -0.2900
   14 C14      -3.8313    -2.5375     3.6525 C.ar   1 <0>       0.0800
   15 C15      -5.0818    -2.3826     4.2459 C.ar   1 <0>       0.1100
   16 F16      -6.1677    -2.1485     3.4770 F      1 <0>      -0.1200
   17 C17      -5.2154    -2.4681     5.6186 C.ar   1 <0>      -0.1600
   18 C18      -4.1028    -2.7081     6.4067 C.ar   1 <0>       0.1100
   19 F19      -4.2303    -2.7903     7.7491 F      1 <0>      -0.1300
   20 C20      -2.8607    -2.8641     5.8185 C.ar   1 <0>      -0.1300
   21 C21      -2.7227    -2.7818     4.4425 C.ar   1 <0>      -0.0900
   22 C22      -1.3531    -2.9675     3.8394 C.3    1 <0>      -0.1100
   23 H23       0.9191     1.8392     0.0032 H      1 <0>       0.3400
   24 H24      -0.5563     1.8234    -0.7642 H      1 <0>       0.3500
   25 H25      -1.0174    -0.3817     0.0806 H      1 <0>       0.0700
   26 H26       0.4494    -0.3563    -0.9275 H      1 <0>       0.0400
   27 H27       1.8454    -0.1318     1.1095 H      1 <0>       0.1000
   28 H28       0.3787    -0.1573     2.1176 H      1 <0>       0.0900
   29 H29       2.6872    -2.4354     0.1516 H      1 <0>       0.2000
   30 H30       1.9436    -4.8838     0.5735 H      1 <0>       0.4500
   31 H31      -2.5381    -2.6464     0.6288 H      1 <0>       0.1100
   32 H32      -2.5745    -4.0511     1.7256 H      1 <0>       0.1100
   33 H33      -6.1863    -2.3474     6.0760 H      1 <0>       0.1600
   34 H34      -1.9940    -3.0509     6.4352 H      1 <0>       0.1500
   35 H35      -1.1060    -4.0290     3.8206 H      1 <0>       0.1300
   36 H36      -0.6166    -2.4350     4.4412 H      1 <0>       0.0900
@<TRIPOS>BOND
   1    1    2 1
   2    1   23 1
   3    1   24 1
   4    2    3 1
   5    2   25 1
   6    2   26 1
   7    3    4 1
   8    3   27 1
   9    3   28 1
  10    4    9 1
  11    4    5 2
  12    5    6 1
  13    5   29 1
  14    6    7 am
  15    6   30 1
  16    7    8 2
  17    7    9 am
  18    9   10 1
  19   10   11 1
  20   10   22 1
  21   10   12 1
  22   12   13 1
  23   12   31 1
  24   12   32 1
  25   13   14 1
  26   14   21 ar
  27   14   15 ar
  28   15   16 1
  29   15   17 ar
  30   17   18 ar
  31   17   33 1
  32   18   19 1
  33   18   20 ar
  34   20   21 ar
  35   20   34 1
  36   21   22 1
  37   22   35 1
  38   22   36 1
