@<TRIPOS>MOLECULE
ZINC000002005848
72    76    1     0     0
SMALL
USER_CHARGES
@<TRIPOS>ATOM
1      C1      0.2948    1.2574    0.2974 C.3      1 ZINC000002005848   -0.1800
2      C2      0.0668   -0.2467    0.1347 C.3      1 ZINC000002005848    0.0600
3      C3      0.6218   -0.9818    1.3564 C.3      1 ZINC000002005848   -0.1800
4      C4     -1.4325   -0.5248    0.0098 C.3      1 ZINC000002005848   -0.0900
5      C5     -2.1381   -0.0411    1.2505 C.ar     1 ZINC000002005848   -0.1000
6      C6     -2.2994   -0.8916    2.3287 C.ar     1 ZINC000002005848   -0.0900
7      C7     -2.9454   -0.4505    3.4673 C.ar     1 ZINC000002005848   -0.1100
8      C8     -3.4326    0.8472    3.5284 C.ar     1 ZINC000002005848    0.1100
9      O9     -4.0681    1.2837    4.6475 O.3      1 ZINC000002005848   -0.2400
10     C10    -3.3113    1.6037    5.7248 C.ar     1 ZINC000002005848    0.3400
11     C11    -3.9326    1.9503    6.9206 C.ar     1 ZINC000002005848   -0.1800
12     C12    -3.1566    2.2749    8.0146 C.ar     1 ZINC000002005848    0.0200
13     C13    -1.7614    2.2419    7.8751 C.ar     1 ZINC000002005848   -0.2200
14     C14    -0.8864    2.5799    9.0148 C.2      1 ZINC000002005848    0.5700
15     N15     0.4531    2.5449    8.8695 N.am     1 ZINC000002005848   -0.8500
16     O16    -1.3739    2.8899   10.0845 O.2      1 ZINC000002005848   -0.5300
17     C17    -1.2129    1.8842    6.6425 C.ar     1 ZINC000002005848    0.1800
18     N18    -1.9907    1.5770    5.6261 N.ar     1 ZINC000002005848   -0.5300
19     C19    -3.2695    1.6986    2.4450 C.ar     1 ZINC000002005848   -0.1100
20     C20    -2.6181    1.2543    1.3108 C.ar     1 ZINC000002005848   -0.0900
21     N21     0.7546   -0.7183   -1.0747 N.4      1 ZINC000002005848   -0.5000
22     H22     0.6043   -1.7102   -1.1820 H        1 ZINC000002005848    0.4300
23     H23     0.3886   -0.2335   -1.8804 H        1 ZINC000002005848    0.4300
24     C24     2.1942   -0.4513   -0.9548 C.3      1 ZINC000002005848   -0.0500
25     C25     2.9105   -0.9424   -2.2144 C.3      1 ZINC000002005848    0.0900
26     H26     2.5151   -0.4188   -3.0848 H        1 ZINC000002005848    0.1400
27     O27     2.6976   -2.3473   -2.3664 O.3      1 ZINC000002005848   -0.5400
28     C28     4.4099   -0.6644   -2.0896 C.3      1 ZINC000002005848    0.0300
29     O29     5.0628   -1.0157   -3.3111 O.3      1 ZINC000002005848   -0.3000
30     C30     6.4072   -0.8289   -3.3678 C.ar     1 ZINC000002005848    0.1800
31     C31     7.0856   -0.3246   -2.2724 C.ar     1 ZINC000002005848   -0.2500
32     C32     8.4568   -0.1337   -2.3296 C.ar     1 ZINC000002005848   -0.0400
33     C33     9.1613   -0.4417   -3.4736 C.ar     1 ZINC000002005848   -0.1700
34     C34     8.4985   -0.9499   -4.5877 C.ar     1 ZINC000002005848    0.1800
35     C35     7.1123   -1.1504   -4.5306 C.ar     1 ZINC000002005848   -0.1300
36     C36     6.7125   -1.6889   -5.8432 C.ar     1 ZINC000002005848   -0.0900
37     C37     7.8840   -1.7793   -6.6097 C.ar     1 ZINC000002005848    0.1300
38     C38     7.8106   -2.2622   -7.9126 C.ar     1 ZINC000002005848   -0.1400
39     C39     6.5960   -2.6463   -8.4387 C.ar     1 ZINC000002005848   -0.0800
40     C40     5.4390   -2.5560   -7.6801 C.ar     1 ZINC000002005848   -0.1500
41     C41     5.4916   -2.0810   -6.3874 C.ar     1 ZINC000002005848   -0.0600
42     N42     8.9445   -1.3369   -5.8387 N.pl3    1 ZINC000002005848   -0.6100
43     H43     1.3629    1.4555    0.3863 H        1 ZINC000002005848    0.0800
44     H44    -0.1006    1.7811   -0.5730 H        1 ZINC000002005848    0.0800
45     H45    -0.2156    1.6073    1.1947 H        1 ZINC000002005848    0.1100
46     H46     0.1114   -0.6319    2.2537 H        1 ZINC000002005848    0.1100
47     H47     0.4594   -2.0534    1.2405 H        1 ZINC000002005848    0.0800
48     H48     1.6900   -0.7837    1.4453 H        1 ZINC000002005848    0.0800
49     H49    -1.8279   -0.0011   -0.8605 H        1 ZINC000002005848    0.1000
50     H50    -1.5949   -1.5963   -0.1061 H        1 ZINC000002005848    0.1000
51     H51    -1.9203   -1.9017    2.2805 H        1 ZINC000002005848    0.1300
52     H52    -3.0714   -1.1153    4.3090 H        1 ZINC000002005848    0.1300
53     H53    -5.0101    1.9654    6.9918 H        1 ZINC000002005848    0.1600
54     H54    -3.6123    2.5479    8.9549 H        1 ZINC000002005848    0.1600
55     H55     0.8421    2.2976    8.0160 H        1 ZINC000002005848    0.4000
56     H56     1.0281    2.7670    9.6184 H        1 ZINC000002005848    0.4100
57     H57    -0.1399    1.8551    6.5228 H        1 ZINC000002005848    0.1600
58     H58    -3.6479    2.7092    2.4901 H        1 ZINC000002005848    0.1400
59     H59    -2.4909    1.9166    0.4673 H        1 ZINC000002005848    0.1300
60     H60     2.3566    0.6203   -0.8389 H        1 ZINC000002005848    0.1500
61     H61     2.5896   -0.9750   -0.0844 H        1 ZINC000002005848    0.1400
62     H62     3.0254   -2.8770   -1.6268 H        1 ZINC000002005848    0.3900
63     H63     4.5672    0.3946   -1.8850 H        1 ZINC000002005848    0.0800
64     H64     4.8226   -1.2573   -1.2734 H        1 ZINC000002005848    0.0800
65     H65     6.5449   -0.0787   -1.3705 H        1 ZINC000002005848    0.1300
66     H66     8.9784    0.2604   -1.4700 H        1 ZINC000002005848    0.1400
67     H67    10.2298   -0.2882   -3.5060 H        1 ZINC000002005848    0.1300
68     H68     8.7059   -2.3358   -8.5121 H        1 ZINC000002005848    0.1300
69     H69     6.5450   -3.0204   -9.4506 H        1 ZINC000002005848    0.1300
70     H70     4.4929   -2.8594   -8.1037 H        1 ZINC000002005848    0.1300
71     H71     4.5888   -2.0113   -5.7987 H        1 ZINC000002005848    0.1300
72     H72     9.8673   -1.2980   -6.1351 H        1 ZINC000002005848    0.4200
@<TRIPOS>BOND
1     1     2     1
2     1     43    1
3     1     44    1
4     1     45    1
5     2     3     1
6     2     4     1
7     2     21    1
8     3     46    1
9     3     47    1
10    3     48    1
11    4     5     1
12    4     49    1
13    4     50    1
14    5     20    ar
15    5     6     ar
16    6     7     ar
17    6     51    1
18    7     8     ar
19    7     52    1
20    8     9     1
21    8     19    ar
22    9     10    1
23    10    18    ar
24    10    11    ar
25    11    12    ar
26    11    53    1
27    12    13    ar
28    12    54    1
29    13    14    1
30    13    17    ar
31    14    15    am
32    14    16    2
33    15    55    1
34    15    56    1
35    17    18    ar
36    17    57    1
37    19    20    ar
38    19    58    1
39    20    59    1
40    21    22    1
41    21    23    1
42    21    24    1
43    24    25    1
44    24    60    1
45    24    61    1
46    25    26    1
47    25    27    1
48    25    28    1
49    27    62    1
50    28    29    1
51    28    63    1
52    28    64    1
53    29    30    1
54    30    35    ar
55    30    31    ar
56    31    32    ar
57    31    65    1
58    32    33    ar
59    32    66    1
60    33    34    ar
61    33    67    1
62    34    42    1
63    34    35    ar
64    35    36    1
65    36    41    ar
66    36    37    ar
67    37    38    ar
68    37    42    1
69    38    39    ar
70    38    68    1
71    39    40    ar
72    39    69    1
73    40    41    ar
74    40    70    1
75    41    71    1
76    42    72    1
@<TRIPOS>SUBSTRUCTURE
1   ZINC000002005848 1     RESIDUE    1   A     ZIN   1
