@<TRIPOS>MOLECULE
ZINC000027416055
54    57    1     0     0
SMALL
USER_CHARGES
@<TRIPOS>ATOM
1      O1      0.0847   -0.0968   -0.2672 O.2      1 ZINC000027416055   -0.5200
2      C2      0.0535    1.0915   -0.0269 C.2      1 ZINC000027416055    0.5000
3      C3      1.3139    1.9124   -0.1196 C.3      1 ZINC000027416055    0.0900
4      H4      1.1199    2.8112   -0.7051 H        1 ZINC000027416055    0.1300
5      O5      2.3379    1.1430   -0.7530 O.3      1 ZINC000027416055   -0.5300
6      C6      1.7693    2.3082    1.2864 C.3      1 ZINC000027416055    0.0500
7      O7      2.9066    3.1684    1.1943 O.3      1 ZINC000027416055   -0.5600
8      N8     -1.1096    1.6790    0.3175 N.am     1 ZINC000027416055   -0.6100
9      C9     -1.2073    3.1349    0.4955 C.3      1 ZINC000027416055    0.1300
10     C10    -2.0153    3.4279    1.7291 C.2      1 ZINC000027416055   -0.1500
11     C11    -2.7035    2.5170    2.3754 C.2      1 ZINC000027416055   -0.0700
12     C12    -3.4687    2.9456    3.5636 C.ar     1 ZINC000027416055   -0.1500
13     C13    -2.8707    2.9265    4.8271 C.ar     1 ZINC000027416055    0.1800
14     F14    -1.5909    2.5157    4.9637 F        1 ZINC000027416055   -0.1200
15     C15    -3.5897    3.3286    5.9349 C.ar     1 ZINC000027416055   -0.2000
16     C16    -4.9061    3.7514    5.7956 C.ar     1 ZINC000027416055    0.2500
17     N17    -5.6305    4.1573    6.9205 N.am     1 ZINC000027416055   -0.5700
18     C18    -6.9844    4.7320    6.9044 C.3      1 ZINC000027416055    0.0700
19     C19    -7.2907    4.9914    8.3921 C.3      1 ZINC000027416055    0.0700
20     H20    -8.1561    4.4105    8.7110 H        1 ZINC000027416055    0.1400
21     C21    -7.5270    6.4828    8.6389 C.3      1 ZINC000027416055    0.0600
22     O22    -7.9224    6.6840    9.9973 O.3      1 ZINC000027416055   -0.2700
23     C23    -8.1727    7.9606   10.3835 C.2      1 ZINC000027416055    0.2100
24     N24    -8.0965    9.0331    9.6419 N.2      1 ZINC000027416055   -0.4100
25     O25    -8.3800   10.0270   10.2696 O.3      1 ZINC000027416055    0.1000
26     C26    -8.6894    9.7387   11.5420 C.2      1 ZINC000027416055   -0.0300
27     C27    -8.5757    8.3971   11.6725 C.2      1 ZINC000027416055   -0.2300
28     O28    -6.0900    4.5404    9.0833 O.3      1 ZINC000027416055   -0.3000
29     C29    -5.2069    4.0807    8.1895 C.2      1 ZINC000027416055    0.6500
30     O30    -4.1169    3.6423    8.4994 O.2      1 ZINC000027416055   -0.4900
31     C31    -5.5045    3.7725    4.5416 C.ar     1 ZINC000027416055   -0.2000
32     C32    -4.7915    3.3772    3.4274 C.ar     1 ZINC000027416055    0.1800
33     F33    -5.3743    3.3981    2.2088 F        1 ZINC000027416055   -0.1200
34     C34    -2.7655    1.0693    1.9879 C.3      1 ZINC000027416055   -0.0900
35     C35    -2.3352    0.8886    0.5247 C.3      1 ZINC000027416055    0.1100
36     H36     2.5627    0.3269   -0.2856 H        1 ZINC000027416055    0.3800
37     H37     0.9598    2.8296    1.7972 H        1 ZINC000027416055    0.0600
38     H38     2.0356    1.4125    1.8476 H        1 ZINC000027416055    0.0600
39     H39     3.2499    3.4595    2.0501 H        1 ZINC000027416055    0.3900
40     H40    -0.2081    3.5562    0.6059 H        1 ZINC000027416055    0.1000
41     H41    -1.6958    3.5761   -0.3733 H        1 ZINC000027416055    0.0900
42     H42    -2.0296    4.4411    2.1028 H        1 ZINC000027416055    0.1300
43     H43    -3.1285    3.3142    6.9114 H        1 ZINC000027416055    0.1800
44     H44    -6.9973    5.6659    6.3424 H        1 ZINC000027416055    0.1100
45     H45    -7.6969    4.0217    6.4850 H        1 ZINC000027416055    0.1200
46     H46    -6.6072    7.0337    8.4429 H        1 ZINC000027416055    0.0800
47     H47    -8.3136    6.8408    7.9747 H        1 ZINC000027416055    0.1000
48     H48    -8.9773   10.4401   12.3111 H        1 ZINC000027416055    0.2300
49     H49    -8.7459    7.7978   12.5547 H        1 ZINC000027416055    0.1800
50     H50    -6.5279    4.1018    4.4380 H        1 ZINC000027416055    0.1500
51     H51    -2.1024    0.4944    2.6344 H        1 ZINC000027416055    0.0800
52     H52    -3.7862    0.7069    2.1095 H        1 ZINC000027416055    0.0900
53     H53    -3.1249    1.2426   -0.1381 H        1 ZINC000027416055    0.0800
54     H54    -2.1320   -0.1640    0.3276 H        1 ZINC000027416055    0.1000
@<TRIPOS>BOND
1     1     2     2
2     2     3     1
3     2     8     am
4     3     4     1
5     3     5     1
6     3     6     1
7     5     36    1
8     6     7     1
9     6     37    1
10    6     38    1
11    7     39    1
12    8     35    1
13    8     9     1
14    9     10    1
15    9     40    1
16    9     41    1
17    10    11    2
18    10    42    1
19    11    12    1
20    11    34    1
21    12    32    ar
22    12    13    ar
23    13    14    1
24    13    15    ar
25    15    16    ar
26    15    43    1
27    16    17    1
28    16    31    ar
29    17    29    am
30    17    18    1
31    18    19    1
32    18    44    1
33    18    45    1
34    19    20    1
35    19    21    1
36    19    28    1
37    21    22    1
38    21    46    1
39    21    47    1
40    22    23    1
41    23    27    1
42    23    24    2
43    24    25    1
44    25    26    1
45    26    27    2
46    26    48    1
47    27    49    1
48    28    29    1
49    29    30    2
50    31    32    ar
51    31    50    1
52    32    33    1
53    34    35    1
54    34    51    1
55    34    52    1
56    35    53    1
57    35    54    1
@<TRIPOS>SUBSTRUCTURE
1   ZINC000027416055 1     RESIDUE    1   A     ZIN   1
