@<TRIPOS>MOLECULE
ZINC000006716889
49    51    1     0     0
SMALL
USER_CHARGES
@<TRIPOS>ATOM
1      C1     -0.0184    1.5028    0.0103 C.3      1 ZINC000006716889   -0.1200
2      C2      0.0021   -0.0041    0.0020 C.ar     1 ZINC000006716889   -0.0700
3      C3      0.0057   -0.6887   -1.1989 C.ar     1 ZINC000006716889   -0.1200
4      C4      0.0245   -2.0709   -1.2065 C.ar     1 ZINC000006716889   -0.0900
5      C5      0.0400   -2.7685   -0.0132 C.ar     1 ZINC000006716889   -0.1100
6      C6      0.0600   -4.2753   -0.0215 C.3      1 ZINC000006716889    0.1300
7      O7      1.4352   -4.7411   -0.0314 O.3      1 ZINC000006716889   -0.3600
8      C8      1.6292   -6.0734   -0.0397 C.2      1 ZINC000006716889    0.6500
9      O9      0.6755   -6.8263   -0.0386 O.2      1 ZINC000006716889   -0.5700
10     N10     2.8814   -6.5720   -0.0491 N.am     1 ZINC000006716889   -0.5900
11     C11     4.0446   -5.6744   -0.0443 C.3      1 ZINC000006716889    0.1100
12     C12     4.9568   -6.0431   -1.2184 C.3      1 ZINC000006716889   -0.1300
13     C13     5.3099   -7.5300   -1.1375 C.3      1 ZINC000006716889   -0.1300
14     H14     5.8040   -7.7348   -0.1878 H        1 ZINC000006716889    0.1000
15     C15     6.2486   -7.8944   -2.2895 C.3      1 ZINC000006716889    0.1400
16     N16     6.6816   -9.2865   -2.1448 N.pl3    1 ZINC000006716889   -0.7000
17     C17     7.5409   -9.8442   -3.0755 C.ar     1 ZINC000006716889    0.5600
18     N18     7.9665   -9.1034   -4.0882 N.ar     1 ZINC000006716889   -0.5700
19     C19     8.7885   -9.6056   -4.9947 C.ar     1 ZINC000006716889    0.1900
20     C20     9.2036  -10.9226   -4.8753 C.ar     1 ZINC000006716889   -0.2900
21     C21     8.7392  -11.6691   -3.8038 C.ar     1 ZINC000006716889    0.1900
22     N22     7.9226  -11.1045   -2.9297 N.ar     1 ZINC000006716889   -0.5700
23     C23     4.0318   -8.3658   -1.2378 C.3      1 ZINC000006716889    0.0800
24     H24     4.2862   -9.4252   -1.2036 H        1 ZINC000006716889    0.1000
25     F25     3.3807   -8.0806   -2.4428 F        1 ZINC000006716889   -0.2000
26     C26     3.1091   -8.0234   -0.0582 C.3      1 ZINC000006716889    0.1000
27     C27     0.0378   -2.0839    1.1877 C.ar     1 ZINC000006716889   -0.0900
28     C28     0.0229   -0.7016    1.1953 C.ar     1 ZINC000006716889   -0.1200
29     H29     1.0042    1.8801    0.0026 H        1 ZINC000006716889    0.0700
30     H30    -0.5455    1.8639   -0.8728 H        1 ZINC000006716889    0.0700
31     H31    -0.5286    1.8543    0.9071 H        1 ZINC000006716889    0.0700
32     H32    -0.0064   -0.1436   -2.1312 H        1 ZINC000006716889    0.1300
33     H33     0.0266   -2.6057   -2.1448 H        1 ZINC000006716889    0.1300
34     H34    -0.4442   -4.6502    0.8692 H        1 ZINC000006716889    0.0800
35     H35    -0.4538   -4.6406   -0.9107 H        1 ZINC000006716889    0.0800
36     H36     3.7103   -4.6425   -0.1513 H        1 ZINC000006716889    0.1000
37     H37     4.5903   -5.7886    0.8923 H        1 ZINC000006716889    0.0800
38     H38     4.4405   -5.8424   -2.1572 H        1 ZINC000006716889    0.0800
39     H39     5.8695   -5.4493   -1.1705 H        1 ZINC000006716889    0.0900
40     H40     5.7243   -7.7736   -3.2374 H        1 ZINC000006716889    0.0800
41     H41     7.1193   -7.2391   -2.2698 H        1 ZINC000006716889    0.0800
42     H42     6.3661   -9.8173   -1.3968 H        1 ZINC000006716889    0.4100
43     H43     9.1318   -8.9969   -5.8182 H        1 ZINC000006716889    0.1700
44     H44     9.8742  -11.3578   -5.6015 H        1 ZINC000006716889    0.1500
45     H45     9.0433  -12.6983   -3.6820 H        1 ZINC000006716889    0.1700
46     H46     3.5804   -8.3306    0.8754 H        1 ZINC000006716889    0.0900
47     H47     2.1570   -8.5408   -0.1768 H        1 ZINC000006716889    0.1100
48     H48     0.0503   -2.6289    2.1200 H        1 ZINC000006716889    0.1200
49     H49     0.0211   -0.1667    2.1335 H        1 ZINC000006716889    0.1300
@<TRIPOS>BOND
1     1     2     1
2     1     29    1
3     1     30    1
4     1     31    1
5     2     28    ar
6     2     3     ar
7     3     4     ar
8     3     32    1
9     4     5     ar
10    4     33    1
11    5     6     1
12    5     27    ar
13    6     7     1
14    6     34    1
15    6     35    1
16    7     8     1
17    8     9     2
18    8     10    am
19    10    26    1
20    10    11    1
21    11    12    1
22    11    36    1
23    11    37    1
24    12    13    1
25    12    38    1
26    12    39    1
27    13    14    1
28    13    15    1
29    13    23    1
30    15    16    1
31    15    40    1
32    15    41    1
33    16    17    1
34    16    42    1
35    17    22    ar
36    17    18    ar
37    18    19    ar
38    19    20    ar
39    19    43    1
40    20    21    ar
41    20    44    1
42    21    22    ar
43    21    45    1
44    23    24    1
45    23    25    1
46    23    26    1
47    26    46    1
48    26    47    1
49    27    28    ar
50    27    48    1
51    28    49    1
@<TRIPOS>SUBSTRUCTURE
1   ZINC000006716889 1     RESIDUE    1   A     ZIN   1
