@<TRIPOS>MOLECULE
ZINC000100032775
10    10    1     0     0
SMALL
USER_CHARGES
@<TRIPOS>ATOM
1      C1     -0.0126    1.0758    0.0080 C.2      1 ZINC000100032775   -0.7700
2      H2      0.0021   -0.0041    0.0020 H        1 ZINC000100032775   -0.2300
3      C3     -1.1597    1.8857    0.0294 C.2      1 ZINC000100032775   -0.7700
4      H4     -2.1821    1.5379    0.0428 H        1 ZINC000100032775   -0.2300
5      C5     -0.7439    3.2270    0.0308 C.2      1 ZINC000100032775   -0.7700
6      H6     -1.3904    4.0920    0.0455 H        1 ZINC000100032775   -0.2300
7      C7      0.6601    3.2462    0.0102 C.2      1 ZINC000100032775   -0.7700
8      H8      1.2830    4.1285    0.0063 H        1 ZINC000100032775   -0.2300
9      C9      1.1122    1.9166    0.0017 C.2      1 ZINC000100032775   -0.7700
10     H10     2.1437    1.5969   -0.0136 H        1 ZINC000100032775   -0.2300
@<TRIPOS>BOND
1     1     2     1
2     1     9     1
3     1     3     1
4     3     4     1
5     3     5     1
6     5     6     1
7     5     7     1
8     7     8     1
9     7     9     1
10    9     10    1
@<TRIPOS>SUBSTRUCTURE
1   ZINC000100032775 1     RESIDUE    1   A     ZIN   1
