@<TRIPOS>MOLECULE
ZINC000100001877
47    49    1     0     0
SMALL
USER_CHARGES
@<TRIPOS>ATOM
1      C1      4.2707   -3.6397   -1.9680 C.3      1 ZINC000100001877   -0.1700
2      C2      4.3227   -4.4426   -0.6666 C.3      1 ZINC000100001877    0.1100
3      N3      3.6416   -3.6970    0.3947 N.am     1 ZINC000100001877   -0.7300
4      C4      3.5623   -4.2137    1.6370 C.2      1 ZINC000100001877    0.5200
5      O5      4.0547   -5.2959    1.8762 O.2      1 ZINC000100001877   -0.5300
6      C6      2.8617   -3.4468    2.7287 C.3      1 ZINC000100001877   -0.1400
7      H7      3.2032   -2.4146    2.8070 H        1 ZINC000100001877    0.1200
8      C8      1.3307   -3.5882    2.6960 C.3      1 ZINC000100001877   -0.1300
9      C9      1.3840   -3.6685    4.2308 C.3      1 ZINC000100001877    0.1400
10     F10     1.3038   -2.4216    4.8603 F        1 ZINC000100001877   -0.1800
11     C11     0.4339   -4.6815    4.8157 C.ar     1 ZINC000100001877   -0.0800
12     C12    -0.9273   -4.4419    4.7993 C.ar     1 ZINC000100001877   -0.1000
13     C13    -1.8003   -5.3705    5.3356 C.ar     1 ZINC000100001877   -0.0800
14     C14    -1.3127   -6.5391    5.8886 C.ar     1 ZINC000100001877   -0.1000
15     C15    -2.2644   -7.5509    6.4730 C.3      1 ZINC000100001877    0.0800
16     N16    -2.3883   -8.6927    5.5571 N.3      1 ZINC000100001877   -0.5100
17     C17    -1.1573   -9.5236    5.5727 C.3      1 ZINC000100001877    0.0300
18     C18    -1.6413  -10.8849    5.0130 C.3      1 ZINC000100001877   -0.1300
19     C19    -3.0549  -11.0264    5.6227 C.3      1 ZINC000100001877   -0.1300
20     C20    -3.4864   -9.5909    5.9753 C.3      1 ZINC000100001877    0.0400
21     C21     0.0509   -6.7803    5.9052 C.ar     1 ZINC000100001877    0.1100
22     F22     0.5287   -7.9226    6.4457 F        1 ZINC000100001877   -0.1300
23     C23     0.9236   -5.8523    5.3633 C.ar     1 ZINC000100001877   -0.1300
24     C24     2.8252   -4.1874    4.0759 C.3      1 ZINC000100001877   -0.1300
25     H25     4.7663   -2.6798   -1.8228 H        1 ZINC000100001877    0.0600
26     H26     4.7774   -4.1945   -2.7577 H        1 ZINC000100001877    0.0800
27     H27     3.2313   -3.4729   -2.2507 H        1 ZINC000100001877    0.0600
28     H28     3.8271   -5.4025   -0.8119 H        1 ZINC000100001877    0.0700
29     H29     5.3621   -4.6095   -0.3839 H        1 ZINC000100001877    0.0700
30     H30     3.2478   -2.8315    0.2034 H        1 ZINC000100001877    0.4000
31     H31     0.8182   -2.7017    2.3226 H        1 ZINC000100001877    0.0900
32     H32     0.9873   -4.5079    2.2224 H        1 ZINC000100001877    0.1100
33     H33    -1.3093   -3.5287    4.3675 H        1 ZINC000100001877    0.1300
34     H34    -2.8636   -5.1821    5.3225 H        1 ZINC000100001877    0.1400
35     H35    -1.8829   -7.8958    7.4341 H        1 ZINC000100001877    0.0500
36     H36    -3.2423   -7.0906    6.6143 H        1 ZINC000100001877    0.0900
37     H37    -0.3933   -9.0916    4.9263 H        1 ZINC000100001877    0.0800
38     H38    -0.7827   -9.6372    6.5900 H        1 ZINC000100001877    0.0500
39     H39    -1.6916  -10.8584    3.9245 H        1 ZINC000100001877    0.0700
40     H40    -0.9928  -11.6933    5.3507 H        1 ZINC000100001877    0.0700
41     H41    -3.7398  -11.4591    4.8935 H        1 ZINC000100001877    0.0700
42     H42    -3.0193  -11.6423    6.5214 H        1 ZINC000100001877    0.0700
43     H43    -3.6476   -9.5049    7.0499 H        1 ZINC000100001877    0.0500
44     H44    -4.4000   -9.3353    5.4385 H        1 ZINC000100001877    0.0800
45     H45     1.9871   -6.0396    5.3753 H        1 ZINC000100001877    0.1400
46     H46     2.8910   -5.2712    3.9795 H        1 ZINC000100001877    0.1200
47     H47     3.5163   -3.7846    4.8163 H        1 ZINC000100001877    0.0900
@<TRIPOS>BOND
1     1     2     1
2     1     25    1
3     1     26    1
4     1     27    1
5     2     3     1
6     2     28    1
7     2     29    1
8     3     4     am
9     3     30    1
10    4     5     2
11    4     6     1
12    6     7     1
13    6     24    1
14    6     8     1
15    8     9     1
16    8     31    1
17    8     32    1
18    9     10    1
19    9     11    1
20    9     24    1
21    11    23    ar
22    11    12    ar
23    12    13    ar
24    12    33    1
25    13    14    ar
26    13    34    1
27    14    15    1
28    14    21    ar
29    15    16    1
30    15    35    1
31    15    36    1
32    16    20    1
33    16    17    1
34    17    18    1
35    17    37    1
36    17    38    1
37    18    19    1
38    18    39    1
39    18    40    1
40    19    20    1
41    19    41    1
42    19    42    1
43    20    43    1
44    20    44    1
45    21    22    1
46    21    23    ar
47    23    45    1
48    24    46    1
49    24    47    1
@<TRIPOS>SUBSTRUCTURE
1   ZINC000100001877 1     RESIDUE    1   A     ZIN   1
