@<TRIPOS>MOLECULE
ZINC000035793138
54    56    1     0     0
SMALL
USER_CHARGES
@<TRIPOS>ATOM
1      C1     -1.9911    0.6140    0.5418 C.3      1 ZINC000035793138   -0.1100
2      C2     -0.9451   -0.4332    0.2586 C.ar     1 ZINC000035793138   -0.0500
3      C3     -1.0145   -1.1817   -0.9024 C.ar     1 ZINC000035793138    0.0900
4      F4     -2.0204   -0.9718   -1.7795 F        1 ZINC000035793138   -0.1300
5      C5     -0.0575   -2.1441   -1.1687 C.ar     1 ZINC000035793138   -0.1100
6      C6      0.9840   -2.3641   -0.2655 C.ar     1 ZINC000035793138   -0.1100
7      C7      2.0072   -3.3928   -0.5508 C.2      1 ZINC000035793138    0.5700
8      O8      2.9135   -3.5834    0.2364 O.2      1 ZINC000035793138   -0.5300
9      N9      1.9350   -4.1191   -1.6839 N.am     1 ZINC000035793138   -0.7000
10     C10     2.9487   -5.1382   -1.9666 C.3      1 ZINC000035793138    0.0800
11     C11     2.4643   -6.4865   -2.5038 C.3      1 ZINC000035793138   -0.1900
12     C12     3.1884   -5.5088   -3.4316 C.3      1 ZINC000035793138   -0.1900
13     C13     1.0577   -1.6120    0.9056 C.ar     1 ZINC000035793138   -0.0400
14     C14     0.0947   -0.6416    1.1652 C.ar     1 ZINC000035793138   -0.0300
15     C15     0.1674    0.1623    2.4086 C.ar     1 ZINC000035793138    0.1900
16     C16     0.3790   -0.4769    3.6300 C.ar     1 ZINC000035793138   -0.1600
17     C17     0.4460    0.2790    4.7837 C.ar     1 ZINC000035793138   -0.0100
18     C18     0.2974    1.6687    4.6792 C.ar     1 ZINC000035793138   -0.1800
19     C19     0.3617    2.5212    5.8837 C.2      1 ZINC000035793138    0.5600
20     O20     0.5445    2.0184    6.9753 O.2      1 ZINC000035793138   -0.5300
21     N21     0.2176    3.8567    5.7725 N.am     1 ZINC000035793138   -0.7200
22     C22     0.2813    4.7023    6.9671 C.3      1 ZINC000035793138    0.1300
23     C23     0.0892    6.1663    6.5665 C.3      1 ZINC000035793138   -0.0800
24     C24    -1.2743    6.3362    5.8935 C.3      1 ZINC000035793138   -0.1400
25     C25     0.1558    7.0495    7.8141 C.3      1 ZINC000035793138   -0.1400
26     C26     1.1941    6.5774    5.5912 C.3      1 ZINC000035793138   -0.1400
27     C27     0.0883    2.2363    3.4203 C.ar     1 ZINC000035793138    0.1400
28     N28     0.0358    1.4821    2.3444 N.ar     1 ZINC000035793138   -0.4700
29     H29    -1.6328    1.5863    0.2035 H        1 ZINC000035793138    0.0900
30     H30    -2.9104    0.3615    0.0132 H        1 ZINC000035793138    0.0700
31     H31    -2.1868    0.6516    1.6134 H        1 ZINC000035793138    0.0700
32     H32    -0.1162   -2.7263   -2.0764 H        1 ZINC000035793138    0.1400
33     H33     1.2117   -3.9670   -2.3122 H        1 ZINC000035793138    0.4000
34     H34     3.8103   -5.1422   -1.2990 H        1 ZINC000035793138    0.1400
35     H35     3.0072   -7.3778   -2.1894 H        1 ZINC000035793138    0.1100
36     H36     1.3915   -6.6152   -2.6467 H        1 ZINC000035793138    0.1000
37     H37     2.5919   -4.9944   -4.1850 H        1 ZINC000035793138    0.1000
38     H38     4.2076   -5.7570   -3.7276 H        1 ZINC000035793138    0.1100
39     H39     1.8614   -1.7791    1.6073 H        1 ZINC000035793138    0.1500
40     H40     0.4888   -1.5505    3.6730 H        1 ZINC000035793138    0.1500
41     H41     0.6085   -0.1894    5.7432 H        1 ZINC000035793138    0.1500
42     H42     0.0717    4.2579    4.9015 H        1 ZINC000035793138    0.4000
43     H43    -0.5058    4.4094    7.6619 H        1 ZINC000035793138    0.0700
44     H44     1.2527    4.5812    7.4466 H        1 ZINC000035793138    0.0700
45     H45    -2.0614    6.0434    6.5883 H        1 ZINC000035793138    0.0600
46     H46    -1.4111    7.3793    5.6080 H        1 ZINC000035793138    0.0600
47     H47    -1.3217    5.7071    5.0046 H        1 ZINC000035793138    0.0500
48     H48     1.1271    6.9284    8.2935 H        1 ZINC000035793138    0.0600
49     H49     0.0189    8.0925    7.5287 H        1 ZINC000035793138    0.0600
50     H50    -0.6314    6.7566    8.5089 H        1 ZINC000035793138    0.0600
51     H51     1.1467    5.9482    4.7023 H        1 ZINC000035793138    0.0500
52     H52     1.0573    7.6204    5.3057 H        1 ZINC000035793138    0.0600
53     H53     2.1655    6.4563    6.0706 H        1 ZINC000035793138    0.0600
54     H54    -0.0274    3.3062    3.3291 H        1 ZINC000035793138    0.1600
@<TRIPOS>BOND
1     1     2     1
2     1     29    1
3     1     30    1
4     1     31    1
5     2     14    ar
6     2     3     ar
7     3     4     1
8     3     5     ar
9     5     6     ar
10    5     32    1
11    6     7     1
12    6     13    ar
13    7     8     2
14    7     9     am
15    9     10    1
16    9     33    1
17    10    12    1
18    10    11    1
19    10    34    1
20    11    12    1
21    11    35    1
22    11    36    1
23    12    37    1
24    12    38    1
25    13    14    ar
26    13    39    1
27    14    15    1
28    15    28    ar
29    15    16    ar
30    16    17    ar
31    16    40    1
32    17    18    ar
33    17    41    1
34    18    19    1
35    18    27    ar
36    19    20    2
37    19    21    am
38    21    22    1
39    21    42    1
40    22    23    1
41    22    43    1
42    22    44    1
43    23    24    1
44    23    25    1
45    23    26    1
46    24    45    1
47    24    46    1
48    24    47    1
49    25    48    1
50    25    49    1
51    25    50    1
52    26    51    1
53    26    52    1
54    26    53    1
55    27    28    ar
56    27    54    1
@<TRIPOS>SUBSTRUCTURE
1   ZINC000035793138 1     RESIDUE    1   A     ZIN   1
