@<TRIPOS>MOLECULE
ZINC000003775812
51    54    1     0     0
SMALL
USER_CHARGES
@<TRIPOS>ATOM
1      C1      1.1996   -6.1161   -4.4561 C.3      1 ZINC000003775812   -0.1500
2      C2      0.8328   -5.2557   -3.2454 C.3      1 ZINC000003775812   -0.1000
3      C3      1.1921   -3.7959   -3.5295 C.3      1 ZINC000003775812   -0.1500
4      C4     -0.6691   -5.3681   -2.9760 C.3      1 ZINC000003775812   -0.1000
5      C5     -1.0154   -4.6090   -1.6935 C.3      1 ZINC000003775812   -0.1700
6      C6     -2.4947   -4.7197   -1.4282 C.2      1 ZINC000003775812    0.3500
7      O7     -3.1993   -5.3416   -2.1866 O.2      1 ZINC000003775812   -0.4400
8      C8     -3.0948   -4.0544   -0.2165 C.3      1 ZINC000003775812   -0.1800
9      C9     -4.6166   -4.2087   -0.2511 C.3      1 ZINC000003775812    0.1900
10     H10    -5.0636   -3.7026    0.6046 H        1 ZINC000003775812    0.1200
11     C11    -4.9897   -5.6701   -0.2420 C.ar     1 ZINC000003775812   -0.0700
12     C12    -4.7702   -6.6931    0.6505 C.ar     1 ZINC000003775812   -0.1000
13     C13    -5.2472   -7.9644    0.3764 C.ar     1 ZINC000003775812   -0.0800
14     C14    -5.9444   -8.2088   -0.7933 C.ar     1 ZINC000003775812   -0.1200
15     C15    -6.1702   -7.1896   -1.6955 C.ar     1 ZINC000003775812   -0.0400
16     C16    -5.6927   -5.9056   -1.4264 C.ar     1 ZINC000003775812   -0.1300
17     C17    -5.7721   -4.6384   -2.1769 C.2      1 ZINC000003775812    0.5900
18     O18    -6.3199   -4.5018   -3.2533 O.2      1 ZINC000003775812   -0.5000
19     N19    -5.1513   -3.6550   -1.5003 N.am     1 ZINC000003775812   -0.5400
20     C20    -5.0361   -2.3343   -1.9164 C.ar     1 ZINC000003775812    0.4500
21     C21    -5.7838   -1.8972   -3.0175 C.ar     1 ZINC000003775812   -0.1900
22     C22    -5.6802   -0.6034   -3.4355 C.ar     1 ZINC000003775812   -0.0100
23     C23    -4.8129    0.2559   -2.7340 C.ar     1 ZINC000003775812   -0.1800
24     C24    -4.6563    1.6019   -3.1081 C.ar     1 ZINC000003775812   -0.0100
25     C25    -3.7976    2.3777   -2.3812 C.ar     1 ZINC000003775812   -0.1800
26     C26    -3.1083    1.8253   -1.3033 C.ar     1 ZINC000003775812    0.2400
27     Cl27   -2.0224    2.8273   -0.3920 Cl       1 ZINC000003775812   -0.0100
28     N28    -3.2585    0.5675   -0.9584 N.ar     1 ZINC000003775812   -0.4700
29     C29    -4.0831   -0.2450   -1.6280 C.ar     1 ZINC000003775812    0.3600
30     N30    -4.2306   -1.5226   -1.2622 N.ar     1 ZINC000003775812   -0.5100
31     H31     2.2696   -6.0360   -4.6480 H        1 ZINC000003775812    0.0600
32     H32     0.9437   -7.1561   -4.2537 H        1 ZINC000003775812    0.0500
33     H33     0.6469   -5.7693   -5.3292 H        1 ZINC000003775812    0.0500
34     H34     1.3855   -5.6026   -2.3723 H        1 ZINC000003775812    0.0700
35     H35     0.6394   -3.4490   -4.4026 H        1 ZINC000003775812    0.0500
36     H36     0.9308   -3.1828   -2.6669 H        1 ZINC000003775812    0.0600
37     H37     2.2621   -3.7158   -3.7214 H        1 ZINC000003775812    0.0600
38     H38    -1.2213   -4.9395   -3.8123 H        1 ZINC000003775812    0.0600
39     H39    -0.9401   -6.4176   -2.8614 H        1 ZINC000003775812    0.0700
40     H40    -0.4632   -5.0376   -0.8572 H        1 ZINC000003775812    0.1000
41     H41    -0.7444   -3.5595   -1.8081 H        1 ZINC000003775812    0.1000
42     H42    -2.7026   -4.5223    0.6865 H        1 ZINC000003775812    0.1200
43     H43    -2.8369   -2.9954   -0.2184 H        1 ZINC000003775812    0.1300
44     H44    -4.2260   -6.5056    1.5643 H        1 ZINC000003775812    0.1300
45     H45    -5.0740   -8.7673    1.0777 H        1 ZINC000003775812    0.1400
46     H46    -6.3134   -9.2022   -1.0014 H        1 ZINC000003775812    0.1400
47     H47    -6.7146   -7.3846   -2.6077 H        1 ZINC000003775812    0.1300
48     H48    -6.4396   -2.5827   -3.5336 H        1 ZINC000003775812    0.1700
49     H49    -6.2479   -0.2473   -4.2825 H        1 ZINC000003775812    0.1600
50     H50    -5.1993    2.0115   -3.9470 H        1 ZINC000003775812    0.1600
51     H51    -3.6533    3.4159   -2.6415 H        1 ZINC000003775812    0.1500
@<TRIPOS>BOND
1     1     2     1
2     1     31    1
3     1     32    1
4     1     33    1
5     2     3     1
6     2     4     1
7     2     34    1
8     3     35    1
9     3     36    1
10    3     37    1
11    4     5     1
12    4     38    1
13    4     39    1
14    5     6     1
15    5     40    1
16    5     41    1
17    6     7     2
18    6     8     1
19    8     9     1
20    8     42    1
21    8     43    1
22    9     10    1
23    9     19    1
24    9     11    1
25    11    16    ar
26    11    12    ar
27    12    13    ar
28    12    44    1
29    13    14    ar
30    13    45    1
31    14    15    ar
32    14    46    1
33    15    16    ar
34    15    47    1
35    16    17    1
36    17    18    2
37    17    19    am
38    19    20    1
39    20    30    ar
40    20    21    ar
41    21    22    ar
42    21    48    1
43    22    23    ar
44    22    49    1
45    23    29    ar
46    23    24    ar
47    24    25    ar
48    24    50    1
49    25    26    ar
50    25    51    1
51    26    27    1
52    26    28    ar
53    28    29    ar
54    29    30    ar
@<TRIPOS>SUBSTRUCTURE
1   ZINC000003775812 1     RESIDUE    1   A     ZIN   1
