@<TRIPOS>MOLECULE
ZINC000085994848
56    56    1     0     0
SMALL
USER_CHARGES
@<TRIPOS>ATOM
1      C1     -0.4094    1.5240   -1.2732 C.3      1 ZINC000085994848   -0.1500
2      C2     -0.3845   -0.0058   -1.2721 C.3      1 ZINC000085994848   -0.1300
3      C3     -1.7906   -0.5386   -0.9894 C.3      1 ZINC000085994848   -0.1200
4      C4     -1.7656   -2.0684   -0.9884 C.3      1 ZINC000085994848   -0.1200
5      C5     -3.1717   -2.6012   -0.7057 C.3      1 ZINC000085994848   -0.1500
6      C6     -3.1467   -4.1310   -0.7046 C.3      1 ZINC000085994848    0.1400
7      H7     -2.3981   -4.4817    0.0058 H        1 ZINC000085994848    0.1100
8      O8     -2.8196   -4.6030   -2.0132 O.3      1 ZINC000085994848   -0.5600
9      C9     -4.5022   -4.6552   -0.3058 C.2      1 ZINC000085994848   -0.1800
10     C10    -5.1337   -5.4980   -1.0849 C.2      1 ZINC000085994848   -0.1400
11     C11    -6.4891   -6.0223   -0.6861 C.3      1 ZINC000085994848   -0.1200
12     H12    -6.7913   -5.5870    0.2664 H        1 ZINC000085994848    0.1000
13     C13    -7.5115   -5.6871   -1.7579 C.2      1 ZINC000085994848    0.3900
14     O14    -8.1366   -4.6618   -1.8851 O.2      1 ZINC000085994848   -0.4400
15     C15    -7.5742   -6.9305   -2.6385 C.3      1 ZINC000085994848   -0.2200
16     C16    -7.4596   -8.0869   -1.6143 C.3      1 ZINC000085994848    0.1100
17     H17    -7.0785   -8.9879   -2.0949 H        1 ZINC000085994848    0.0800
18     O18    -8.7253   -8.3430   -1.0023 O.3      1 ZINC000085994848   -0.5500
19     C19    -6.4479   -7.5568   -0.5742 C.3      1 ZINC000085994848   -0.0600
20     H20    -5.4472   -7.9229   -0.8036 H        1 ZINC000085994848    0.1000
21     C21    -6.8593   -7.9962    0.8324 C.3      1 ZINC000085994848   -0.0800
22     C22    -6.7404   -9.4942    0.9456 C.2      1 ZINC000085994848   -0.1700
23     C23    -6.0550  -10.0244    1.9280 C.2      1 ZINC000085994848   -0.1400
24     C24    -5.5290   -9.1506    3.0375 C.3      1 ZINC000085994848   -0.1000
25     C25    -5.9905   -9.7059    4.3864 C.3      1 ZINC000085994848   -0.0900
26     C26    -5.4565   -8.8187    5.5128 C.3      1 ZINC000085994848   -0.1800
27     C27    -5.9110   -9.3657    6.8414 C.2      1 ZINC000085994848    0.4900
28     O28    -6.5983  -10.3719    6.8835 O.co2    1 ZINC000085994848   -0.7000
29     O29    -5.5914   -8.8021    7.8742 O.co2    1 ZINC000085994848   -0.7100
30     H30     0.5923    1.9036   -1.4746 H        1 ZINC000085994848    0.0500
31     H31    -1.0933    1.8757   -2.0457 H        1 ZINC000085994848    0.0500
32     H32    -0.7450    1.8826   -0.3001 H        1 ZINC000085994848    0.0500
33     H33    -0.0488   -0.3644   -2.2452 H        1 ZINC000085994848    0.0600
34     H34     0.2994   -0.3575   -0.4996 H        1 ZINC000085994848    0.0600
35     H35    -2.1262   -0.1800   -0.0164 H        1 ZINC000085994848    0.0600
36     H36    -2.4745   -0.1869   -1.7619 H        1 ZINC000085994848    0.0600
37     H37    -1.4300   -2.4270   -1.9614 H        1 ZINC000085994848    0.0700
38     H38    -1.0817   -2.4201   -0.2159 H        1 ZINC000085994848    0.0600
39     H39    -3.5073   -2.2426    0.2674 H        1 ZINC000085994848    0.0700
40     H40    -3.8556   -2.2495   -1.4782 H        1 ZINC000085994848    0.0700
41     H41    -3.4446   -4.3283   -2.6980 H        1 ZINC000085994848    0.3700
42     H42    -4.9529   -4.3361    0.6223 H        1 ZINC000085994848    0.1200
43     H43    -4.6829   -5.8172   -2.0130 H        1 ZINC000085994848    0.1200
44     H44    -8.5245   -6.9790   -3.1702 H        1 ZINC000085994848    0.0900
45     H45    -6.7383   -6.9504   -3.3378 H        1 ZINC000085994848    0.1100
46     H46    -9.4142   -8.6169   -1.6231 H        1 ZINC000085994848    0.3800
47     H47    -6.2066   -7.5233    1.5662 H        1 ZINC000085994848    0.0800
48     H48    -7.8912   -7.6985    1.0187 H        1 ZINC000085994848    0.0800
49     H49    -7.2202  -10.1306    0.2168 H        1 ZINC000085994848    0.1100
50     H50    -5.8668  -11.0878    1.9429 H        1 ZINC000085994848    0.1100
51     H51    -4.4396   -9.1367    3.0037 H        1 ZINC000085994848    0.0600
52     H52    -5.9093   -8.1367    2.9127 H        1 ZINC000085994848    0.0700
53     H53    -7.0798   -9.7197    4.4202 H        1 ZINC000085994848    0.0600
54     H54    -5.6102  -10.7198    4.5112 H        1 ZINC000085994848    0.0600
55     H55    -4.3671   -8.8049    5.4790 H        1 ZINC000085994848    0.0500
56     H56    -5.8368   -7.8048    5.3880 H        1 ZINC000085994848    0.0500
@<TRIPOS>BOND
1     1     2     1
2     1     30    1
3     1     31    1
4     1     32    1
5     2     3     1
6     2     33    1
7     2     34    1
8     3     4     1
9     3     35    1
10    3     36    1
11    4     5     1
12    4     37    1
13    4     38    1
14    5     6     1
15    5     39    1
16    5     40    1
17    6     7     1
18    6     8     1
19    6     9     1
20    8     41    1
21    9     10    2
22    9     42    1
23    10    11    1
24    10    43    1
25    11    12    1
26    11    19    1
27    11    13    1
28    13    14    2
29    13    15    1
30    15    16    1
31    15    44    1
32    15    45    1
33    16    17    1
34    16    18    1
35    16    19    1
36    18    46    1
37    19    20    1
38    19    21    1
39    21    22    1
40    21    47    1
41    21    48    1
42    22    23    2
43    22    49    1
44    23    24    1
45    23    50    1
46    24    25    1
47    24    51    1
48    24    52    1
49    25    26    1
50    25    53    1
51    25    54    1
52    26    27    1
53    26    55    1
54    26    56    1
55    27    28    ar
56    27    29    ar
@<TRIPOS>SUBSTRUCTURE
1   ZINC000085994848 1     RESIDUE    1   A     ZIN   1
