@<TRIPOS>MOLECULE
ZINC000034587071
59    62    1     0     0
SMALL
USER_CHARGES
@<TRIPOS>ATOM
1      C1     -0.3401   -0.0629    1.2797 C.3      1 ZINC000034587071    0.0800
2      N2     -0.2575   -1.4799    0.9170 N.am     1 ZINC000034587071   -0.7000
3      C3      0.3619   -1.8491   -0.2216 C.2      1 ZINC000034587071    0.5000
4      O4      0.8508   -1.0082   -0.9461 O.2      1 ZINC000034587071   -0.5300
5      C5      0.4468   -3.3067   -0.5947 C.3      1 ZINC000034587071   -0.0300
6      N6      1.1643   -3.4450   -1.8691 N.4      1 ZINC000034587071   -0.3700
7      H7      0.7151   -2.8752   -2.5703 H        1 ZINC000034587071    0.4300
8      C8      1.1394   -4.8501   -2.2929 C.3      1 ZINC000034587071    0.0000
9      C9      1.8148   -4.9867   -3.6592 C.3      1 ZINC000034587071   -0.1400
10     C10     3.2660   -4.5089   -3.5552 C.3      1 ZINC000034587071    0.0700
11     O11     3.8808   -4.5640   -4.8440 O.3      1 ZINC000034587071   -0.2800
12     C12     5.2358   -4.6739   -4.8775 C.ar     1 ZINC000034587071    0.1100
13     C13     5.8874   -4.8411   -6.1072 C.ar     1 ZINC000034587071    0.1700
14     O14     5.1585   -4.8917   -7.2525 O.3      1 ZINC000034587071   -0.3000
15     C15     5.8803   -5.0636   -8.4738 C.3      1 ZINC000034587071    0.0200
16     C16     7.2588   -4.9542   -6.1670 C.ar     1 ZINC000034587071   -0.1800
17     C17     8.0075   -4.9012   -4.9850 C.ar     1 ZINC000034587071    0.2100
18     N18     9.3457   -5.0060   -4.9892 N.ar     1 ZINC000034587071   -0.5300
19     C19    10.0205   -4.9524   -3.8655 C.ar     1 ZINC000034587071    0.3500
20     N20     9.4421   -4.7961   -2.6854 N.ar     1 ZINC000034587071   -0.5800
21     C21     8.1255   -4.6824   -2.5682 C.ar     1 ZINC000034587071    0.4600
22     N22     7.5357   -4.5194   -1.3309 N.pl3    1 ZINC000034587071   -0.6300
23     C23     8.3321   -4.3448   -0.1939 C.ar     1 ZINC000034587071    0.1400
24     C24     9.6495   -3.9271   -0.3247 C.ar     1 ZINC000034587071   -0.1000
25     C25    10.4340   -3.7549    0.7997 C.ar     1 ZINC000034587071   -0.0900
26     C26     9.9096   -3.9979    2.0554 C.ar     1 ZINC000034587071   -0.1000
27     C27     8.5966   -4.4146    2.1918 C.ar     1 ZINC000034587071   -0.0500
28     Cl28    7.9422   -4.7180    3.7708 Cl       1 ZINC000034587071   -0.0400
29     C29     7.8040   -4.5839    1.0704 C.ar     1 ZINC000034587071    0.0600
30     F30     6.5223   -4.9902    1.2027 F        1 ZINC000034587071   -0.1300
31     C31     7.3418   -4.7321   -3.7456 C.ar     1 ZINC000034587071   -0.1800
32     C32     5.9472   -4.6144   -3.7128 C.ar     1 ZINC000034587071   -0.1500
33     C33     3.2826   -3.0664   -3.0412 C.3      1 ZINC000034587071   -0.1800
34     C34     2.5533   -3.0026   -1.6974 C.3      1 ZINC000034587071   -0.0200
35     H35     0.6654    0.3450    1.3827 H        1 ZINC000034587071    0.0700
36     H36    -0.8748    0.4809    0.5008 H        1 ZINC000034587071    0.0700
37     H37    -0.8725    0.0397    2.2253 H        1 ZINC000034587071    0.0900
38     H38    -0.6486   -2.1524    1.4964 H        1 ZINC000034587071    0.4100
39     H39     0.9815   -3.8505    0.1841 H        1 ZINC000034587071    0.1600
40     H40    -0.5587   -3.7146   -0.6977 H        1 ZINC000034587071    0.1600
41     H41     1.6720   -5.4590   -1.5623 H        1 ZINC000034587071    0.1400
42     H42     0.1060   -5.1896   -2.3634 H        1 ZINC000034587071    0.1400
43     H43     1.7969   -6.0309   -3.9713 H        1 ZINC000034587071    0.1300
44     H44     1.2828   -4.3783   -4.3906 H        1 ZINC000034587071    0.1100
45     H45     3.8121   -5.1499   -2.8631 H        1 ZINC000034587071    0.0900
46     H46     6.5749   -4.2340   -8.6052 H        1 ZINC000034587071    0.0700
47     H47     6.4359   -6.0007   -8.4386 H        1 ZINC000034587071    0.0700
48     H48     5.1805   -5.0873   -9.3092 H        1 ZINC000034587071    0.1100
49     H49     7.7531   -5.0831   -7.1185 H        1 ZINC000034587071    0.1600
50     H50    11.0962   -5.0400   -3.9052 H        1 ZINC000034587071    0.2100
51     H51     6.5692   -4.5259   -1.2497 H        1 ZINC000034587071    0.4200
52     H52    10.0612   -3.7371   -1.3049 H        1 ZINC000034587071    0.1800
53     H53    11.4590   -3.4303    0.6972 H        1 ZINC000034587071    0.1500
54     H54    10.5258   -3.8626    2.9320 H        1 ZINC000034587071    0.1500
55     H55     5.4360   -4.4811   -2.7709 H        1 ZINC000034587071    0.1300
56     H56     4.3138   -2.7380   -2.9116 H        1 ZINC000034587071    0.1200
57     H57     2.7811   -2.4182   -3.7599 H        1 ZINC000034587071    0.1100
58     H58     2.5628   -1.9772   -1.3277 H        1 ZINC000034587071    0.1500
59     H59     3.0565   -3.6512   -0.9803 H        1 ZINC000034587071    0.1300
@<TRIPOS>BOND
1     1     2     1
2     1     35    1
3     1     36    1
4     1     37    1
5     2     3     am
6     2     38    1
7     3     4     2
8     3     5     1
9     5     6     1
10    5     39    1
11    5     40    1
12    6     7     1
13    6     34    1
14    6     8     1
15    8     9     1
16    8     41    1
17    8     42    1
18    9     10    1
19    9     43    1
20    9     44    1
21    10    11    1
22    10    33    1
23    10    45    1
24    11    12    1
25    12    32    ar
26    12    13    ar
27    13    14    1
28    13    16    ar
29    14    15    1
30    15    46    1
31    15    47    1
32    15    48    1
33    16    17    ar
34    16    49    1
35    17    31    ar
36    17    18    ar
37    18    19    ar
38    19    20    ar
39    19    50    1
40    20    21    ar
41    21    22    1
42    21    31    ar
43    22    23    1
44    22    51    1
45    23    29    ar
46    23    24    ar
47    24    25    ar
48    24    52    1
49    25    26    ar
50    25    53    1
51    26    27    ar
52    26    54    1
53    27    28    1
54    27    29    ar
55    29    30    1
56    31    32    ar
57    32    55    1
58    33    34    1
59    33    56    1
60    33    57    1
61    34    58    1
62    34    59    1
@<TRIPOS>SUBSTRUCTURE
1   ZINC000034587071 1     RESIDUE    1   A     ZIN   1
