@<TRIPOS>MOLECULE
ZINC000001842330
53    55    1     0     0
SMALL
USER_CHARGES
@<TRIPOS>ATOM
1      C1     -0.0187    1.5258    0.0104 C.3      1 ZINC000001842330   -0.1800
2      C2      0.0021   -0.0041    0.0020 C.3      1 ZINC000001842330    0.0600
3      C3      0.7421   -0.5109    1.2415 C.3      1 ZINC000001842330   -0.1800
4      C4     -1.4333   -0.5336    0.0129 C.3      1 ZINC000001842330   -0.0500
5      C5     -2.1387   -0.0476    1.2528 C.2      1 ZINC000001842330   -0.2000
6      C6     -2.2581   -0.7093    2.4146 C.2      1 ZINC000001842330    0.0800
7      N7     -2.9639    0.0459    3.3112 N.pl3    1 ZINC000001842330   -0.5900
8      C8     -3.3251    1.2425    2.7334 C.ar     1 ZINC000001842330    0.0900
9      C9     -4.0342    2.3496    3.1872 C.ar     1 ZINC000001842330   -0.1200
10     C10    -4.2372    3.4233    2.3479 C.ar     1 ZINC000001842330   -0.0900
11     C11    -3.7409    3.4124    1.0518 C.ar     1 ZINC000001842330   -0.1300
12     C12    -3.0414    2.3350    0.5854 C.ar     1 ZINC000001842330   -0.0800
13     C13    -2.8186    1.2390    1.4207 C.ar     1 ZINC000001842330   -0.1000
14     N14     0.6897   -0.4778   -1.2066 N.4      1 ZINC000001842330   -0.5000
15     H15     0.7033   -1.4867   -1.2121 H        1 ZINC000001842330    0.4300
16     H16     0.2017   -0.1436   -2.0240 H        1 ZINC000001842330    0.4300
17     C17     2.0678    0.0307   -1.2170 C.3      1 ZINC000001842330   -0.0500
18     C18     2.7840   -0.4628   -2.4758 C.3      1 ZINC000001842330    0.0900
19     H19     2.7213   -1.5498   -2.5270 H        1 ZINC000001842330    0.1300
20     O20     2.1628    0.1050   -3.6307 O.3      1 ZINC000001842330   -0.5400
21     C21     4.2531   -0.0383   -2.4263 C.3      1 ZINC000001842330    0.0300
22     O22     4.9483   -0.5972   -3.5427 O.3      1 ZINC000001842330   -0.3000
23     C23     6.2715   -0.3151   -3.6486 C.ar     1 ZINC000001842330    0.1700
24     C24     6.8925    0.4779   -2.6964 C.ar     1 ZINC000001842330   -0.2100
25     C25     8.2396    0.7643   -2.8053 C.ar     1 ZINC000001842330   -0.0500
26     C26     8.9789    0.2636   -3.8637 C.ar     1 ZINC000001842330   -0.1500
27     C27     8.3774   -0.5265   -4.8200 C.ar     1 ZINC000001842330   -0.0300
28     C28     7.0177   -0.8293   -4.7184 C.ar     1 ZINC000001842330   -0.0500
29     C29     6.3865   -1.6494   -5.7082 C.1      1 ZINC000001842330    0.2500
30     N30     5.8858   -2.2999   -6.4934 N.1      1 ZINC000001842330   -0.4000
31     H31     1.0039    1.9031    0.0027 H        1 ZINC000001842330    0.0800
32     H32    -0.5459    1.8868   -0.8726 H        1 ZINC000001842330    0.0800
33     H33    -0.5289    1.8773    0.9072 H        1 ZINC000001842330    0.1100
34     H34     0.2319   -0.1594    2.1383 H        1 ZINC000001842330    0.1100
35     H35     0.7568   -1.6008    1.2356 H        1 ZINC000001842330    0.0800
36     H36     1.7647   -0.1336    1.2338 H        1 ZINC000001842330    0.0800
37     H37    -1.9605   -0.1726   -0.8702 H        1 ZINC000001842330    0.0900
38     H38    -1.4185   -1.6235    0.0069 H        1 ZINC000001842330    0.0900
39     H39    -1.8569   -1.6923    2.6124 H        1 ZINC000001842330    0.1700
40     H40    -3.1780   -0.2217    4.2186 H        1 ZINC000001842330    0.4200
41     H41    -4.4247    2.3675    4.1940 H        1 ZINC000001842330    0.1300
42     H42    -4.7884    4.2819    2.7020 H        1 ZINC000001842330    0.1300
43     H43    -3.9091    4.2620    0.4066 H        1 ZINC000001842330    0.1300
44     H44    -2.6582    2.3335   -0.4243 H        1 ZINC000001842330    0.1200
45     H45     2.0530    1.1205   -1.2110 H        1 ZINC000001842330    0.1400
46     H46     2.5950   -0.3304   -0.3340 H        1 ZINC000001842330    0.1500
47     H47     2.1814    1.0716   -3.6522 H        1 ZINC000001842330    0.3900
48     H48     4.3186    1.0490   -2.4647 H        1 ZINC000001842330    0.0800
49     H49     4.7039   -0.3970   -1.5010 H        1 ZINC000001842330    0.0900
50     H50     6.3225    0.8727   -1.8685 H        1 ZINC000001842330    0.1400
51     H51     8.7188    1.3827   -2.0608 H        1 ZINC000001842330    0.1400
52     H52    10.0314    0.4933   -3.9404 H        1 ZINC000001842330    0.1400
53     H53     8.9577   -0.9143   -5.6442 H        1 ZINC000001842330    0.1500
@<TRIPOS>BOND
1     1     2     1
2     1     31    1
3     1     32    1
4     1     33    1
5     2     3     1
6     2     4     1
7     2     14    1
8     3     34    1
9     3     35    1
10    3     36    1
11    4     5     1
12    4     37    1
13    4     38    1
14    5     13    1
15    5     6     2
16    6     7     1
17    6     39    1
18    7     8     1
19    7     40    1
20    8     13    ar
21    8     9     ar
22    9     10    ar
23    9     41    1
24    10    11    ar
25    10    42    1
26    11    12    ar
27    11    43    1
28    12    13    ar
29    12    44    1
30    14    15    1
31    14    16    1
32    14    17    1
33    17    18    1
34    17    45    1
35    17    46    1
36    18    19    1
37    18    20    1
38    18    21    1
39    20    47    1
40    21    22    1
41    21    48    1
42    21    49    1
43    22    23    1
44    23    28    ar
45    23    24    ar
46    24    25    ar
47    24    50    1
48    25    26    ar
49    25    51    1
50    26    27    ar
51    26    52    1
52    27    28    ar
53    27    53    1
54    28    29    1
55    29    30    3
@<TRIPOS>SUBSTRUCTURE
1   ZINC000001842330 1     RESIDUE    1   A     ZIN   1
