@<TRIPOS>MOLECULE
ZINC000001489321
  22   23    0    0    0
SMALL
USER_CHARGES
NO_NAME
@<TRIPOS>ATOM
    1 C1       -0.0184     1.5028     0.0103 C.3    1 <0>      -0.0800
    2 C2        0.0021    -0.0041     0.0020 C.2    1 <0>       0.0500
    3 N3       -1.0461    -0.7508     0.0029 N.2    1 <0>      -0.4600
    4 C4       -0.8538    -2.0645    -0.0056 C.2    1 <0>       0.1700
    5 C5       -1.9283    -3.0111    -0.0065 C.1    1 <0>      -0.0800
    6 C6       -2.8092    -3.7871    -0.0073 C.1    1 <0>      -0.0900
    7 C7       -3.8837    -4.7337    -0.0082 C.ar   1 <0>      -0.0400
    8 C8       -5.2161    -4.2996    -0.0058 C.ar   1 <0>      -0.0500
    9 C9       -6.2167    -5.2552    -0.0073 C.ar   1 <0>      -0.1700
   10 C10      -5.8738    -6.5953    -0.0111 C.ar   1 <0>       0.1100
   11 N11      -4.6104    -6.9760    -0.0128 N.ar   1 <0>      -0.4800
   12 C12      -3.6219    -6.1065    -0.0173 C.ar   1 <0>       0.1300
   13 C13       0.4499    -2.4279    -0.0141 C.2    1 <0>      -0.2400
   14 S14       1.4202    -0.9574    -0.0172 S.3    1 <0>       0.1600
   15 H15       1.0042     1.8801     0.0026 H      1 <0>       0.0800
   16 H16      -0.5455     1.8639    -0.8728 H      1 <0>       0.0900
   17 H17      -0.5286     1.8543     0.9071 H      1 <0>       0.0900
   18 H18      -5.4558    -3.2466    -0.0026 H      1 <0>       0.1400
   19 H19      -7.2550    -4.9578    -0.0052 H      1 <0>       0.1400
   20 H20      -6.6534    -7.3427    -0.0123 H      1 <0>       0.1600
   21 H21      -2.6003    -6.4570    -0.0186 H      1 <0>       0.1600
   22 H22       0.8282    -3.4394    -0.0218 H      1 <0>       0.1900
@<TRIPOS>BOND
   1    1    2 1
   2    1   15 1
   3    1   16 1
   4    1   17 1
   5    2   14 1
   6    2    3 2
   7    3    4 1
   8    4    5 1
   9    4   13 2
  10    5    6 3
  11    6    7 1
  12    7   12 ar
  13    7    8 ar
  14    8    9 ar
  15    8   18 1
  16    9   10 ar
  17    9   19 1
  18   10   11 ar
  19   10   20 1
  20   11   12 ar
  21   12   21 1
  22   13   14 1
  23   13   22 1
