@<TRIPOS>MOLECULE
ZINC000003948979
54    55    1     0     0
SMALL
USER_CHARGES
@<TRIPOS>ATOM
1      C1     -0.0176    1.4478    0.0100 C.3      1 ZINC000003948979    0.0400
2      O2      0.0021   -0.0041    0.0020 O.3      1 ZINC000003948979   -0.3600
3      C3      0.5984   -0.5997   -1.0427 C.2      1 ZINC000003948979    0.4600
4      O4      1.0877    0.0699   -1.9214 O.2      1 ZINC000003948979   -0.4800
5      C5      0.6575   -2.1036   -1.1196 C.3      1 ZINC000003948979   -0.1200
6      C6      1.3848   -2.5205   -2.3995 C.3      1 ZINC000003948979    0.1600
7      H7      2.3653   -2.0456   -2.4335 H        1 ZINC000003948979    0.1300
8      C8      1.5482   -4.0158   -2.4219 C.2      1 ZINC000003948979    0.5200
9      O9      2.3596   -4.5203   -1.6748 O.2      1 ZINC000003948979   -0.5400
10     N10     0.8422   -4.8123   -3.2257 N.am     1 ZINC000003948979   -0.5600
11     C11     1.0259   -6.2588   -3.0840 C.3      1 ZINC000003948979    0.0300
12     C12     0.0411   -6.7938   -2.0765 C.2      1 ZINC000003948979    0.4900
13     O13    -0.7416   -6.0370   -1.5278 O.co2    1 ZINC000003948979   -0.6900
14     O14     0.0270   -7.9835   -1.8101 O.co2    1 ZINC000003948979   -0.6900
15     C15    -0.0988   -4.3448   -4.2343 C.3      1 ZINC000003948979    0.1100
16     C16    -0.5803   -2.9288   -3.9123 C.3      1 ZINC000003948979    0.0900
17     N17     0.5968   -2.1078   -3.5705 N.am     1 ZINC000003948979   -0.6100
18     C18     0.9337   -1.0265   -4.3011 C.2      1 ZINC000003948979    0.5200
19     O19     1.9066   -0.3689   -3.9979 O.2      1 ZINC000003948979   -0.5000
20     C20     0.1014   -0.6344   -5.4946 C.3      1 ZINC000003948979    0.1000
21     N21     0.6707    0.5647   -6.1143 N.am     1 ZINC000003948979   -0.7000
22     C22     0.0885    1.1006   -7.2054 C.2      1 ZINC000003948979    0.5500
23     O23    -0.9088    0.5890   -7.6751 O.2      1 ZINC000003948979   -0.5200
24     C24     0.6637    2.3121   -7.8314 C.ar     1 ZINC000003948979   -0.0600
25     C25     1.8123    2.8964   -7.2956 C.ar     1 ZINC000003948979   -0.0800
26     C26     2.3479    4.0242   -7.8790 C.ar     1 ZINC000003948979   -0.0600
27     C27     1.7419    4.5821   -9.0050 C.ar     1 ZINC000003948979   -0.1400
28     C28     2.3176    5.7947   -9.6316 C.cat    1 ZINC000003948979    0.6000
29     N29     2.1786    5.9977  -10.9394 N.pl3    1 ZINC000003948979   -0.7600
30     N30     2.9737    6.6810   -8.8867 N.pl3    1 ZINC000003948979   -0.7600
31     H31     3.0750    6.5330   -7.9334 H        1 ZINC000003948979    0.4500
32     H32     3.3507    7.4750   -9.2970 H        1 ZINC000003948979    0.4300
33     C33     0.5939    3.9981   -9.5411 C.ar     1 ZINC000003948979   -0.0700
34     C34     0.0609    2.8672   -8.9612 C.ar     1 ZINC000003948979   -0.0600
35     H35     1.0050    1.8251    0.0023 H        1 ZINC000003948979    0.0600
36     H36    -0.5448    1.8089   -0.8731 H        1 ZINC000003948979    0.0600
37     H37    -0.5278    1.7993    0.9068 H        1 ZINC000003948979    0.1000
38     H38     1.1948   -2.4908   -0.2539 H        1 ZINC000003948979    0.1300
39     H39    -0.3550   -2.5070   -1.1292 H        1 ZINC000003948979    0.1200
40     H40     0.8596   -6.7422   -4.0467 H        1 ZINC000003948979    0.0700
41     H41     2.0410   -6.4646   -2.7445 H        1 ZINC000003948979    0.0900
42     H42     0.3901   -4.3446   -5.2085 H        1 ZINC000003948979    0.0600
43     H43    -0.9562   -5.0172   -4.2641 H        1 ZINC000003948979    0.1000
44     H44    -1.0834   -2.5049   -4.7814 H        1 ZINC000003948979    0.1000
45     H45    -1.2674   -2.9574   -3.0666 H        1 ZINC000003948979    0.0900
46     H46     0.0967   -1.4499   -6.2179 H        1 ZINC000003948979    0.1100
47     H47    -0.9196   -0.4277   -5.1736 H        1 ZINC000003948979    0.1100
48     H48     1.4667    0.9731   -5.7394 H        1 ZINC000003948979    0.4100
49     H49     2.2811    2.4649   -6.4235 H        1 ZINC000003948979    0.1500
50     H50     3.2368    4.4764   -7.4644 H        1 ZINC000003948979    0.1500
51     H51     1.7003    5.3517  -11.4824 H        1 ZINC000003948979    0.4500
52     H52     2.5556    6.7917  -11.3497 H        1 ZINC000003948979    0.4300
53     H53     0.1252    4.4300  -10.4129 H        1 ZINC000003948979    0.1500
54     H54    -0.8276    2.4148   -9.3765 H        1 ZINC000003948979    0.1600
@<TRIPOS>BOND
1     1     2     1
2     1     35    1
3     1     36    1
4     1     37    1
5     2     3     1
6     3     4     2
7     3     5     1
8     5     6     1
9     5     38    1
10    5     39    1
11    6     7     1
12    6     17    1
13    6     8     1
14    8     9     2
15    8     10    am
16    10    11    1
17    10    15    1
18    11    12    1
19    11    40    1
20    11    41    1
21    12    13    ar
22    12    14    ar
23    15    16    1
24    15    42    1
25    15    43    1
26    16    17    1
27    16    44    1
28    16    45    1
29    17    18    am
30    18    19    2
31    18    20    1
32    20    21    1
33    20    46    1
34    20    47    1
35    21    22    am
36    21    48    1
37    22    23    2
38    22    24    1
39    24    34    ar
40    24    25    ar
41    25    26    ar
42    25    49    1
43    26    27    ar
44    26    50    1
45    27    28    1
46    27    33    ar
47    28    29    ar
48    28    30    ar
49    29    51    1
50    29    52    1
51    30    31    1
52    30    32    1
53    33    34    ar
54    33    53    1
55    34    54    1
@<TRIPOS>SUBSTRUCTURE
1   ZINC000003948979 1     RESIDUE    1   A     ZIN   1
