@<TRIPOS>MOLECULE
ZINC000113907790
34    35    1     0     0
SMALL
USER_CHARGES
@<TRIPOS>ATOM
1      C1     -2.7237    2.3166    0.5115 C.3      1 ZINC000113907790   -0.1400
2      C2     -1.9455    1.0760    0.0685 C.3      1 ZINC000113907790   -0.0800
3      C3     -2.8264   -0.1404    0.1927 C.2      1 ZINC000113907790   -0.1400
4      C4     -3.5252   -0.6485   -0.7852 C.2      1 ZINC000113907790   -0.1200
5      C5     -4.2981   -1.8643   -0.3300 C.3      1 ZINC000113907790   -0.0500
6      H6     -5.2725   -1.9927   -0.8012 H        1 ZINC000113907790    0.1000
7      C7     -4.2838   -1.7792    1.2194 C.3      1 ZINC000113907790   -0.1100
8      H8     -5.1929   -1.4411    1.7167 H        1 ZINC000113907790    0.1000
9      C9     -4.0152   -3.2913    1.2225 C.3      1 ZINC000113907790   -0.1500
10     C10    -3.4345   -3.1312   -0.2160 C.3      1 ZINC000113907790   -0.0700
11     C11    -3.8377   -4.2602   -1.1666 C.3      1 ZINC000113907790   -0.0100
12     N12    -3.4078   -5.5485   -0.6070 N.4      1 ZINC000113907790   -0.6300
13     H13    -2.4191   -5.5158   -0.4084 H        1 ZINC000113907790    0.4300
14     H14    -3.9161   -5.7316    0.2451 H        1 ZINC000113907790    0.4200
15     H15    -3.5928   -6.2832   -1.2735 H        1 ZINC000113907790    0.4300
16     C16    -1.9320   -2.8433   -0.2396 C.3      1 ZINC000113907790   -0.2100
17     C17    -1.4770   -2.6653   -1.6652 C.2      1 ZINC000113907790    0.4900
18     O18    -2.2990   -2.5875   -2.5623 O.co2    1 ZINC000113907790   -0.6900
19     O19    -0.2869   -2.5991   -1.9215 O.co2    1 ZINC000113907790   -0.6800
20     C20    -3.0112   -0.9352    1.4642 C.3      1 ZINC000113907790   -0.0900
21     H21    -2.0866    3.1964    0.4216 H        1 ZINC000113907790    0.0600
22     H22    -3.6032    2.4388   -0.1208 H        1 ZINC000113907790    0.0500
23     H23    -3.0358    2.1985    1.5491 H        1 ZINC000113907790    0.0500
24     H24    -1.6335    1.1942   -0.9692 H        1 ZINC000113907790    0.0700
25     H25    -1.0661    0.9538    0.7007 H        1 ZINC000113907790    0.0700
26     H26    -3.5485   -0.2512   -1.7892 H        1 ZINC000113907790    0.1200
27     H27    -3.2805   -3.6013    1.9656 H        1 ZINC000113907790    0.0800
28     H28    -4.9228   -3.8944    1.2478 H        1 ZINC000113907790    0.0800
29     H29    -4.9206   -4.2612   -1.2908 H        1 ZINC000113907790    0.1200
30     H30    -3.3612   -4.1074   -2.1350 H        1 ZINC000113907790    0.1800
31     H31    -1.7277   -1.9326    0.3234 H        1 ZINC000113907790    0.1100
32     H32    -1.3951   -3.6777    0.2117 H        1 ZINC000113907790    0.0500
33     H33    -2.1534   -1.5844    1.6400 H        1 ZINC000113907790    0.0900
34     H34    -3.1586   -0.2628    2.3093 H        1 ZINC000113907790    0.0700
@<TRIPOS>BOND
1     1     2     1
2     1     21    1
3     1     22    1
4     1     23    1
5     2     3     1
6     2     24    1
7     2     25    1
8     3     20    1
9     3     4     2
10    4     5     1
11    4     26    1
12    5     6     1
13    5     10    1
14    5     7     1
15    7     8     1
16    7     9     1
17    7     20    1
18    9     10    1
19    9     27    1
20    9     28    1
21    10    11    1
22    10    16    1
23    11    12    1
24    11    29    1
25    11    30    1
26    12    13    1
27    12    14    1
28    12    15    1
29    16    17    1
30    16    31    1
31    16    32    1
32    17    18    ar
33    17    19    ar
34    20    33    1
35    20    34    1
@<TRIPOS>SUBSTRUCTURE
1   ZINC000113907790 1     RESIDUE    1   A     ZIN   1
