@<TRIPOS>MOLECULE
ZINC000003797401
55    57    1     0     0
SMALL
USER_CHARGES
@<TRIPOS>ATOM
1      C1     -0.0187    1.5258    0.0104 C.3      1 ZINC000003797401   -0.1600
2      C2      0.0021   -0.0041    0.0020 C.3      1 ZINC000003797401    0.0600
3      O3     -1.3601   -0.5067    0.0123 O.3      1 ZINC000003797401   -0.3500
4      C4     -1.5179   -1.8396    0.0067 C.2      1 ZINC000003797401    0.4600
5      O5     -0.5499   -2.5625   -0.0065 O.2      1 ZINC000003797401   -0.4800
6      C6     -2.9025   -2.4345    0.0167 C.3      1 ZINC000003797401    0.0700
7      O7     -2.8084   -3.8604    0.0081 O.3      1 ZINC000003797401   -0.2900
8      C8     -3.9759   -4.5558    0.0156 C.ar     1 ZINC000003797401    0.1400
9      C9     -5.1886   -3.8823    0.0250 C.ar     1 ZINC000003797401   -0.1900
10     C10    -6.3675   -4.5974    0.0294 C.ar     1 ZINC000003797401   -0.0700
11     C11    -6.3526   -5.9864    0.0246 C.ar     1 ZINC000003797401   -0.1200
12     C12    -7.6789   -6.7009    0.0151 C.3      1 ZINC000003797401   -0.0700
13     C13    -7.5072   -8.1579    0.4398 C.3      1 ZINC000003797401   -0.1400
14     C14    -6.3888   -8.7795   -0.4048 C.3      1 ZINC000003797401    0.0300
15     H15    -6.5664   -8.5710   -1.4599 H        1 ZINC000003797401    0.1500
16     N16    -6.3531  -10.2318   -0.1868 N.4      1 ZINC000003797401   -0.5000
17     H17    -6.0991  -10.4219    0.7710 H        1 ZINC000003797401    0.4300
18     H18    -7.2635  -10.6230   -0.3774 H        1 ZINC000003797401    0.4300
19     C19    -5.3618  -10.8377   -1.0858 C.3      1 ZINC000003797401   -0.0500
20     C20    -5.3246  -12.3503   -0.8587 C.3      1 ZINC000003797401    0.1400
21     H21    -6.3081  -12.7729   -1.0645 H        1 ZINC000003797401    0.1300
22     O22    -4.9650  -12.6196    0.4979 O.3      1 ZINC000003797401   -0.5500
23     C23    -4.3077  -12.9719   -1.7809 C.ar     1 ZINC000003797401   -0.1300
24     C24    -2.9774  -13.0223   -1.4090 C.ar     1 ZINC000003797401   -0.1000
25     C25    -2.0439  -13.5929   -2.2544 C.ar     1 ZINC000003797401   -0.1000
26     C26    -2.4403  -14.1126   -3.4720 C.ar     1 ZINC000003797401   -0.0900
27     C27    -3.7720  -14.0624   -3.8448 C.ar     1 ZINC000003797401   -0.0300
28     Cl28   -4.2708  -14.7157   -5.3738 Cl       1 ZINC000003797401   -0.0500
29     C29    -4.7064  -13.4966   -2.9961 C.ar     1 ZINC000003797401   -0.0900
30     C30    -5.0601   -8.1612    0.0251 C.3      1 ZINC000003797401   -0.0900
31     C31    -5.1496   -6.6575    0.0209 C.ar     1 ZINC000003797401   -0.0500
32     C32    -3.9614   -5.9404    0.0080 C.ar     1 ZINC000003797401   -0.1400
33     H33     1.0039    1.9031    0.0027 H        1 ZINC000003797401    0.0900
34     H34    -0.5459    1.8868   -0.8726 H        1 ZINC000003797401    0.0700
35     H35    -0.5289    1.8773    0.9072 H        1 ZINC000003797401    0.0700
36     H36     0.5123   -0.3556   -0.8948 H        1 ZINC000003797401    0.0800
37     H37     0.5293   -0.3651    0.8851 H        1 ZINC000003797401    0.0800
38     H38    -3.4306   -2.1106    0.9135 H        1 ZINC000003797401    0.1100
39     H39    -3.4476   -2.1011   -0.8663 H        1 ZINC000003797401    0.1100
40     H40    -5.2092   -2.8025    0.0293 H        1 ZINC000003797401    0.1400
41     H41    -7.3114   -4.0726    0.0371 H        1 ZINC000003797401    0.1300
42     H42    -8.3601   -6.2032    0.7053 H        1 ZINC000003797401    0.1000
43     H43    -8.0984   -6.6666   -0.9903 H        1 ZINC000003797401    0.0900
44     H44    -7.2387   -8.2034    1.4952 H        1 ZINC000003797401    0.0900
45     H45    -8.4377   -8.7007    0.2735 H        1 ZINC000003797401    0.0900
46     H46    -5.6362  -10.6323   -2.1205 H        1 ZINC000003797401    0.1500
47     H47    -4.3784  -10.4151   -0.8799 H        1 ZINC000003797401    0.1400
48     H48    -4.0992  -12.2716    0.7517 H        1 ZINC000003797401    0.3900
49     H49    -2.6670  -12.6156   -0.4579 H        1 ZINC000003797401    0.1300
50     H50    -1.0046  -13.6320   -1.9634 H        1 ZINC000003797401    0.1400
51     H51    -1.7109  -14.5576   -4.1325 H        1 ZINC000003797401    0.1400
52     H52    -5.7458  -13.4571   -3.2865 H        1 ZINC000003797401    0.1400
53     H53    -4.8127   -8.5038    1.0299 H        1 ZINC000003797401    0.1000
54     H54    -4.2771   -8.4766   -0.6645 H        1 ZINC000003797401    0.1000
55     H55    -3.0181   -6.4664   -0.0030 H        1 ZINC000003797401    0.1400
@<TRIPOS>BOND
1     1     2     1
2     1     33    1
3     1     34    1
4     1     35    1
5     2     3     1
6     2     36    1
7     2     37    1
8     3     4     1
9     4     5     2
10    4     6     1
11    6     7     1
12    6     38    1
13    6     39    1
14    7     8     1
15    8     32    ar
16    8     9     ar
17    9     10    ar
18    9     40    1
19    10    11    ar
20    10    41    1
21    11    31    ar
22    11    12    1
23    12    13    1
24    12    42    1
25    12    43    1
26    13    14    1
27    13    44    1
28    13    45    1
29    14    15    1
30    14    16    1
31    14    30    1
32    16    17    1
33    16    18    1
34    16    19    1
35    19    20    1
36    19    46    1
37    19    47    1
38    20    21    1
39    20    22    1
40    20    23    1
41    22    48    1
42    23    29    ar
43    23    24    ar
44    24    25    ar
45    24    49    1
46    25    26    ar
47    25    50    1
48    26    27    ar
49    26    51    1
50    27    28    1
51    27    29    ar
52    29    52    1
53    30    31    1
54    30    53    1
55    30    54    1
56    31    32    ar
57    32    55    1
@<TRIPOS>SUBSTRUCTURE
1   ZINC000003797401 1     RESIDUE    1   A     ZIN   1
