@<TRIPOS>MOLECULE
ZINC000003931050
58    61    1     0     0
SMALL
USER_CHARGES
@<TRIPOS>ATOM
1      C1     -6.9398   -0.3721    4.0461 C.3      1 ZINC000003931050   -0.1500
2      C2     -6.2528    0.5619    3.0834 C.2      1 ZINC000003931050    0.4600
3      O3     -6.8750    1.4566    2.5616 O.2      1 ZINC000003931050   -0.5100
4      O4     -4.9495    0.3999    2.8058 O.3      1 ZINC000003931050   -0.3400
5      C5     -4.3537    1.3364    1.8697 C.3      1 ZINC000003931050    0.0200
6      C6     -2.8964    1.0011    1.6827 C.2      1 ZINC000003931050    0.3400
7      O7     -2.4102    0.0690    2.2770 O.2      1 ZINC000003931050   -0.4100
8      C8     -2.0459    1.8288    0.7540 C.3      1 ZINC000003931050    0.1100
9      O9     -2.4667    3.1941    0.7846 O.3      1 ZINC000003931050   -0.5400
10     C10    -0.5497    1.7199    1.1534 C.3      1 ZINC000003931050   -0.1500
11     C11     0.1940    1.1801   -0.0973 C.3      1 ZINC000003931050   -0.1100
12     C12    -0.7278    1.5842   -1.2544 C.3      1 ZINC000003931050   -0.0800
13     H13    -0.6302    2.6519   -1.4506 H        1 ZINC000003931050    0.0900
14     C14    -0.5463    0.8074   -2.5379 C.3      1 ZINC000003931050   -0.0400
15     H15    -0.3284   -0.2343   -2.3020 H        1 ZINC000003931050    0.0800
16     C16     0.6259    1.3609   -3.3268 C.3      1 ZINC000003931050   -0.1100
17     C17     0.8043    0.5710   -4.6243 C.3      1 ZINC000003931050   -0.1000
18     C18    -0.4805    0.6604   -5.4256 C.2      1 ZINC000003931050   -0.0200
19     C19    -0.4134    1.0894   -6.6841 C.2      1 ZINC000003931050   -0.2400
20     C20    -1.6319    1.1974   -7.4932 C.2      1 ZINC000003931050    0.3900
21     O21    -1.6690    1.8814   -8.4947 O.2      1 ZINC000003931050   -0.4600
22     C22    -2.8423    0.4171   -7.0224 C.3      1 ZINC000003931050   -0.1700
23     C23    -3.0036    0.6763   -5.5235 C.3      1 ZINC000003931050   -0.1100
24     C24    -1.7609    0.2567   -4.7595 C.3      1 ZINC000003931050    0.0000
25     C25    -1.7644   -1.2682   -4.6348 C.3      1 ZINC000003931050   -0.1400
26     C26    -1.8038    0.8489   -3.3615 C.2      1 ZINC000003931050   -0.1100
27     C27    -2.9262    1.3805   -2.9625 C.2      1 ZINC000003931050   -0.1500
28     C28    -3.1330    1.9691   -1.5861 C.3      1 ZINC000003931050   -0.0700
29     C29    -2.1313    1.2813   -0.6700 C.3      1 ZINC000003931050   -0.0400
30     C30    -2.3842   -0.2275   -0.6448 C.3      1 ZINC000003931050   -0.1600
31     H31    -6.8619    0.0268    5.0575 H        1 ZINC000003931050    0.1100
32     H32    -7.9908   -0.4668    3.7729 H        1 ZINC000003931050    0.1100
33     H33    -6.4638   -1.3517    4.0041 H        1 ZINC000003931050    0.1000
34     H34    -4.4460    2.3496    2.2608 H        1 ZINC000003931050    0.1100
35     H35    -4.8680    1.2688    0.9110 H        1 ZINC000003931050    0.1100
36     H36    -2.4339    3.5962    1.6635 H        1 ZINC000003931050    0.3800
37     H37    -0.4318    1.0271    1.9866 H        1 ZINC000003931050    0.0900
38     H38    -0.1613    2.7016    1.4248 H        1 ZINC000003931050    0.0800
39     H39     0.2964    0.0961   -0.0468 H        1 ZINC000003931050    0.0700
40     H40     1.1705    1.6536   -0.1992 H        1 ZINC000003931050    0.0700
41     H41     1.5374    1.2929   -2.7331 H        1 ZINC000003931050    0.0800
42     H42     0.4249    2.4058   -3.5636 H        1 ZINC000003931050    0.0700
43     H43     1.0183   -0.4721   -4.3911 H        1 ZINC000003931050    0.0900
44     H44     1.6257    0.9957   -5.2012 H        1 ZINC000003931050    0.0800
45     H45     0.5415    1.3592   -7.1106 H        1 ZINC000003931050    0.1300
46     H46    -2.6881   -0.6473   -7.1993 H        1 ZINC000003931050    0.1000
47     H47    -3.7316    0.7554   -7.5542 H        1 ZINC000003931050    0.0900
48     H48    -3.8590    0.1114   -5.1529 H        1 ZINC000003931050    0.0800
49     H49    -3.1811    1.7395   -5.3614 H        1 ZINC000003931050    0.0800
50     H50    -2.6704   -1.5886   -4.1205 H        1 ZINC000003931050    0.0700
51     H51    -1.7339   -1.7141   -5.6290 H        1 ZINC000003931050    0.0600
52     H52    -0.8913   -1.5882   -4.0662 H        1 ZINC000003931050    0.0600
53     H53    -3.7547    1.4007   -3.6549 H        1 ZINC000003931050    0.1200
54     H54    -4.1490    1.7724   -1.2440 H        1 ZINC000003931050    0.0700
55     H55    -2.9465    3.0429   -1.6049 H        1 ZINC000003931050    0.0900
56     H56    -1.6662   -0.7051    0.0219 H        1 ZINC000003931050    0.0700
57     H57    -3.3958   -0.4205   -0.2877 H        1 ZINC000003931050    0.0500
58     H58    -2.2706   -0.6318   -1.6507 H        1 ZINC000003931050    0.0800
@<TRIPOS>BOND
1     1     2     1
2     1     31    1
3     1     32    1
4     1     33    1
5     2     3     2
6     2     4     1
7     4     5     1
8     5     6     1
9     5     34    1
10    5     35    1
11    6     7     2
12    6     8     1
13    8     29    1
14    8     9     1
15    8     10    1
16    9     36    1
17    10    11    1
18    10    37    1
19    10    38    1
20    11    12    1
21    11    39    1
22    11    40    1
23    12    13    1
24    12    29    1
25    12    14    1
26    14    15    1
27    14    26    1
28    14    16    1
29    16    17    1
30    16    41    1
31    16    42    1
32    17    18    1
33    17    43    1
34    17    44    1
35    18    24    1
36    18    19    2
37    19    20    1
38    19    45    1
39    20    21    2
40    20    22    1
41    22    23    1
42    22    46    1
43    22    47    1
44    23    24    1
45    23    48    1
46    23    49    1
47    24    25    1
48    24    26    1
49    25    50    1
50    25    51    1
51    25    52    1
52    26    27    2
53    27    28    1
54    27    53    1
55    28    29    1
56    28    54    1
57    28    55    1
58    29    30    1
59    30    56    1
60    30    57    1
61    30    58    1
@<TRIPOS>SUBSTRUCTURE
1   ZINC000003931050 1     RESIDUE    1   A     ZIN   1
