@<TRIPOS>MOLECULE
ZINC000013209429
23    23    1     0     0
SMALL
USER_CHARGES
@<TRIPOS>ATOM
1      C1     -0.1114    0.9981   -2.4870 C.3      1 ZINC000013209429   -0.1600
2      C2     -0.7527    1.5927   -1.2315 C.3      1 ZINC000013209429   -0.1000
3      C3     -0.0127    1.0858    0.0080 C.3      1 ZINC000013209429   -0.0700
4      H4      0.0021   -0.0041    0.0020 H        1 ZINC000013209429    0.0900
5      C5     -0.7288    1.5792    1.2668 C.3      1 ZINC000013209429   -0.1500
6      S6      1.6891    1.7137   -0.0049 S.3      1 ZINC000013209429   -0.1500
7      S7      2.5850    0.6554    1.5186 S.3      1 ZINC000013209429    0.0800
8      C8      3.0353   -0.8098    0.6497 C.2      1 ZINC000013209429    0.1400
9      N9      4.1705   -1.0124    0.0223 N.2      1 ZINC000013209429   -0.4200
10     C10     4.1634   -2.2401   -0.5235 C.2      1 ZINC000013209429   -0.0300
11     C11     2.9901   -2.8263   -0.2309 C.2      1 ZINC000013209429   -0.0100
12     N12     2.2677   -1.9263    0.5198 N.pl3    1 ZINC000013209429   -0.5500
13     H13    -0.6386    1.3592   -3.3700 H        1 ZINC000013209429    0.0600
14     H14     0.9344    1.3010   -2.5390 H        1 ZINC000013209429    0.0700
15     H15    -0.1731   -0.0894   -2.4463 H        1 ZINC000013209429    0.0500
16     H16    -1.7985    1.2898   -1.1795 H        1 ZINC000013209429    0.0800
17     H17    -0.6910    2.6801   -1.2722 H        1 ZINC000013209429    0.0800
18     H18    -0.2017    1.2182    2.1499 H        1 ZINC000013209429    0.0600
19     H19    -0.7436    2.6691    1.2728 H        1 ZINC000013209429    0.0700
20     H20    -1.7514    1.2020    1.2746 H        1 ZINC000013209429    0.0700
21     H21     4.9642   -2.6808   -1.0988 H        1 ZINC000013209429    0.1800
22     H22     2.6752   -3.8165   -0.5255 H        1 ZINC000013209429    0.1900
23     H23     1.3792   -2.0613    0.8850 H        1 ZINC000013209429    0.4200
@<TRIPOS>BOND
1     1     2     1
2     1     13    1
3     1     14    1
4     1     15    1
5     2     3     1
6     2     16    1
7     2     17    1
8     3     4     1
9     3     5     1
10    3     6     1
11    5     18    1
12    5     19    1
13    5     20    1
14    6     7     1
15    7     8     1
16    8     12    1
17    8     9     2
18    9     10    1
19    10    11    2
20    10    21    1
21    11    12    1
22    11    22    1
23    12    23    1
@<TRIPOS>SUBSTRUCTURE
1   ZINC000013209429 1     RESIDUE    1   A     ZIN   1
