@<TRIPOS>MOLECULE
ZINC000003585048
52    56    1     0     0
SMALL
USER_CHARGES
@<TRIPOS>ATOM
1      C1      1.9811    1.3428   -1.1908 C.3      1 ZINC000003585048   -0.1800
2      C2      2.0571   -0.1851   -1.1665 C.3      1 ZINC000003585048    0.0800
3      H3      1.0924   -0.6139   -1.4379 H        1 ZINC000003585048    0.1500
4      N4      3.1073   -0.6597   -2.0957 N.4      1 ZINC000003585048   -0.5100
5      H5      2.7081   -0.8887   -2.9937 H        1 ZINC000003585048    0.4400
6      H6      3.8307    0.0363   -2.1973 H        1 ZINC000003585048    0.4300
7      C7      3.6405   -1.8749   -1.4395 C.3      1 ZINC000003585048    0.0500
8      C8      3.4181   -1.6700    0.0421 C.ar     1 ZINC000003585048   -0.1300
9      C9      3.9696   -2.2863    1.1457 C.ar     1 ZINC000003585048   -0.0500
10     C10     3.5794   -1.8981    2.4267 C.ar     1 ZINC000003585048   -0.0200
11     C11     4.1696   -2.5572    3.6164 C.ar     1 ZINC000003585048   -0.0100
12     C12     4.2049   -3.9529    3.6918 C.ar     1 ZINC000003585048   -0.1300
13     C13     4.7450   -4.5714    4.7816 C.ar     1 ZINC000003585048   -0.0100
14     C14     5.2667   -3.8100    5.8299 C.ar     1 ZINC000003585048   -0.1600
15     C15     5.8555   -4.4553    7.0177 C.2      1 ZINC000003585048    0.4300
16     O16     5.9054   -5.6685    7.1219 O.2      1 ZINC000003585048   -0.4400
17     C17     6.3809   -3.5732    8.0721 C.2      1 ZINC000003585048   -0.3200
18     C18     6.9839   -4.1386    9.2871 C.2      1 ZINC000003585048    0.5500
19     O19     7.4148   -3.4008   10.1519 O.2      1 ZINC000003585048   -0.5300
20     O20     7.0593   -5.4756    9.4428 O.3      1 ZINC000003585048   -0.4900
21     C21     6.2984   -2.2057    7.9009 C.2      1 ZINC000003585048    0.2500
22     N22     5.7562   -1.6558    6.8074 N.pl3    1 ZINC000003585048   -0.4500
23     C23     5.7094   -0.1951    6.7066 C.3      1 ZINC000003585048    0.0100
24     C24     6.2602    0.6124    7.8837 C.3      1 ZINC000003585048   -0.1800
25     C25     7.0405    0.5466    6.5692 C.3      1 ZINC000003585048   -0.1700
26     C26     5.2402   -2.4063    5.7713 C.ar     1 ZINC000003585048    0.2000
27     C27     4.6911   -1.7822    4.6505 C.ar     1 ZINC000003585048    0.0400
28     O28     4.6602   -0.4259    4.5703 O.3      1 ZINC000003585048   -0.3200
29     C29     5.6849    0.2018    3.7969 C.3      1 ZINC000003585048    0.4000
30     F30     6.9376   -0.2363    4.2395 F        1 ZINC000003585048   -0.1900
31     F31     5.5232   -0.1339    2.4485 F        1 ZINC000003585048   -0.2000
32     C32     2.6326   -0.8873    2.5843 C.ar     1 ZINC000003585048   -0.0700
33     C33     2.0871   -0.2771    1.4732 C.ar     1 ZINC000003585048   -0.0700
34     C34     2.4749   -0.6656    0.2052 C.ar     1 ZINC000003585048   -0.1200
35     H35     2.9473    1.7592   -0.9059 H        1 ZINC000003585048    0.0800
36     H36     1.7232    1.6778   -2.1955 H        1 ZINC000003585048    0.0900
37     H37     1.2188    1.6799   -0.4884 H        1 ZINC000003585048    0.1100
38     H38     3.0994   -2.7565   -1.7830 H        1 ZINC000003585048    0.1500
39     H39     4.7049   -1.9799   -1.6494 H        1 ZINC000003585048    0.1400
40     H40     4.7026   -3.0691    1.0179 H        1 ZINC000003585048    0.1400
41     H41     3.8020   -4.5447    2.8832 H        1 ZINC000003585048    0.1500
42     H42     4.7688   -5.6499    4.8338 H        1 ZINC000003585048    0.1600
43     H43     7.4642   -5.8005   10.2586 H        1 ZINC000003585048    0.4100
44     H44     6.6836   -1.5583    8.6748 H        1 ZINC000003585048    0.1900
45     H45     4.8492    0.2121    6.1752 H        1 ZINC000003585048    0.1800
46     H46     5.7624    1.5510    8.1270 H        1 ZINC000003585048    0.1200
47     H47     6.6575    0.0567    8.7331 H        1 ZINC000003585048    0.1100
48     H48     7.9511   -0.0523    6.5539 H        1 ZINC000003585048    0.1100
49     H49     7.0560    1.4420    5.9478 H        1 ZINC000003585048    0.1100
50     H50     5.6165    1.2835    3.9128 H        1 ZINC000003585048    0.1800
51     H51     2.3263   -0.5826    3.5741 H        1 ZINC000003585048    0.1500
52     H52     1.3534    0.5061    1.5948 H        1 ZINC000003585048    0.1400
@<TRIPOS>BOND
1     1     2     1
2     1     35    1
3     1     36    1
4     1     37    1
5     2     3     1
6     2     34    1
7     2     4     1
8     4     5     1
9     4     6     1
10    4     7     1
11    7     8     1
12    7     38    1
13    7     39    1
14    8     34    ar
15    8     9     ar
16    9     10    ar
17    9     40    1
18    10    11    1
19    10    32    ar
20    11    27    ar
21    11    12    ar
22    12    13    ar
23    12    41    1
24    13    14    ar
25    13    42    1
26    14    26    ar
27    14    15    1
28    15    16    2
29    15    17    1
30    17    18    1
31    17    21    2
32    18    19    2
33    18    20    1
34    20    43    1
35    21    22    1
36    21    44    1
37    22    23    1
38    22    26    1
39    23    25    1
40    23    24    1
41    23    45    1
42    24    25    1
43    24    46    1
44    24    47    1
45    25    48    1
46    25    49    1
47    26    27    ar
48    27    28    1
49    28    29    1
50    29    30    1
51    29    31    1
52    29    50    1
53    32    33    ar
54    32    51    1
55    33    34    ar
56    33    52    1
@<TRIPOS>SUBSTRUCTURE
1   ZINC000003585048 1     RESIDUE    1   A     ZIN   1
