@<TRIPOS>MOLECULE
ZINC000001540787
34    33    1     0     0
SMALL
USER_CHARGES
@<TRIPOS>ATOM
1      C1     -0.1182    1.5815   -0.2527 C.3      1 ZINC000001540787   -0.1500
2      C2     -0.1065    0.0530   -0.1862 C.3      1 ZINC000001540787   -0.1200
3      C3      0.7304   -0.5013   -1.3409 C.3      1 ZINC000001540787   -0.1100
4      C4      0.8486   -2.0204   -1.2017 C.3      1 ZINC000001540787   -0.1100
5      C5     -0.5306   -2.6579   -1.3816 C.3      1 ZINC000001540787   -0.1000
6      C6     -0.4429   -4.1559   -1.0834 C.3      1 ZINC000001540787   -0.1300
7      C7     -1.8433   -4.7697   -1.1380 C.3      1 ZINC000001540787   -0.1500
8      C8      1.7878   -2.5497   -2.2547 C.2      1 ZINC000001540787    0.5200
9      O9      1.3929   -3.3573   -3.0688 O.2      1 ZINC000001540787   -0.5300
10     N10     3.0666   -2.1256   -2.2917 N.am     1 ZINC000001540787   -0.7200
11     C11     3.9796   -2.6402   -3.3153 C.3      1 ZINC000001540787    0.1000
12     C12     5.3381   -2.0123   -3.1381 C.2      1 ZINC000001540787    0.5100
13     N13     6.3451   -2.3383   -3.9724 N.am     1 ZINC000001540787   -0.8500
14     O14     5.5251   -1.2136   -2.2448 O.2      1 ZINC000001540787   -0.5400
15     H15     0.9023    1.9565   -0.1746 H        1 ZINC000001540787    0.0500
16     H16    -0.5509    1.9006   -1.2009 H        1 ZINC000001540787    0.0500
17     H17    -0.7144    1.9764    0.5699 H        1 ZINC000001540787    0.0600
18     H18     0.3262   -0.2661    0.7620 H        1 ZINC000001540787    0.0600
19     H19    -1.1270   -0.3219   -0.2643 H        1 ZINC000001540787    0.0700
20     H20     0.2479   -0.2597   -2.2880 H        1 ZINC000001540787    0.0700
21     H21     1.7248   -0.0557   -1.3156 H        1 ZINC000001540787    0.0700
22     H22     1.2360   -2.2656   -0.2129 H        1 ZINC000001540787    0.1000
23     H23    -1.2385   -2.1918   -0.6962 H        1 ZINC000001540787    0.0700
24     H24    -0.8679   -2.5108   -2.4076 H        1 ZINC000001540787    0.0700
25     H25     0.1941   -4.6374   -1.8254 H        1 ZINC000001540787    0.0800
26     H26    -0.0196   -4.3045   -0.0899 H        1 ZINC000001540787    0.0500
27     H27    -2.2665   -4.6212   -2.1314 H        1 ZINC000001540787    0.0500
28     H28    -1.7807   -5.8370   -0.9255 H        1 ZINC000001540787    0.0500
29     H29    -2.4802   -4.2883   -0.3960 H        1 ZINC000001540787    0.0500
30     H30     3.3824   -1.4797   -1.6405 H        1 ZINC000001540787    0.4100
31     H31     4.0638   -3.7224   -3.2161 H        1 ZINC000001540787    0.1000
32     H32     3.5922   -2.3950   -4.3041 H        1 ZINC000001540787    0.1000
33     H33     6.1955   -2.9771   -4.6869 H        1 ZINC000001540787    0.4100
34     H34     7.2195   -1.9342   -3.8584 H        1 ZINC000001540787    0.4100
@<TRIPOS>BOND
1     1     2     1
2     1     15    1
3     1     16    1
4     1     17    1
5     2     3     1
6     2     18    1
7     2     19    1
8     3     4     1
9     3     20    1
10    3     21    1
11    4     5     1
12    4     8     1
13    4     22    1
14    5     6     1
15    5     23    1
16    5     24    1
17    6     7     1
18    6     25    1
19    6     26    1
20    7     27    1
21    7     28    1
22    7     29    1
23    8     9     2
24    8     10    am
25    10    11    1
26    10    30    1
27    11    12    1
28    11    31    1
29    11    32    1
30    12    13    am
31    12    14    2
32    13    33    1
33    13    34    1
@<TRIPOS>SUBSTRUCTURE
1   ZINC000001540787 1     RESIDUE    1   A     ZIN   1
