@<TRIPOS>MOLECULE
ZINC000016697945
  10   10    0    0    0
SMALL
USER_CHARGES
NO_NAME
@<TRIPOS>ATOM
    1 O1        0.0021    -0.0041     0.0020 O.2    1 <0>      -0.6100
    2 C2       -0.0145     1.2159     0.0087 C.2    1 <0>       0.5800
    3 N3       -1.1927     1.8610     0.0290 N.2    1 <0>      -0.6200
    4 C4       -1.2346     3.1934     0.0371 C.2    1 <0>       0.1800
    5 C5       -0.0510     3.9123     0.0245 C.2    1 <0>      -0.2000
    6 F6       -0.0694     5.2631     0.0328 F      1 <0>      -0.1600
    7 C7        1.1516     3.2259     0.0036 C.2    1 <0>       0.1800
    8 N8        1.1459     1.8928     0.0013 N.pl3  1 <0>      -0.6200
    9 H9       -2.1839     3.7080     0.0531 H      1 <0>       0.1400
   10 H10       2.0866     3.7663    -0.0070 H      1 <0>       0.1400
@<TRIPOS>BOND
   1    1    2 2
   2    2    8 1
   3    2    3 1
   4    3    4 2
   5    4    5 1
   6    4    9 1
   7    5    6 1
   8    5    7 2
   9    7    8 1
  10    7   10 1
