@<TRIPOS>MOLECULE
ZINC000004393145
89    89    1     0     0
SMALL
USER_CHARGES
@<TRIPOS>ATOM
1      C1      0.5386    1.3265   -0.0156 C.3      1 ZINC000004393145   -0.0600
2      N2      0.0207   -0.0467    0.0478 N.4      1 ZINC000004393145   -0.2700
3      C3      0.5070   -0.6975    1.2717 C.3      1 ZINC000004393145   -0.0400
4      C4     -1.4480   -0.0161    0.0600 C.3      1 ZINC000004393145   -0.0400
5      C5      0.4850   -0.7998   -1.1249 C.3      1 ZINC000004393145   -0.0100
6      C6      2.0115   -0.7312   -1.2034 C.3      1 ZINC000004393145    0.1000
7      O7      2.5777   -1.4543   -0.1086 O.3      1 ZINC000004393145   -0.7600
8      P8      4.1648   -1.5923    0.1240 P.3      1 ZINC000004393145    2.2100
9      O9      4.8232   -2.1719   -1.1478 O.co2    1 ZINC000004393145   -1.0900
10     O10     4.7640   -0.2005    0.4255 O.co2    1 ZINC000004393145   -1.0900
11     O11     4.4414   -2.5766    1.3677 O.3      1 ZINC000004393145   -0.7700
12     C12     5.7534   -2.9844    1.7606 C.3      1 ZINC000004393145    0.1300
13     C13     5.6571   -3.9141    2.9719 C.3      1 ZINC000004393145   -0.1200
14     C14     7.0618   -4.3508    3.3926 C.3      1 ZINC000004393145   -0.1200
15     C15     6.9655   -5.2806    4.6039 C.3      1 ZINC000004393145   -0.1200
16     C16     8.3702   -5.7173    5.0246 C.3      1 ZINC000004393145   -0.1200
17     C17     8.2738   -6.6470    6.2359 C.3      1 ZINC000004393145   -0.1200
18     C18     9.6785   -7.0837    6.6566 C.3      1 ZINC000004393145   -0.1200
19     C19     9.5822   -8.0134    7.8679 C.3      1 ZINC000004393145   -0.1200
20     C20    10.9869   -8.4501    8.2886 C.3      1 ZINC000004393145   -0.1200
21     C21    10.8906   -9.3798    9.4999 C.3      1 ZINC000004393145   -0.1200
22     C22    12.2953   -9.8165    9.9206 C.3      1 ZINC000004393145   -0.1200
23     C23    12.1990  -10.7462   11.1319 C.3      1 ZINC000004393145   -0.1200
24     C24    13.6037  -11.1829   11.5526 C.3      1 ZINC000004393145   -0.1200
25     C25    13.5074  -12.1127   12.7639 C.3      1 ZINC000004393145   -0.1200
26     C26    14.9121  -12.5494   13.1846 C.3      1 ZINC000004393145   -0.1200
27     C27    14.8158  -13.4791   14.3959 C.3      1 ZINC000004393145   -0.1200
28     C28    16.2205  -13.9158   14.8166 C.3      1 ZINC000004393145   -0.1100
29     C29    16.1241  -14.8455   16.0279 C.3      1 ZINC000004393145   -0.0900
30     C30    17.5077  -15.2756   16.4423 C.ar     1 ZINC000004393145   -0.0600
31     C31    18.0697  -16.4148   15.8968 C.ar     1 ZINC000004393145   -0.1100
32     C32    19.3387  -16.8096   16.2767 C.ar     1 ZINC000004393145   -0.0800
33     C33    20.0462  -16.0648   17.2026 C.ar     1 ZINC000004393145   -0.1000
34     I34    21.9699  -16.6624   17.7781 I        1 ZINC000004393145   -0.0400
35     C35    19.4838  -14.9252   17.7481 C.ar     1 ZINC000004393145   -0.0800
36     C36    18.2170  -14.5279   17.3636 C.ar     1 ZINC000004393145   -0.1100
37     H37     1.6283    1.3037   -0.0246 H        1 ZINC000004393145    0.1300
38     H38     0.1777    1.8093   -0.9237 H        1 ZINC000004393145    0.1200
39     H39     0.1941    1.8853    0.8546 H        1 ZINC000004393145    0.1200
40     H40     0.0212   -0.2501    2.1388 H        1 ZINC000004393145    0.1100
41     H41     0.2749   -1.7619    1.2341 H        1 ZINC000004393145    0.1200
42     H42     1.5859   -0.5635    1.3503 H        1 ZINC000004393145    0.1400
43     H43    -1.8088    0.4668   -0.8481 H        1 ZINC000004393145    0.1200
44     H44    -1.8323   -1.0350    0.1070 H        1 ZINC000004393145    0.1200
45     H45    -1.7925    0.5427    0.9301 H        1 ZINC000004393145    0.1200
46     H46     0.1722   -1.8402   -1.0358 H        1 ZINC000004393145    0.1300
47     H47     0.0549   -0.3671   -2.0282 H        1 ZINC000004393145    0.1400
48     H48     2.3472   -1.1717   -2.1422 H        1 ZINC000004393145    0.1000
49     H49     2.3313    0.3097   -1.1556 H        1 ZINC000004393145    0.0800
50     H50     6.2325   -3.5113    0.9354 H        1 ZINC000004393145    0.0600
51     H51     6.3437   -2.1063    2.0226 H        1 ZINC000004393145    0.0500
52     H52     5.1780   -3.3873    3.7971 H        1 ZINC000004393145    0.0700
53     H53     5.0668   -4.7922    2.7099 H        1 ZINC000004393145    0.0700
54     H54     7.5409   -4.8777    2.5674 H        1 ZINC000004393145    0.0700
55     H55     7.6520   -3.4727    3.6546 H        1 ZINC000004393145    0.0700
56     H56     6.4863   -4.7537    5.4291 H        1 ZINC000004393145    0.0600
57     H57     6.3752   -6.1587    4.3419 H        1 ZINC000004393145    0.0600
58     H58     8.8493   -6.2441    4.1994 H        1 ZINC000004393145    0.0600
59     H59     8.9604   -4.8392    5.2866 H        1 ZINC000004393145    0.0600
60     H60     7.7947   -6.1201    7.0611 H        1 ZINC000004393145    0.0600
61     H61     7.6836   -7.5251    5.9739 H        1 ZINC000004393145    0.0600
62     H62    10.1576   -7.6105    5.8314 H        1 ZINC000004393145    0.0600
63     H63    10.2688   -6.2056    6.9186 H        1 ZINC000004393145    0.0600
64     H64     9.1031   -7.4866    8.6931 H        1 ZINC000004393145    0.0600
65     H65     8.9920   -8.8915    7.6059 H        1 ZINC000004393145    0.0600
66     H66    11.4660   -8.9770    7.4634 H        1 ZINC000004393145    0.0600
67     H67    11.5772   -7.5720    8.5506 H        1 ZINC000004393145    0.0600
68     H68    10.4115   -8.8530   10.3251 H        1 ZINC000004393145    0.0600
69     H69    10.3003  -10.2579    9.2379 H        1 ZINC000004393145    0.0600
70     H70    12.7744  -10.3434    9.0954 H        1 ZINC000004393145    0.0600
71     H71    12.8856   -8.9384   10.1826 H        1 ZINC000004393145    0.0600
72     H72    11.7199  -10.2194   11.9571 H        1 ZINC000004393145    0.0600
73     H73    11.6087  -11.6243   10.8699 H        1 ZINC000004393145    0.0600
74     H74    14.0828  -11.7098   10.7274 H        1 ZINC000004393145    0.0600
75     H75    14.1940  -10.3048   11.8146 H        1 ZINC000004393145    0.0600
76     H76    13.0283  -11.5858   13.5891 H        1 ZINC000004393145    0.0600
77     H77    12.9171  -12.9908   12.5019 H        1 ZINC000004393145    0.0600
78     H78    15.3912  -13.0762   12.3594 H        1 ZINC000004393145    0.0600
79     H79    15.5023  -11.6713   13.4466 H        1 ZINC000004393145    0.0600
80     H80    14.3366  -12.9522   15.2211 H        1 ZINC000004393145    0.0600
81     H81    14.2255  -14.3572   14.1339 H        1 ZINC000004393145    0.0600
82     H82    16.6996  -14.4426   13.9914 H        1 ZINC000004393145    0.0600
83     H83    16.8107  -13.0377   15.0786 H        1 ZINC000004393145    0.0600
84     H84    15.6450  -14.3187   16.8531 H        1 ZINC000004393145    0.0800
85     H85    15.5339  -15.7236   15.7659 H        1 ZINC000004393145    0.0800
86     H86    17.5169  -16.9966   15.1740 H        1 ZINC000004393145    0.1300
87     H87    19.7775  -17.6997   15.8507 H        1 ZINC000004393145    0.1300
88     H88    20.0359  -14.3436   18.4715 H        1 ZINC000004393145    0.1300
89     H89    17.7777  -13.6379   17.7896 H        1 ZINC000004393145    0.1300
@<TRIPOS>BOND
1     1     2     1
2     1     37    1
3     1     38    1
4     1     39    1
5     2     3     1
6     2     4     1
7     2     5     1
8     3     40    1
9     3     41    1
10    3     42    1
11    4     43    1
12    4     44    1
13    4     45    1
14    5     6     1
15    5     46    1
16    5     47    1
17    6     7     1
18    6     48    1
19    6     49    1
20    7     8     1
21    8     9     ar
22    8     10    ar
23    8     11    1
24    11    12    1
25    12    13    1
26    12    50    1
27    12    51    1
28    13    14    1
29    13    52    1
30    13    53    1
31    14    15    1
32    14    54    1
33    14    55    1
34    15    16    1
35    15    56    1
36    15    57    1
37    16    17    1
38    16    58    1
39    16    59    1
40    17    18    1
41    17    60    1
42    17    61    1
43    18    19    1
44    18    62    1
45    18    63    1
46    19    20    1
47    19    64    1
48    19    65    1
49    20    21    1
50    20    66    1
51    20    67    1
52    21    22    1
53    21    68    1
54    21    69    1
55    22    23    1
56    22    70    1
57    22    71    1
58    23    24    1
59    23    72    1
60    23    73    1
61    24    25    1
62    24    74    1
63    24    75    1
64    25    26    1
65    25    76    1
66    25    77    1
67    26    27    1
68    26    78    1
69    26    79    1
70    27    28    1
71    27    80    1
72    27    81    1
73    28    29    1
74    28    82    1
75    28    83    1
76    29    30    1
77    29    84    1
78    29    85    1
79    30    36    ar
80    30    31    ar
81    31    32    ar
82    31    86    1
83    32    33    ar
84    32    87    1
85    33    34    1
86    33    35    ar
87    35    36    ar
88    35    88    1
89    36    89    1
@<TRIPOS>SUBSTRUCTURE
1   ZINC000004393145 1     RESIDUE    1   A     ZIN   1
