@<TRIPOS>MOLECULE
ZINC000029134440
57    60    1     0     0
SMALL
USER_CHARGES
@<TRIPOS>ATOM
1      C1      1.8404    0.5135    2.2129 C.3      1 ZINC000029134440   -0.1000
2      C2      1.2472   -0.6995    1.5438 C.2      1 ZINC000029134440    0.0900
3      C3      1.9539   -1.7085    1.0111 C.2      1 ZINC000029134440   -0.1900
4      C4      0.9889   -2.6697    0.4710 C.ar     1 ZINC000029134440   -0.1300
5      C5      1.1073   -3.8949   -0.1906 C.ar     1 ZINC000029134440    0.1600
6      F6      2.3279   -4.4140   -0.4470 F        1 ZINC000029134440   -0.1300
7      C7     -0.0333   -4.5729   -0.5807 C.ar     1 ZINC000029134440    0.0100
8      O8      0.0746   -5.7660   -1.2251 O.3      1 ZINC000029134440   -0.2100
9      C9      0.1974   -6.8851   -0.4738 C.2      1 ZINC000029134440    0.4700
10     N10     0.1959   -6.8079    0.8450 N.2      1 ZINC000029134440   -0.6000
11     C11     0.3152   -7.8927    1.6087 C.2      1 ZINC000029134440    0.3300
12     N12     0.4403   -9.0895    1.1041 N.2      1 ZINC000029134440   -0.3300
13     N13     0.4521   -9.2658   -0.2867 N.pl3    1 ZINC000029134440   -0.2300
14     C14     0.5644  -10.3557   -1.0813 C.2      1 ZINC000029134440   -0.0100
15     C15     0.5155   -9.9603   -2.3847 C.2      1 ZINC000029134440    0.0500
16     O16     0.5962  -10.7746   -3.4728 O.3      1 ZINC000029134440   -0.2800
17     C17     0.7466  -12.1741   -3.2259 C.3      1 ZINC000029134440    0.0600
18     C18     0.8189  -12.9222   -4.5586 C.3      1 ZINC000029134440    0.1000
19     H19     0.8442  -13.9957   -4.3718 H        1 ZINC000029134440    0.1100
20     C20    -0.4105  -12.5802   -5.4028 C.3      1 ZINC000029134440   -0.1700
21     O21     2.0206  -12.5265   -5.2712 O.3      1 ZINC000029134440   -0.3200
22     C22     2.5765  -13.4398   -6.0827 C.2      1 ZINC000029134440    0.4500
23     O23     2.0756  -14.5337   -6.1939 O.2      1 ZINC000029134440   -0.4900
24     C24     3.8254  -13.1009   -6.8550 C.3      1 ZINC000029134440    0.0400
25     H25     4.6247  -12.8454   -6.1594 H        1 ZINC000029134440    0.1800
26     C26     3.5490  -11.9093   -7.7741 C.3      1 ZINC000029134440   -0.1800
27     N27     4.2308  -14.2588   -7.6630 N.4      1 ZINC000029134440   -0.6200
28     H28     3.4909  -14.4952   -8.3069 H        1 ZINC000029134440    0.4400
29     H29     5.0670  -14.0319   -8.1801 H        1 ZINC000029134440    0.4500
30     H30     4.4131  -15.0446   -7.0568 H        1 ZINC000029134440    0.4400
31     C31     0.3670   -8.5703   -2.4064 C.2      1 ZINC000029134440   -0.0800
32     C32     0.2677   -7.6982   -3.6313 C.3      1 ZINC000029134440   -0.0800
33     C33     0.3228   -8.1486   -1.0904 C.2      1 ZINC000029134440   -0.0600
34     C34    -1.2912   -4.0392   -0.3159 C.ar     1 ZINC000029134440   -0.0600
35     C35    -1.4186   -2.8321    0.3352 C.ar     1 ZINC000029134440   -0.1200
36     C36    -0.2842   -2.1341    0.7359 C.ar     1 ZINC000029134440    0.1400
37     N37    -0.0923   -0.9382    1.3946 N.pl3    1 ZINC000029134440   -0.5900
38     H38     1.9701    0.3147    3.2767 H        1 ZINC000029134440    0.0800
39     H39     2.8082    0.7388    1.7648 H        1 ZINC000029134440    0.0900
40     H40     1.1721    1.3644    2.0812 H        1 ZINC000029134440    0.0700
41     H41     3.0301   -1.7951    0.9849 H        1 ZINC000029134440    0.1500
42     H42     0.3084   -7.7777    2.6826 H        1 ZINC000029134440    0.2300
43     H43     0.6748  -11.3738   -0.7382 H        1 ZINC000029134440    0.1800
44     H44     1.6632  -12.3471   -2.6620 H        1 ZINC000029134440    0.0800
45     H45    -0.1067  -12.5356   -2.6522 H        1 ZINC000029134440    0.0900
46     H46    -0.3590  -13.1131   -6.3522 H        1 ZINC000029134440    0.0600
47     H47    -1.3125  -12.8773   -4.8679 H        1 ZINC000029134440    0.0900
48     H48    -0.4358  -11.5066   -5.5896 H        1 ZINC000029134440    0.0900
49     H49     4.4523  -11.6642   -8.3327 H        1 ZINC000029134440    0.1000
50     H50     2.7497  -12.1648   -8.4698 H        1 ZINC000029134440    0.0900
51     H51     3.2481  -11.0501   -7.1746 H        1 ZINC000029134440    0.1200
52     H52    -0.7780   -7.5973   -3.9217 H        1 ZINC000029134440    0.0700
53     H53     0.6801   -6.7136   -3.4107 H        1 ZINC000029134440    0.0700
54     H54     0.8293   -8.1527   -4.4475 H        1 ZINC000029134440    0.0700
55     H55    -2.1758   -4.5766   -0.6243 H        1 ZINC000029134440    0.1400
56     H56    -2.3999   -2.4275    0.5349 H        1 ZINC000029134440    0.1400
57     H57    -0.8008   -0.3530    1.7052 H        1 ZINC000029134440    0.4200
@<TRIPOS>BOND
1     1     2     1
2     1     38    1
3     1     39    1
4     1     40    1
5     2     37    1
6     2     3     2
7     3     4     1
8     3     41    1
9     4     36    ar
10    4     5     ar
11    5     6     1
12    5     7     ar
13    7     8     1
14    7     34    ar
15    8     9     1
16    9     33    1
17    9     10    2
18    10    11    1
19    11    12    2
20    11    42    1
21    12    13    1
22    13    33    1
23    13    14    1
24    14    15    2
25    14    43    1
26    15    16    1
27    15    31    1
28    16    17    1
29    17    18    1
30    17    44    1
31    17    45    1
32    18    19    1
33    18    20    1
34    18    21    1
35    20    46    1
36    20    47    1
37    20    48    1
38    21    22    1
39    22    23    2
40    22    24    1
41    24    25    1
42    24    26    1
43    24    27    1
44    26    49    1
45    26    50    1
46    26    51    1
47    27    28    1
48    27    29    1
49    27    30    1
50    31    32    1
51    31    33    2
52    32    52    1
53    32    53    1
54    32    54    1
55    34    35    ar
56    34    55    1
57    35    36    ar
58    35    56    1
59    36    37    1
60    37    57    1
@<TRIPOS>SUBSTRUCTURE
1   ZINC000029134440 1     RESIDUE    1   A     ZIN   1




