@<TRIPOS>MOLECULE
ZINC000003946366
100   101   1     0     0
SMALL
USER_CHARGES
@<TRIPOS>ATOM
1      C1      0.2238    1.2880   -0.3082 C.3      1 ZINC000003946366    0.0300
2      O2      0.8129   -0.0131   -0.2620 O.3      1 ZINC000003946366   -0.3900
3      C3     -0.0067   -1.0423   -0.8197 C.3      1 ZINC000003946366    0.0500
4      C4      0.7201   -2.3847   -0.7171 C.3      1 ZINC000003946366    0.1200
5      N5      0.8863   -2.7434    0.6936 N.am     1 ZINC000003946366   -0.7200
6      C6      1.5040   -3.8936    1.0282 C.2      1 ZINC000003946366    0.5100
7      O7      1.8407   -4.6748    0.1637 O.2      1 ZINC000003946366   -0.5300
8      C8      1.7764   -4.2090    2.4764 C.3      1 ZINC000003946366    0.1300
9      H9      1.0011   -3.7609    3.0979 H        1 ZINC000003946366    0.1100
10     N10     1.7770   -5.6614    2.6681 N.am     1 ZINC000003946366   -0.7100
11     C11     1.3677   -6.1867    3.8399 C.2      1 ZINC000003946366    0.5300
12     O12     0.8903   -5.4684    4.6926 O.2      1 ZINC000003946366   -0.5400
13     C13     1.5032   -7.6665    4.0906 C.3      1 ZINC000003946366   -0.0900
14     H14     2.4275   -8.0282    3.6400 H        1 ZINC000003946366    0.0900
15     C15     0.3123   -8.4000    3.4705 C.3      1 ZINC000003946366   -0.0700
16     C16     0.3014   -8.1707    1.9811 C.ar     1 ZINC000003946366   -0.1400
17     C17    -0.4531   -7.1435    1.4465 C.ar     1 ZINC000003946366   -0.0600
18     C18    -0.4665   -6.9290    0.0808 C.ar     1 ZINC000003946366   -0.1900
19     C19     0.2770   -7.7446   -0.7583 C.ar     1 ZINC000003946366    0.1300
20     O20     0.2631   -7.5328   -2.1016 O.3      1 ZINC000003946366   -0.3000
21     C21    -0.5399   -6.4518   -2.5796 C.3      1 ZINC000003946366    0.0300
22     C22     1.0371   -8.7788   -0.2246 C.ar     1 ZINC000003946366    0.0500
23     O23     1.7687   -9.5814   -1.0449 O.3      1 ZINC000003946366   -0.3200
24     C24     3.1385   -9.2275   -1.2458 C.3      1 ZINC000003946366    0.0400
25     C25     1.0527   -8.9873    1.1491 C.ar     1 ZINC000003946366    0.1200
26     O26     1.7948   -9.9978    1.6761 O.3      1 ZINC000003946366   -0.3300
27     C27     1.1563  -11.2691    1.8116 C.3      1 ZINC000003946366    0.0400
28     C28     1.5344   -7.9276    5.5979 C.3      1 ZINC000003946366   -0.1300
29     C29     1.8063   -9.4115    5.8528 C.3      1 ZINC000003946366    0.1000
30     H30     2.7053   -9.7138    5.3156 H        1 ZINC000003946366    0.1200
31     O31     0.6952  -10.1849    5.3951 O.3      1 ZINC000003946366   -0.5500
32     C32     2.0060   -9.6432    7.3519 C.3      1 ZINC000003946366    0.1300
33     H33     2.8732   -9.0787    7.6945 H        1 ZINC000003946366    0.1100
34     C34     2.2325  -11.1338    7.6119 C.3      1 ZINC000003946366   -0.0900
35     C35     2.5507  -11.3469    9.0694 C.ar     1 ZINC000003946366   -0.0800
36     C36     3.8622  -11.3027    9.5042 C.ar     1 ZINC000003946366   -0.1100
37     C37     4.1541  -11.4981   10.8412 C.ar     1 ZINC000003946366   -0.1200
38     C38     3.1345  -11.7373   11.7435 C.ar     1 ZINC000003946366   -0.1200
39     C39     1.8229  -11.7806   11.3088 C.ar     1 ZINC000003946366   -0.1200
40     C40     1.5307  -11.5809    9.9725 C.ar     1 ZINC000003946366   -0.1100
41     N41     0.8146   -9.1964    8.0780 N.am     1 ZINC000003946366   -0.7100
42     C42     0.8973   -8.1602    8.9358 C.2      1 ZINC000003946366    0.6600
43     O43     1.9362   -7.5385    9.0392 O.2      1 ZINC000003946366   -0.5600
44     O44    -0.1711   -7.8138    9.6782 O.3      1 ZINC000003946366   -0.3600
45     C45    -0.0098   -6.6877   10.5805 C.3      1 ZINC000003946366    0.1400
46     C46     0.3548   -5.4381    9.7766 C.3      1 ZINC000003946366   -0.1800
47     C47    -1.3196   -6.4457   11.3334 C.3      1 ZINC000003946366   -0.1400
48     C48     1.1055   -6.9929   11.5825 C.3      1 ZINC000003946366   -0.1800
49     C49     3.1404   -3.6415    2.8742 C.3      1 ZINC000003946366   -0.1000
50     C50     3.1569   -2.1320    2.6253 C.3      1 ZINC000003946366   -0.1500
51     C51     3.3942   -3.9166    4.3577 C.3      1 ZINC000003946366   -0.1400
52     H52     0.9078    2.0125    0.1340 H        1 ZINC000003946366    0.0900
53     H53     0.0260    1.5607   -1.3448 H        1 ZINC000003946366    0.0400
54     H54    -0.7118    1.2833    0.2511 H        1 ZINC000003946366    0.0400
55     H55    -0.9470   -1.0953   -0.2710 H        1 ZINC000003946366    0.0600
56     H56    -0.2092   -0.8179   -1.8670 H        1 ZINC000003946366    0.0700
57     H57     0.1352   -3.1541   -1.2211 H        1 ZINC000003946366    0.0800
58     H58     1.6992   -2.3049   -1.1895 H        1 ZINC000003946366    0.0800
59     H59     0.5518   -2.1531    1.3868 H        1 ZINC000003946366    0.4000
60     H60     2.0720   -6.2451    1.9517 H        1 ZINC000003946366    0.4100
61     H61     0.3976   -9.4676    3.6731 H        1 ZINC000003946366    0.1200
62     H62    -0.6134   -8.0208    3.9033 H        1 ZINC000003946366    0.0700
63     H63    -1.0339   -6.5068    2.0974 H        1 ZINC000003946366    0.1200
64     H64    -1.0574   -6.1252   -0.3330 H        1 ZINC000003946366    0.1300
65     H65    -0.4616   -6.3934   -3.6652 H        1 ZINC000003946366    0.1000
66     H66    -1.5796   -6.6196   -2.2988 H        1 ZINC000003946366    0.0500
67     H67    -0.1909   -5.5176   -2.1394 H        1 ZINC000003946366    0.0600
68     H68     3.6795   -9.3195   -0.3040 H        1 ZINC000003946366    0.0500
69     H69     3.5813   -9.8943   -1.9857 H        1 ZINC000003946366    0.0900
70     H70     3.1997   -8.1988   -1.6010 H        1 ZINC000003946366    0.0500
71     H71     0.2351  -11.1539    2.3827 H        1 ZINC000003946366    0.0500
72     H72     0.9241  -11.6662    0.8235 H        1 ZINC000003946366    0.0500
73     H73     1.8229  -11.9568    2.3321 H        1 ZINC000003946366    0.0900
74     H74     2.3238   -7.3300    6.0539 H        1 ZINC000003946366    0.0800
75     H75     0.5737   -7.6541    6.0340 H        1 ZINC000003946366    0.0800
76     H76    -0.1247  -10.0210    5.8809 H        1 ZINC000003946366    0.3700
77     H77     1.3314  -11.6891    7.3518 H        1 ZINC000003946366    0.0900
78     H78     3.0650  -11.4864    7.0030 H        1 ZINC000003946366    0.0900
79     H79     4.6588  -11.1158    8.7993 H        1 ZINC000003946366    0.1200
80     H80     5.1787  -11.4643   11.1808 H        1 ZINC000003946366    0.1200
81     H81     3.3626  -11.8907   12.7879 H        1 ZINC000003946366    0.1200
82     H82     1.0264  -11.9678   12.0137 H        1 ZINC000003946366    0.1200
83     H83     0.5060  -11.6147    9.6330 H        1 ZINC000003946366    0.1200
84     H84    -0.0338   -9.6464    7.9415 H        1 ZINC000003946366    0.4000
85     H85    -0.4398   -5.2207    9.0627 H        1 ZINC000003946366    0.0600
86     H86     0.4759   -4.5928   10.4540 H        1 ZINC000003946366    0.0700
87     H87     1.2879   -5.6105    9.2402 H        1 ZINC000003946366    0.0900
88     H88    -1.5793   -7.3360   11.9061 H        1 ZINC000003946366    0.0700
89     H89    -1.1985   -5.6004   12.0108 H        1 ZINC000003946366    0.0800
90     H90    -2.1141   -6.2283   10.6195 H        1 ZINC000003946366    0.0700
91     H91     2.0386   -7.1653   11.0462 H        1 ZINC000003946366    0.0900
92     H92     1.2266   -6.1475   12.2599 H        1 ZINC000003946366    0.0700
93     H93     0.8458   -7.8831   12.1553 H        1 ZINC000003946366    0.0600
94     H94     3.9195   -4.1166    2.2781 H        1 ZINC000003946366    0.0800
95     H95     2.3013   -1.6727    3.1203 H        1 ZINC000003946366    0.0600
96     H96     4.0783   -1.7080    3.0246 H        1 ZINC000003946366    0.0600
97     H97     3.1030   -1.9398    1.5538 H        1 ZINC000003946366    0.0600
98     H98     3.3824   -4.9920    4.5351 H        1 ZINC000003946366    0.0500
99     H99     4.3660   -3.5122    4.6411 H        1 ZINC000003946366    0.0600
100    H100    2.6151   -3.4415    4.9539 H        1 ZINC000003946366    0.0600
@<TRIPOS>BOND
1     1     2     1
2     1     52    1
3     1     53    1
4     1     54    1
5     2     3     1
6     3     4     1
7     3     55    1
8     3     56    1
9     4     5     1
10    4     57    1
11    4     58    1
12    5     6     am
13    5     59    1
14    6     7     2
15    6     8     1
16    8     9     1
17    8     10    1
18    8     49    1
19    10    11    am
20    10    60    1
21    11    12    2
22    11    13    1
23    13    14    1
24    13    15    1
25    13    28    1
26    15    16    1
27    15    61    1
28    15    62    1
29    16    25    ar
30    16    17    ar
31    17    18    ar
32    17    63    1
33    18    19    ar
34    18    64    1
35    19    20    1
36    19    22    ar
37    20    21    1
38    21    65    1
39    21    66    1
40    21    67    1
41    22    23    1
42    22    25    ar
43    23    24    1
44    24    68    1
45    24    69    1
46    24    70    1
47    25    26    1
48    26    27    1
49    27    71    1
50    27    72    1
51    27    73    1
52    28    29    1
53    28    74    1
54    28    75    1
55    29    30    1
56    29    31    1
57    29    32    1
58    31    76    1
59    32    33    1
60    32    34    1
61    32    41    1
62    34    35    1
63    34    77    1
64    34    78    1
65    35    40    ar
66    35    36    ar
67    36    37    ar
68    36    79    1
69    37    38    ar
70    37    80    1
71    38    39    ar
72    38    81    1
73    39    40    ar
74    39    82    1
75    40    83    1
76    41    42    am
77    41    84    1
78    42    43    2
79    42    44    1
80    44    45    1
81    45    46    1
82    45    47    1
83    45    48    1
84    46    85    1
85    46    86    1
86    46    87    1
87    47    88    1
88    47    89    1
89    47    90    1
90    48    91    1
91    48    92    1
92    48    93    1
93    49    50    1
94    49    51    1
95    49    94    1
96    50    95    1
97    50    96    1
98    50    97    1
99    51    98    1
100   51    99    1
101   51    100   1
@<TRIPOS>SUBSTRUCTURE
1   ZINC000003946366 1     RESIDUE    1   A     ZIN   1
