@<TRIPOS>MOLECULE
ZINC000002568243
  34   36    0    0    0
SMALL
USER_CHARGES
NO_NAME
@<TRIPOS>ATOM
    1 C1       -0.0173     1.4248     0.0099 C.3    1 <0>       0.0300
    2 O2        0.0021    -0.0041     0.0020 O.3    1 <0>      -0.3200
    3 C3        0.6062    -0.6075    -1.0564 C.ar   1 <0>       0.1200
    4 C4        1.1741     0.1661    -2.0645 C.ar   1 <0>      -0.1800
    5 C5        1.7895    -0.4300    -3.1429 C.ar   1 <0>      -0.0800
    6 C6        1.8475    -1.8170    -3.2315 C.ar   1 <0>       0.0600
    7 N7        2.3823    -2.6814    -4.1652 N.pl3  1 <0>      -0.5800
    8 C8        2.1730    -3.9744    -3.7839 C.2    1 <0>       0.1000
    9 C9        1.5029    -4.0015    -2.6030 C.2    1 <0>      -0.1900
   10 C10       1.0843    -5.2027    -1.8545 C.2    1 <0>       0.0000
   11 C11       1.7498    -5.5384    -0.7685 C.2    1 <0>      -0.2000
   12 C12       1.4071    -6.7437     0.0589 C.3    1 <0>       0.0400
   13 N13       0.0440    -7.1982    -0.2391 N.4    1 <0>      -0.5100
   14 H14      -0.1290    -8.0758     0.2277 H      1 <0>       0.4300
   15 H15      -0.6194    -6.5088     0.0813 H      1 <0>       0.4300
   16 C16      -0.0938    -7.3784    -1.6930 C.3    1 <0>       0.0000
   17 C17      -0.0908    -5.9965    -2.3555 C.3    1 <0>      -0.1200
   18 C18       1.2747    -2.5992    -2.2147 C.ar   1 <0>      -0.0500
   19 C19       0.6592    -1.9865    -1.1247 C.ar   1 <0>      -0.1300
   20 H20       1.0053     1.8021     0.0021 H      1 <0>       0.0600
   21 H21      -0.5445     1.7859    -0.8732 H      1 <0>       0.0600
   22 H22      -0.5275     1.7763     0.9067 H      1 <0>       0.1000
   23 H23       1.1315     1.2434    -2.0007 H      1 <0>       0.1400
   24 H24       2.2267     0.1794    -3.9199 H      1 <0>       0.1300
   25 H25       2.8406    -2.4089    -4.9755 H      1 <0>       0.4200
   26 H26       2.4918    -4.8450    -4.3377 H      1 <0>       0.1800
   27 H27       2.5791    -4.9194    -0.4595 H      1 <0>       0.1500
   28 H28       2.1112    -7.5456    -0.1634 H      1 <0>       0.1400
   29 H29       1.4788    -6.4876     1.1159 H      1 <0>       0.1400
   30 H30       0.7406    -7.9704    -2.0690 H      1 <0>       0.1300
   31 H31      -1.0335    -7.8857    -1.9114 H      1 <0>       0.1400
   32 H32      -1.0178    -5.4763    -2.1142 H      1 <0>       0.1100
   33 H33      -0.0106    -6.1123    -3.4364 H      1 <0>       0.1200
   34 H34       0.2238    -2.5862    -0.3391 H      1 <0>       0.1300
@<TRIPOS>BOND
   1    1    2 1
   2    1   20 1
   3    1   21 1
   4    1   22 1
   5    2    3 1
   6    3   19 ar
   7    3    4 ar
   8    4    5 ar
   9    4   23 1
  10    5    6 ar
  11    5   24 1
  12    6   18 ar
  13    6    7 1
  14    7    8 1
  15    7   25 1
  16    8    9 2
  17    8   26 1
  18    9   10 1
  19    9   18 1
  20   10   17 1
  21   10   11 2
  22   11   12 1
  23   11   27 1
  24   12   13 1
  25   12   28 1
  26   12   29 1
  27   13   14 1
  28   13   15 1
  29   13   16 1
  30   16   17 1
  31   16   30 1
  32   16   31 1
  33   17   32 1
  34   17   33 1
  35   18   19 ar
  36   19   34 1
