@<TRIPOS>MOLECULE
ZINC000005425464
29    31    1     0     0
SMALL
USER_CHARGES
@<TRIPOS>ATOM
1      N1     -0.0167    1.3817    0.0096 N.pl3    1 ZINC000005425464   -0.8200
2      C2      0.0021   -0.0041    0.0020 C.ar     1 ZINC000005425464    0.6100
3      N3     -1.1515   -0.6601    0.0041 N.ar     1 ZINC000005425464   -0.6100
4      C4     -1.1850   -1.9879   -0.0030 C.ar     1 ZINC000005425464    0.4500
5      O5     -2.3677   -2.6496   -0.0012 O.3      1 ZINC000005425464   -0.3000
6      C6     -3.5555   -1.8551    0.0084 C.3      1 ZINC000005425464    0.1100
7      C7     -4.7629   -2.7568    0.0090 C.ar     1 ZINC000005425464   -0.1000
8      C8     -5.3187   -3.1685   -1.1879 C.ar     1 ZINC000005425464   -0.0900
9      C9     -6.4263   -3.9956   -1.1874 C.ar     1 ZINC000005425464   -0.1200
10     C10    -6.9778   -4.4115    0.0100 C.ar     1 ZINC000005425464   -0.1100
11     C11    -6.4215   -4.0006    1.2069 C.ar     1 ZINC000005425464   -0.1200
12     C12    -5.3114   -3.1769    1.2064 C.ar     1 ZINC000005425464   -0.0900
13     C13     0.0207   -2.6872   -0.0126 C.ar     1 ZINC000005425464   -0.1300
14     N14     0.3795   -4.0209   -0.0216 N.pl3    1 ZINC000005425464   -0.5700
15     C15     1.7303   -4.0700   -0.0285 C.2      1 ZINC000005425464    0.3100
16     N16     2.2235   -2.8628   -0.0244 N.2      1 ZINC000005425464   -0.5000
17     C17     1.2237   -1.9612   -0.0146 C.ar     1 ZINC000005425464    0.3600
18     N18     1.1680   -0.6258   -0.0125 N.ar     1 ZINC000005425464   -0.5600
19     H19     0.8166    1.8781    0.0043 H        1 ZINC000005425464    0.4200
20     H20    -0.8633    1.8552    0.0162 H        1 ZINC000005425464    0.4200
21     H21    -3.5678   -1.2309    0.9019 H        1 ZINC000005425464    0.0800
22     H22    -3.5758   -1.2212   -0.8780 H        1 ZINC000005425464    0.0800
23     H23    -4.8878   -2.8436   -2.1234 H        1 ZINC000005425464    0.1200
24     H24    -6.8609   -4.3166   -2.1225 H        1 ZINC000005425464    0.1300
25     H25    -7.8436   -5.0571    0.0104 H        1 ZINC000005425464    0.1300
26     H26    -6.8526   -4.3252    2.1424 H        1 ZINC000005425464    0.1300
27     H27    -4.8767   -2.8559    2.1415 H        1 ZINC000005425464    0.1200
28     H28    -0.2245   -4.7798   -0.0223 H        1 ZINC000005425464    0.4300
29     H29     2.3161   -4.9774   -0.0363 H        1 ZINC000005425464    0.2300
@<TRIPOS>BOND
1     1     2     1
2     1     19    1
3     1     20    1
4     2     18    ar
5     2     3     ar
6     3     4     ar
7     4     5     1
8     4     13    ar
9     5     6     1
10    6     7     1
11    6     21    1
12    6     22    1
13    7     12    ar
14    7     8     ar
15    8     9     ar
16    8     23    1
17    9     10    ar
18    9     24    1
19    10    11    ar
20    10    25    1
21    11    12    ar
22    11    26    1
23    12    27    1
24    13    17    ar
25    13    14    1
26    14    15    1
27    14    28    1
28    15    16    2
29    15    29    1
30    16    17    1
31    17    18    ar
@<TRIPOS>SUBSTRUCTURE
1   ZINC000005425464 1     RESIDUE    1   A     ZIN   1
