@<TRIPOS>MOLECULE
ZINC000003806126
53    56    1     0     0
SMALL
USER_CHARGES
@<TRIPOS>ATOM
1      C1     -5.9405    6.9307    4.0782 C.3      1 ZINC000003806126   -0.1500
2      C2     -6.5260    5.9339    3.0760 C.3      1 ZINC000003806126   -0.1200
3      C3     -5.6532    4.6780    3.0366 C.3      1 ZINC000003806126   -0.0300
4      C4     -6.2926    3.6498    2.1394 C.2      1 ZINC000003806126    0.1800
5      N5     -7.2232    2.8037    2.5024 N.2      1 ZINC000003806126   -0.5000
6      C6     -7.5606    2.0335    1.4694 C.2      1 ZINC000003806126    0.0200
7      C7     -8.5903    0.9332    1.4781 C.3      1 ZINC000003806126   -0.0300
8      C8     -7.9202   -0.3894    1.8557 C.3      1 ZINC000003806126   -0.1300
9      C9     -6.7968    2.4265    0.3901 C.2      1 ZINC000003806126   -0.0600
10     C10    -6.8259    1.8632   -0.9593 C.2      1 ZINC000003806126    0.5600
11     O11    -6.0879    2.3133   -1.8268 O.co2    1 ZINC000003806126   -0.6800
12     O12    -7.5883    0.9413   -1.2217 O.co2    1 ZINC000003806126   -0.6800
13     N13    -5.9985    3.4617    0.8420 N.pl3    1 ZINC000003806126   -0.4100
14     C14    -5.0132    4.2082    0.0557 C.3      1 ZINC000003806126    0.1500
15     C15    -3.6531    3.5832    0.2307 C.ar     1 ZINC000003806126   -0.0900
16     C16    -3.2895    2.4965   -0.5442 C.ar     1 ZINC000003806126   -0.1100
17     C17    -2.0457    1.9194   -0.3879 C.ar     1 ZINC000003806126   -0.1100
18     C18    -1.1549    2.4340    0.5530 C.ar     1 ZINC000003806126   -0.0500
19     C19     0.1823    1.8184    0.7261 C.ar     1 ZINC000003806126   -0.0300
20     C20     0.3026    0.4420    0.8945 C.ar     1 ZINC000003806126   -0.1100
21     C21     1.5505   -0.1280    1.0501 C.ar     1 ZINC000003806126   -0.1400
22     C22     2.6877    0.6614    1.0400 C.ar     1 ZINC000003806126   -0.1300
23     C23     2.5876    2.0279    0.8738 C.ar     1 ZINC000003806126   -0.1100
24     C24     1.3364    2.6203    0.7153 C.ar     1 ZINC000003806126    0.0500
25     C25     1.2235    4.0837    0.5368 C.2      1 ZINC000003806126    0.0700
26     N26     0.0996    4.7836    0.3690 N.2      1 ZINC000003806126   -0.3400
27     N27     0.4298    6.0243    0.2528 N.2      1 ZINC000003806126   -0.1900
28     N28     1.7097    6.1327    0.3323 N.2      1 ZINC000003806126   -0.2000
29     N29     2.2260    4.9642    0.5061 N.pl3    1 ZINC000003806126   -0.3700
30     C30    -1.5288    3.5264    1.3345 C.ar     1 ZINC000003806126    0.0000
31     C31    -2.7734    4.0981    1.1658 C.ar     1 ZINC000003806126   -0.1200
32     H32    -5.9127    6.4763    5.0686 H        1 ZINC000003806126    0.0500
33     H33    -4.9292    7.2005    3.7737 H        1 ZINC000003806126    0.0600
34     H34    -6.5623    7.8255    4.1063 H        1 ZINC000003806126    0.0500
35     H35    -6.5538    6.3883    2.0857 H        1 ZINC000003806126    0.0600
36     H36    -7.5373    5.6641    3.3805 H        1 ZINC000003806126    0.0700
37     H37    -5.5557    4.2715    4.0432 H        1 ZINC000003806126    0.0800
38     H38    -4.6662    4.9334    2.6508 H        1 ZINC000003806126    0.0800
39     H39    -9.3668    1.1680    2.2061 H        1 ZINC000003806126    0.0500
40     H40    -9.0359    0.8448    0.4873 H        1 ZINC000003806126    0.0900
41     H41    -8.6650   -1.1853    1.8620 H        1 ZINC000003806126    0.0400
42     H42    -7.1437   -0.6242    1.1277 H        1 ZINC000003806126    0.0600
43     H43    -7.4746   -0.3010    2.8465 H        1 ZINC000003806126    0.0400
44     H44    -4.9842    5.2429    0.3974 H        1 ZINC000003806126    0.0800
45     H45    -5.2928    4.1810   -0.9974 H        1 ZINC000003806126    0.1200
46     H46    -3.9804    2.0987   -1.2728 H        1 ZINC000003806126    0.1400
47     H47    -1.7629    1.0710   -0.9934 H        1 ZINC000003806126    0.1100
48     H48    -0.5801   -0.1800    0.9037 H        1 ZINC000003806126    0.1200
49     H49     1.6399   -1.1963    1.1809 H        1 ZINC000003806126    0.1100
50     H50     3.6589    0.2054    1.1633 H        1 ZINC000003806126    0.1100
51     H51     3.4788    2.6380    0.8673 H        1 ZINC000003806126    0.1300
52     H52    -0.8444    3.9265    2.0680 H        1 ZINC000003806126    0.1100
53     H53    -3.0627    4.9467    1.7680 H        1 ZINC000003806126    0.1100
@<TRIPOS>BOND
1     1     2     1
2     1     32    1
3     1     33    1
4     1     34    1
5     2     3     1
6     2     35    1
7     2     36    1
8     3     4     1
9     3     37    1
10    3     38    1
11    4     13    1
12    4     5     2
13    5     6     1
14    6     7     1
15    6     9     2
16    7     8     1
17    7     39    1
18    7     40    1
19    8     41    1
20    8     42    1
21    8     43    1
22    9     10    1
23    9     13    1
24    10    11    ar
25    10    12    ar
26    13    14    1
27    14    15    1
28    14    44    1
29    14    45    1
30    15    31    ar
31    15    16    ar
32    16    17    ar
33    16    46    1
34    17    18    ar
35    17    47    1
36    18    19    1
37    18    30    ar
38    19    24    ar
39    19    20    ar
40    20    21    ar
41    20    48    1
42    21    22    ar
43    21    49    1
44    22    23    ar
45    22    50    1
46    23    24    ar
47    23    51    1
48    24    25    1
49    25    29    1
50    25    26    2
51    26    27    1
52    27    28    2
53    28    29    1
54    30    31    ar
55    30    52    1
56    31    53    1
@<TRIPOS>SUBSTRUCTURE
1   ZINC000003806126 1     RESIDUE    1   A     ZIN   1
