@<TRIPOS>MOLECULE
ZINC000118274793
43    43    1     0     0
SMALL
USER_CHARGES
@<TRIPOS>ATOM
1      C1     -0.0187    1.5258    0.0104 C.3      1 ZINC000118274793   -0.1800
2      C2      0.0021   -0.0041    0.0020 C.3      1 ZINC000118274793    0.0800
3      H3     -1.0205   -0.3814    0.0098 H        1 ZINC000118274793    0.1500
4      N4      0.7126   -0.4907    1.1921 N.4      1 ZINC000118274793   -0.6400
5      H5      1.6592   -0.1414    1.1850 H        1 ZINC000118274793    0.4300
6      H6      0.2403   -0.1653    2.0223 H        1 ZINC000118274793    0.4400
7      H7      0.7262   -1.4996    1.1866 H        1 ZINC000118274793    0.4400
8      C8      0.7074   -0.4901   -1.2379 C.ar     1 ZINC000118274793   -0.1300
9      C9      2.0889   -0.5108   -1.2839 C.ar     1 ZINC000118274793   -0.1200
10     C10     2.7359   -0.9566   -2.4212 C.ar     1 ZINC000118274793   -0.0900
11     C11     2.0015   -1.3821   -3.5123 C.ar     1 ZINC000118274793   -0.1100
12     C12     2.7069   -1.8676   -4.7524 C.3      1 ZINC000118274793    0.1300
13     H13     3.7307   -1.4937   -4.7580 H        1 ZINC000118274793    0.1400
14     O14     2.0188   -1.3894   -5.9099 O.3      1 ZINC000118274793   -0.5400
15     C15     2.7226   -3.3975   -4.7642 C.3      1 ZINC000118274793   -0.0500
16     N16     3.5126   -3.8702   -5.9089 N.4      1 ZINC000118274793   -0.5000
17     H17     3.1001   -3.5315   -6.7652 H        1 ZINC000118274793    0.4300
18     H18     4.4574   -3.5248   -5.8311 H        1 ZINC000118274793    0.4300
19     C19     3.5277   -5.3391   -5.9203 C.3      1 ZINC000118274793    0.0500
20     C20     2.0950   -5.8630   -6.0383 C.3      1 ZINC000118274793   -0.1800
21     C21     4.3505   -5.8315   -7.1125 C.3      1 ZINC000118274793   -0.1800
22     C22     4.1533   -5.8528   -4.6220 C.3      1 ZINC000118274793   -0.1800
23     C23     0.6201   -1.3627   -3.4658 C.ar     1 ZINC000118274793   -0.0900
24     C24    -0.0269   -0.9205   -2.3270 C.ar     1 ZINC000118274793   -0.0800
25     H25     1.0039    1.9031    0.0027 H        1 ZINC000118274793    0.0800
26     H26    -0.5459    1.8868   -0.8726 H        1 ZINC000118274793    0.1100
27     H27    -0.5289    1.8773    0.9072 H        1 ZINC000118274793    0.0900
28     H28     2.6626   -0.1783   -0.4315 H        1 ZINC000118274793    0.1300
29     H29     3.8152   -0.9721   -2.4575 H        1 ZINC000118274793    0.1400
30     H30     1.0997   -1.6837   -5.9707 H        1 ZINC000118274793    0.3900
31     H31     3.1683   -3.7635   -3.8393 H        1 ZINC000118274793    0.1500
32     H32     1.7019   -3.7707   -4.8483 H        1 ZINC000118274793    0.1400
33     H33     1.6494   -5.4970   -6.9632 H        1 ZINC000118274793    0.0800
34     H34     2.1062   -6.9529   -6.0467 H        1 ZINC000118274793    0.1100
35     H35     1.5088   -5.5122   -5.1889 H        1 ZINC000118274793    0.0800
36     H36     5.3712   -5.4583   -7.0285 H        1 ZINC000118274793    0.0800
37     H37     4.3617   -6.9214   -7.1210 H        1 ZINC000118274793    0.1100
38     H38     3.9049   -5.4655   -8.0375 H        1 ZINC000118274793    0.0800
39     H39     3.5671   -5.5020   -3.7726 H        1 ZINC000118274793    0.0800
40     H40     4.1645   -6.9427   -4.6304 H        1 ZINC000118274793    0.1100
41     H41     5.1739   -5.4796   -4.5379 H        1 ZINC000118274793    0.0800
42     H42     0.0463   -1.6955   -4.3181 H        1 ZINC000118274793    0.1400
43     H43    -1.1062   -0.9053   -2.2907 H        1 ZINC000118274793    0.1400
@<TRIPOS>BOND
1     1     2     1
2     1     25    1
3     1     26    1
4     1     27    1
5     2     3     1
6     2     4     1
7     2     8     1
8     4     5     1
9     4     6     1
10    4     7     1
11    8     24    ar
12    8     9     ar
13    9     10    ar
14    9     28    1
15    10    11    ar
16    10    29    1
17    11    12    1
18    11    23    ar
19    12    13    1
20    12    14    1
21    12    15    1
22    14    30    1
23    15    16    1
24    15    31    1
25    15    32    1
26    16    17    1
27    16    18    1
28    16    19    1
29    19    20    1
30    19    21    1
31    19    22    1
32    20    33    1
33    20    34    1
34    20    35    1
35    21    36    1
36    21    37    1
37    21    38    1
38    22    39    1
39    22    40    1
40    22    41    1
41    23    24    ar
42    23    42    1
43    24    43    1
@<TRIPOS>SUBSTRUCTURE
1   ZINC000118274793 1     RESIDUE    1   A     ZIN   1
