@<TRIPOS>MOLECULE
ZINC000026817456
44    47    1     0     0
SMALL
USER_CHARGES
@<TRIPOS>ATOM
1      C1     -0.0161    1.3337    0.0094 C.2      1 ZINC000026817456   -0.0100
2      C2      1.2578    1.7764   -0.0004 C.2      1 ZINC000026817456   -0.0100
3      C3      1.7066    3.2150    0.0030 C.3      1 ZINC000026817456    0.1300
4      N4      1.9803    3.6393    1.3825 N.3      1 ZINC000026817456   -0.5400
5      C5      0.9001    3.2201    2.2865 C.3      1 ZINC000026817456    0.0500
6      C6      1.2599    3.6100    3.7222 C.3      1 ZINC000026817456    0.0700
7      N7      1.4694    5.0627    3.7946 N.3      1 ZINC000026817456   -0.4600
8      C8      1.7273    5.4625    5.0944 C.ar     1 ZINC000026817456    0.4900
9      N9      1.7592    4.5523    6.0566 N.ar     1 ZINC000026817456   -0.5500
10     C10     2.0033    4.9008    7.3091 C.ar     1 ZINC000026817456    0.1700
11     C11     2.2269    6.2355    7.6082 C.ar     1 ZINC000026817456   -0.2600
12     C12     2.1862    7.1614    6.5776 C.ar     1 ZINC000026817456    0.1700
13     N13     1.9417    6.7455    5.3459 N.ar     1 ZINC000026817456   -0.5300
14     C14     2.5496    5.4819    2.8906 C.3      1 ZINC000026817456    0.0700
15     C15     2.1898    5.0920    1.4550 C.3      1 ZINC000026817456    0.0600
16     N16     2.0660    0.6717   -0.0141 N.pl3    1 ZINC000026817456   -0.5500
17     C17     1.2487   -0.4206   -0.0121 C.2      1 ZINC000026817456    0.2500
18     C18     1.6899   -1.8323   -0.0235 C.ar     1 ZINC000026817456   -0.0200
19     C19     3.0507   -2.1410   -0.0318 C.ar     1 ZINC000026817456   -0.1100
20     C20     3.4557   -3.4599   -0.0419 C.ar     1 ZINC000026817456   -0.1200
21     C21     2.5160   -4.4752   -0.0442 C.ar     1 ZINC000026817456   -0.1100
22     C22     1.1653   -4.1758   -0.0360 C.ar     1 ZINC000026817456   -0.1200
23     C23     0.7472   -2.8611   -0.0201 C.ar     1 ZINC000026817456   -0.0800
24     N24     0.0021   -0.0041    0.0020 N.2      1 ZINC000026817456   -0.4700
25     H25    -0.9003    1.9536    0.0252 H        1 ZINC000026817456    0.1700
26     H26     2.6130    3.3142   -0.5942 H        1 ZINC000026817456    0.0900
27     H27     0.9218    3.8414   -0.4208 H        1 ZINC000026817456    0.0700
28     H28    -0.0279    3.7134    1.9975 H        1 ZINC000026817456    0.0500
29     H29     0.7726    2.1394    2.2243 H        1 ZINC000026817456    0.0900
30     H30     0.4471    3.3260    4.3906 H        1 ZINC000026817456    0.0900
31     H31     2.1733    3.0955    4.0207 H        1 ZINC000026817456    0.0600
32     H32     2.0277    4.1543    8.0892 H        1 ZINC000026817456    0.1700
33     H33     2.4281    6.5474    8.6224 H        1 ZINC000026817456    0.1500
34     H34     2.3558    8.2092    6.7771 H        1 ZINC000026817456    0.1700
35     H35     2.6771    6.5626    2.9529 H        1 ZINC000026817456    0.1000
36     H36     3.4776    4.9886    3.1797 H        1 ZINC000026817456    0.0500
37     H37     3.0026    5.3760    0.7865 H        1 ZINC000026817456    0.0900
38     H38     1.2764    5.6065    1.1565 H        1 ZINC000026817456    0.0500
39     H39     3.0359    0.6665   -0.0233 H        1 ZINC000026817456    0.4200
40     H40     3.7852   -1.3493   -0.0307 H        1 ZINC000026817456    0.1200
41     H41     4.5087   -3.7001   -0.0484 H        1 ZINC000026817456    0.1300
42     H42     2.8382   -5.5060   -0.0529 H        1 ZINC000026817456    0.1300
43     H43     0.4367   -4.9730   -0.0382 H        1 ZINC000026817456    0.1300
44     H44    -0.3074   -2.6286   -0.0137 H        1 ZINC000026817456    0.1400
@<TRIPOS>BOND
1     1     24    1
2     1     2     2
3     1     25    1
4     2     3     1
5     2     16    1
6     3     4     1
7     3     26    1
8     3     27    1
9     4     15    1
10    4     5     1
11    5     6     1
12    5     28    1
13    5     29    1
14    6     7     1
15    6     30    1
16    6     31    1
17    7     8     1
18    7     14    1
19    8     13    ar
20    8     9     ar
21    9     10    ar
22    10    11    ar
23    10    32    1
24    11    12    ar
25    11    33    1
26    12    13    ar
27    12    34    1
28    14    15    1
29    14    35    1
30    14    36    1
31    15    37    1
32    15    38    1
33    16    17    1
34    16    39    1
35    17    18    1
36    17    24    2
37    18    23    ar
38    18    19    ar
39    19    20    ar
40    19    40    1
41    20    21    ar
42    20    41    1
43    21    22    ar
44    21    42    1
45    22    23    ar
46    22    43    1
47    23    44    1
@<TRIPOS>SUBSTRUCTURE
1   ZINC000026817456 1     RESIDUE    1   A     ZIN   1
