@<TRIPOS>MOLECULE
ZINC000043204048
81    86    1     0     0
SMALL
USER_CHARGES
@<TRIPOS>ATOM
1      C1     -4.6627    8.8647   -5.3926 C.3      1 ZINC000043204048    0.0200
2      O2     -5.0566    7.9486   -4.3691 O.3      1 ZINC000043204048   -0.3100
3      C3     -4.2270    6.8986   -4.1278 C.ar     1 ZINC000043204048    0.1100
4      C4     -4.5620    5.9622   -3.1394 C.ar     1 ZINC000043204048    0.1500
5      O5     -5.7128    6.1154   -2.4332 O.3      1 ZINC000043204048   -0.3000
6      C6     -6.0003    5.1295   -1.4395 C.3      1 ZINC000043204048    0.0600
7      C7     -7.3261    5.4673   -0.7546 C.3      1 ZINC000043204048   -0.1500
8      C8     -7.6339    4.4117    0.3093 C.3      1 ZINC000043204048   -0.0100
9      N9     -8.9069    4.7360    0.9669 N.4      1 ZINC000043204048   -0.3800
10     H10    -8.8670    5.6757    1.3322 H        1 ZINC000043204048    0.4200
11     C11    -9.1442    3.7919    2.0676 C.3      1 ZINC000043204048   -0.0400
12     C12   -10.4709    4.1320    2.7513 C.3      1 ZINC000043204048    0.0400
13     O13   -11.5243    4.0876    1.7848 O.3      1 ZINC000043204048   -0.3600
14     C14   -11.3267    4.9737    0.6795 C.3      1 ZINC000043204048    0.0400
15     C15   -10.0016    4.6354   -0.0081 C.3      1 ZINC000043204048   -0.0500
16     C16    -3.7475    4.8984   -2.8774 C.ar     1 ZINC000043204048   -0.1700
17     C17    -2.5567    4.7351   -3.6044 C.ar     1 ZINC000043204048    0.1700
18     N18    -1.7426    3.7000   -3.3659 N.ar     1 ZINC000043204048   -0.5000
19     C19    -0.6268    3.5331   -4.0364 C.ar     1 ZINC000043204048    0.1700
20     C20    -0.2292    4.4196   -5.0292 C.ar     1 ZINC000043204048   -0.2600
21     C21    -1.0219    5.5133   -5.3299 C.ar     1 ZINC000043204048    0.1800
22     O22    -0.6592    6.3952   -6.2938 O.3      1 ZINC000043204048   -0.2300
23     C23     0.5539    6.2306   -6.8860 C.ar     1 ZINC000043204048    0.0200
24     C24     1.6269    7.0186   -6.4986 C.ar     1 ZINC000043204048   -0.0600
25     C25     2.8597    6.8521   -7.0995 C.ar     1 ZINC000043204048   -0.1400
26     C26     3.0251    5.8959   -8.0922 C.ar     1 ZINC000043204048    0.1900
27     N27     4.2753    5.7275   -8.7012 N.am     1 ZINC000043204048   -0.6700
28     C28     4.3502    5.3754  -10.0000 C.2      1 ZINC000043204048    0.5600
29     O29     3.3363    5.1537  -10.6278 O.2      1 ZINC000043204048   -0.4900
30     C30     5.6938    5.2571  -10.6723 C.3      1 ZINC000043204048   -0.2100
31     C31     6.7933    6.1007  -10.0804 C.2      1 ZINC000043204048    0.5500
32     O32     7.4269    6.8549  -10.7881 O.2      1 ZINC000043204048   -0.4900
33     N33     7.0727    6.0171   -8.7645 N.am     1 ZINC000043204048   -0.6800
34     C34     8.0379    6.8592   -8.1988 C.ar     1 ZINC000043204048    0.1200
35     C35     8.0767    8.2033   -8.5450 C.ar     1 ZINC000043204048   -0.0800
36     C36     9.0295    9.0322   -7.9859 C.ar     1 ZINC000043204048   -0.1300
37     C37     9.9460    8.5236   -7.0810 C.ar     1 ZINC000043204048    0.1000
38     F38    10.8772    9.3360   -6.5352 F        1 ZINC000043204048   -0.1300
39     C39     9.9090    7.1834   -6.7344 C.ar     1 ZINC000043204048   -0.1400
40     C40     8.9539    6.3525   -7.2866 C.ar     1 ZINC000043204048   -0.1000
41     C41     6.0802    3.8913  -11.2433 C.3      1 ZINC000043204048   -0.1200
42     C42     5.7092    5.0375  -12.1864 C.3      1 ZINC000043204048   -0.1000
43     C43     1.9511    5.1060   -8.4811 C.ar     1 ZINC000043204048   -0.1500
44     C44     0.7194    5.2687   -7.8754 C.ar     1 ZINC000043204048    0.1200
45     F45    -0.3259    4.5005   -8.2526 F        1 ZINC000043204048   -0.1200
46     C46    -2.2209    5.6829   -4.6016 C.ar     1 ZINC000043204048   -0.1000
47     C47    -3.0791    6.7637   -4.8540 C.ar     1 ZINC000043204048   -0.1400
48     H48    -3.6998    9.3056   -5.1347 H        1 ZINC000043204048    0.0600
49     H49    -4.5773    8.3349   -6.3413 H        1 ZINC000043204048    0.0600
50     H50    -5.4106    9.6526   -5.4825 H        1 ZINC000043204048    0.1100
51     H51    -6.0741    4.1494   -1.9108 H        1 ZINC000043204048    0.0800
52     H52    -5.2013    5.1170   -0.6982 H        1 ZINC000043204048    0.0800
53     H53    -7.2523    6.4473   -0.2834 H        1 ZINC000043204048    0.1000
54     H54    -8.1251    5.4798   -1.4959 H        1 ZINC000043204048    0.1000
55     H55    -7.7078    3.4316   -0.1620 H        1 ZINC000043204048    0.1400
56     H56    -6.8349    4.3992    1.0506 H        1 ZINC000043204048    0.1400
57     H57    -9.1882    2.7769    1.6729 H        1 ZINC000043204048    0.1400
58     H58    -8.3326    3.8660    2.7915 H        1 ZINC000043204048    0.1400
59     H59   -10.6701    3.4070    3.5404 H        1 ZINC000043204048    0.1400
60     H60   -10.4130    5.1321    3.1810 H        1 ZINC000043204048    0.0800
61     H61   -12.1453    4.8578   -0.0308 H        1 ZINC000043204048    0.1400
62     H62   -11.2982    6.0025    1.0383 H        1 ZINC000043204048    0.0800
63     H63    -9.8267    5.3354   -0.8250 H        1 ZINC000043204048    0.1400
64     H64   -10.0452    3.6200   -0.4020 H        1 ZINC000043204048    0.1400
65     H65    -4.0178    4.1846   -2.1133 H        1 ZINC000043204048    0.1500
66     H66    -0.0002    2.6831   -3.8098 H        1 ZINC000043204048    0.1700
67     H67     0.6948    4.2561   -5.5638 H        1 ZINC000043204048    0.1400
68     H68     1.4989    7.7632   -5.7268 H        1 ZINC000043204048    0.1500
69     H69     3.6949    7.4664   -6.7971 H        1 ZINC000043204048    0.1500
70     H70     5.0871    5.8644   -8.1882 H        1 ZINC000043204048    0.4100
71     H71     6.6051    5.3735   -8.2094 H        1 ZINC000043204048    0.4100
72     H72     7.3625    8.6002   -9.2512 H        1 ZINC000043204048    0.1400
73     H73     9.0600   10.0777   -8.2549 H        1 ZINC000043204048    0.1400
74     H74    10.6249    6.7885   -6.0288 H        1 ZINC000043204048    0.1400
75     H75     8.9253    5.3073   -7.0160 H        1 ZINC000043204048    0.1400
76     H76     7.1299    3.6025  -11.1908 H        1 ZINC000043204048    0.1200
77     H77     5.3627    3.0783  -11.1327 H        1 ZINC000043204048    0.1200
78     H78     4.7475    4.9786  -12.6962 H        1 ZINC000043204048    0.1200
79     H79     6.5148    5.5029  -12.7543 H        1 ZINC000043204048    0.1200
80     H80     2.0793    4.3620   -9.2534 H        1 ZINC000043204048    0.1600
81     H81    -2.8310    7.4871   -5.6165 H        1 ZINC000043204048    0.1500
@<TRIPOS>BOND
1     1     2     1
2     1     48    1
3     1     49    1
4     1     50    1
5     2     3     1
6     3     47    ar
7     3     4     ar
8     4     5     1
9     4     16    ar
10    5     6     1
11    6     7     1
12    6     51    1
13    6     52    1
14    7     8     1
15    7     53    1
16    7     54    1
17    8     9     1
18    8     55    1
19    8     56    1
20    9     10    1
21    9     15    1
22    9     11    1
23    11    12    1
24    11    57    1
25    11    58    1
26    12    13    1
27    12    59    1
28    12    60    1
29    13    14    1
30    14    15    1
31    14    61    1
32    14    62    1
33    15    63    1
34    15    64    1
35    16    17    ar
36    16    65    1
37    17    46    ar
38    17    18    ar
39    18    19    ar
40    19    20    ar
41    19    66    1
42    20    21    ar
43    20    67    1
44    21    22    1
45    21    46    ar
46    22    23    1
47    23    44    ar
48    23    24    ar
49    24    25    ar
50    24    68    1
51    25    26    ar
52    25    69    1
53    26    27    1
54    26    43    ar
55    27    28    am
56    27    70    1
57    28    29    2
58    28    30    1
59    30    42    1
60    30    31    1
61    30    41    1
62    31    32    2
63    31    33    am
64    33    34    1
65    33    71    1
66    34    40    ar
67    34    35    ar
68    35    36    ar
69    35    72    1
70    36    37    ar
71    36    73    1
72    37    38    1
73    37    39    ar
74    39    40    ar
75    39    74    1
76    40    75    1
77    41    42    1
78    41    76    1
79    41    77    1
80    42    78    1
81    42    79    1
82    43    44    ar
83    43    80    1
84    44    45    1
85    46    47    ar
86    47    81    1
@<TRIPOS>SUBSTRUCTURE
1   ZINC000043204048 1     RESIDUE    1   A     ZIN   1
