@<TRIPOS>MOLECULE
ZINC000095535868
98    103   1     0     0
SMALL
USER_CHARGES
@<TRIPOS>ATOM
1      N1      1.0775    3.2291   -4.9333 N.4      1 ZINC000095535868   -0.6400
2      H2      1.2013    2.3429   -5.3995 H        1 ZINC000095535868    0.4300
3      H3      1.9777    3.6609   -4.7871 H        1 ZINC000095535868    0.4300
4      H4      0.5040    3.8321   -5.5038 H        1 ZINC000095535868    0.4400
5      C5      0.4219    3.0129   -3.6366 C.3      1 ZINC000095535868   -0.0100
6      C6      1.2916    2.0986   -2.7715 C.3      1 ZINC000095535868   -0.1600
7      C7      0.6087    1.8734   -1.4210 C.3      1 ZINC000095535868    0.1300
8      H8     -0.3986    1.4896   -1.5827 H        1 ZINC000095535868    0.1300
9      N9      0.5365    3.1425   -0.6926 N.am     1 ZINC000095535868   -0.7100
10     C10    -0.4835    3.9934   -0.9207 C.2      1 ZINC000095535868    0.5200
11     O11    -1.3417    3.7084   -1.7290 O.2      1 ZINC000095535868   -0.5300
12     C12    -0.5577    5.2988   -0.1715 C.3      1 ZINC000095535868    0.1600
13     H13     0.3320    5.8912   -0.3848 H        1 ZINC000095535868    0.1300
14     C14    -0.6373    5.0207    1.3309 C.3      1 ZINC000095535868   -0.0900
15     C15    -0.5877    6.3238    2.0863 C.ar     1 ZINC000095535868   -0.0600
16     C16     0.6294    6.8495    2.4768 C.ar     1 ZINC000095535868   -0.0800
17     C17     0.6775    8.0449    3.1699 C.ar     1 ZINC000095535868   -0.1200
18     C18    -0.4938    8.7164    3.4728 C.ar     1 ZINC000095535868    0.0800
19     F19    -0.4476    9.8848    4.1497 F        1 ZINC000095535868   -0.1300
20     C20    -1.7151    8.1892    3.0806 C.ar     1 ZINC000095535868    0.0800
21     F21    -2.8600    8.8431    3.3753 F        1 ZINC000095535868   -0.1300
22     C22    -1.7594    6.9951    2.3829 C.ar     1 ZINC000095535868   -0.1100
23     N23    -1.7496    6.0379   -0.5951 N.am     1 ZINC000095535868   -0.7300
24     C24    -1.7865    7.3802   -0.4797 C.2      1 ZINC000095535868    0.7100
25     O25    -0.8307    7.9778   -0.0240 O.2      1 ZINC000095535868   -0.5500
26     N26    -2.8830    8.0601   -0.8694 N.am     1 ZINC000095535868   -0.6800
27     C27    -2.9537    9.4442   -0.6755 C.ar     1 ZINC000095535868    0.2100
28     C28    -1.7989   10.2192   -0.7901 C.ar     1 ZINC000095535868   -0.1500
29     C29    -1.8485   11.5689   -0.6046 C.ar     1 ZINC000095535868   -0.0200
30     C30    -3.0664   12.1860   -0.2969 C.ar     1 ZINC000095535868   -0.1700
31     C31    -3.4646   13.5670   -0.0423 C.2      1 ZINC000095535868    0.1100
32     C32    -2.5565   14.7697   -0.0551 C.3      1 ZINC000095535868    0.1300
33     N33    -2.5137   15.3366   -1.4096 N.3      1 ZINC000095535868   -0.5100
34     C34    -3.7871   16.0271   -1.7381 C.3      1 ZINC000095535868    0.0400
35     C35    -3.3891   16.9706   -2.9008 C.3      1 ZINC000095535868   -0.1200
36     C36    -1.9725   17.4393   -2.4962 C.3      1 ZINC000095535868   -0.1300
37     C37    -1.4569   16.3654   -1.5204 C.3      1 ZINC000095535868    0.0400
38     N38    -4.7446   13.5746    0.1973 N.2      1 ZINC000095535868   -0.2300
39     N39    -5.2554   12.2747    0.1228 N.pl3    1 ZINC000095535868   -0.4000
40     C40    -6.6553   11.8981    0.3342 C.3      1 ZINC000095535868    0.1800
41     C41    -7.4166   12.0489   -0.9576 C.ar     1 ZINC000095535868   -0.1000
42     C42    -7.9011   13.2885   -1.3346 C.ar     1 ZINC000095535868    0.0000
43     Cl43   -7.6317   14.6711   -0.3199 Cl       1 ZINC000095535868   -0.0300
44     C44    -8.6000   13.4263   -2.5207 C.ar     1 ZINC000095535868   -0.1100
45     C45    -8.8142   12.3257   -3.3289 C.ar     1 ZINC000095535868   -0.0800
46     C46    -8.3308   11.0867   -2.9525 C.ar     1 ZINC000095535868   -0.1100
47     C47    -7.6264   10.9488   -1.7696 C.ar     1 ZINC000095535868   -0.0100
48     Cl48   -7.0187    9.3927   -1.2974 Cl       1 ZINC000095535868   -0.0600
49     C49    -4.2360   11.4097   -0.1802 C.ar     1 ZINC000095535868    0.1500
50     C50    -4.1681   10.0339   -0.3775 C.ar     1 ZINC000095535868   -0.1800
51     C51     1.4029    0.8770   -0.6164 C.2      1 ZINC000095535868    0.5100
52     O52     1.8633    1.1955    0.4594 O.2      1 ZINC000095535868   -0.5100
53     N53     1.6015   -0.3682   -1.0925 N.am     1 ZINC000095535868   -0.7200
54     C54     2.3736   -1.3369   -0.3103 C.3      1 ZINC000095535868    0.1600
55     C55     2.4478   -2.6424   -1.0596 C.ar     1 ZINC000095535868   -0.1200
56     C56     1.4741   -3.6049   -0.8691 C.ar     1 ZINC000095535868   -0.1000
57     C57     1.5422   -4.8024   -1.5564 C.ar     1 ZINC000095535868   -0.1200
58     C58     2.5837   -5.0371   -2.4344 C.ar     1 ZINC000095535868   -0.1000
59     C59     3.5569   -4.0742   -2.6256 C.ar     1 ZINC000095535868   -0.1200
60     C60     3.4865   -2.8750   -1.9415 C.ar     1 ZINC000095535868   -0.1000
61     H61     0.2882    3.9703   -3.1330 H        1 ZINC000095535868    0.1300
62     H62    -0.5506    2.5465   -3.7945 H        1 ZINC000095535868    0.1500
63     H63     1.4253    1.1412   -3.2751 H        1 ZINC000095535868    0.1100
64     H64     2.2640    2.5650   -2.6136 H        1 ZINC000095535868    0.1000
65     H65     1.2229    3.3704   -0.0462 H        1 ZINC000095535868    0.4200
66     H66    -1.5710    4.5055    1.5561 H        1 ZINC000095535868    0.0900
67     H67     0.2040    4.3954    1.6297 H        1 ZINC000095535868    0.1000
68     H68     1.5440    6.3258    2.2406 H        1 ZINC000095535868    0.1300
69     H69     1.6291    8.4542    3.4751 H        1 ZINC000095535868    0.1400
70     H70    -2.7098    6.5836    2.0765 H        1 ZINC000095535868    0.1300
71     H71    -2.5121    5.5612   -0.9586 H        1 ZINC000095535868    0.4100
72     H72    -3.6231    7.5901   -1.2844 H        1 ZINC000095535868    0.4100
73     H73    -0.8577    9.7456   -1.0274 H        1 ZINC000095535868    0.1400
74     H74    -0.9496   12.1608   -0.6945 H        1 ZINC000095535868    0.1300
75     H75    -2.9355   15.5185    0.6404 H        1 ZINC000095535868    0.0600
76     H76    -1.5525   14.4700    0.2453 H        1 ZINC000095535868    0.1000
77     H77    -4.5403   15.3102   -2.0650 H        1 ZINC000095535868    0.0800
78     H78    -4.1456   16.6004   -0.8830 H        1 ZINC000095535868    0.0500
79     H79    -3.3605   16.4277   -3.8455 H        1 ZINC000095535868    0.0700
80     H80    -4.0728   17.8173   -2.9618 H        1 ZINC000095535868    0.0700
81     H81    -1.3275   17.4947   -3.3731 H        1 ZINC000095535868    0.0700
82     H82    -2.0221   18.4087   -2.0002 H        1 ZINC000095535868    0.0700
83     H83    -1.2685   16.8109   -0.5436 H        1 ZINC000095535868    0.0500
84     H84    -0.5426   15.9179   -1.9100 H        1 ZINC000095535868    0.0800
85     H85    -6.7064   10.8614    0.6671 H        1 ZINC000095535868    0.1100
86     H86    -7.0952   12.5454    1.0928 H        1 ZINC000095535868    0.1100
87     H87    -8.9787   14.3940   -2.8149 H        1 ZINC000095535868    0.1400
88     H88    -9.3599   12.4337   -4.2546 H        1 ZINC000095535868    0.1500
89     H89    -8.4987   10.2269   -3.5842 H        1 ZINC000095535868    0.1400
90     H90    -5.0593    9.4293   -0.2953 H        1 ZINC000095535868    0.1300
91     H91     1.2333   -0.6229   -1.9529 H        1 ZINC000095535868    0.4000
92     H92     3.3809   -0.9530   -0.1486 H        1 ZINC000095535868    0.0800
93     H93     1.8871   -1.4973    0.6518 H        1 ZINC000095535868    0.0800
94     H94     0.6604   -3.4215   -0.1831 H        1 ZINC000095535868    0.1300
95     H95     0.7818   -5.5547   -1.4070 H        1 ZINC000095535868    0.1300
96     H96     2.6373   -5.9730   -2.9708 H        1 ZINC000095535868    0.1300
97     H97     4.3709   -4.2577   -3.3113 H        1 ZINC000095535868    0.1300
98     H98     4.2469   -2.1227   -2.0909 H        1 ZINC000095535868    0.1200
@<TRIPOS>BOND
1     1     2     1
2     1     3     1
3     1     4     1
4     1     5     1
5     5     6     1
6     5     61    1
7     5     62    1
8     6     7     1
9     6     63    1
10    6     64    1
11    7     8     1
12    7     9     1
13    7     51    1
14    9     10    am
15    9     65    1
16    10    11    2
17    10    12    1
18    12    13    1
19    12    14    1
20    12    23    1
21    14    15    1
22    14    66    1
23    14    67    1
24    15    22    ar
25    15    16    ar
26    16    17    ar
27    16    68    1
28    17    18    ar
29    17    69    1
30    18    19    1
31    18    20    ar
32    20    21    1
33    20    22    ar
34    22    70    1
35    23    24    am
36    23    71    1
37    24    25    2
38    24    26    am
39    26    27    1
40    26    72    1
41    27    50    ar
42    27    28    ar
43    28    29    ar
44    28    73    1
45    29    30    ar
46    29    74    1
47    30    49    ar
48    30    31    1
49    31    32    1
50    31    38    2
51    32    33    1
52    32    75    1
53    32    76    1
54    33    37    1
55    33    34    1
56    34    35    1
57    34    77    1
58    34    78    1
59    35    36    1
60    35    79    1
61    35    80    1
62    36    37    1
63    36    81    1
64    36    82    1
65    37    83    1
66    37    84    1
67    38    39    1
68    39    40    1
69    39    49    1
70    40    41    1
71    40    85    1
72    40    86    1
73    41    47    ar
74    41    42    ar
75    42    43    1
76    42    44    ar
77    44    45    ar
78    44    87    1
79    45    46    ar
80    45    88    1
81    46    47    ar
82    46    89    1
83    47    48    1
84    49    50    ar
85    50    90    1
86    51    52    2
87    51    53    am
88    53    54    1
89    53    91    1
90    54    55    1
91    54    92    1
92    54    93    1
93    55    60    ar
94    55    56    ar
95    56    57    ar
96    56    94    1
97    57    58    ar
98    57    95    1
99    58    59    ar
100   58    96    1
101   59    60    ar
102   59    97    1
103   60    98    1
@<TRIPOS>SUBSTRUCTURE
1   ZINC000095535868 1     RESIDUE    1   A     ZIN   1
