@<TRIPOS>MOLECULE
ZINC000000001453
32    34    1     0     0
SMALL
USER_CHARGES
@<TRIPOS>ATOM
1      O1      0.0021   -0.0041    0.0020 O.co2    1 ZINC000000001453   -0.6900
2      C2     -0.0145    1.2150    0.0087 C.2      1 ZINC000000001453    0.5000
3      O3      1.0330    1.8389    0.0021 O.co2    1 ZINC000000001453   -0.7000
4      C4     -1.3296    1.9507    0.0190 C.3      1 ZINC000000001453   -0.1600
5      C5     -2.4617    0.9559    0.0189 C.ar     1 ZINC000000001453   -0.0400
6      C6     -3.0506    0.5808   -1.1698 C.ar     1 ZINC000000001453   -0.0600
7      C7     -4.0939   -0.3335   -1.1853 C.ar     1 ZINC000000001453   -0.1400
8      C8     -4.5564   -0.8802   -0.0082 C.ar     1 ZINC000000001453   -0.0600
9      C9     -3.9688   -0.5091    1.2000 C.ar     1 ZINC000000001453   -0.2200
10     C10    -2.9093    0.4115    1.2165 C.ar     1 ZINC000000001453    0.1500
11     O11    -2.3468    0.7658    2.3907 O.3      1 ZINC000000001453   -0.2100
12     C12    -2.7632    0.2678    3.5650 C.2      1 ZINC000000001453    0.2200
13     C13    -2.0903    0.7110    4.8024 C.ar     1 ZINC000000001453   -0.0700
14     C14    -2.4958    0.2075    6.0404 C.ar     1 ZINC000000001453   -0.0800
15     C15    -1.8628    0.6259    7.1923 C.ar     1 ZINC000000001453   -0.1300
16     C16    -0.8286    1.5427    7.1233 C.ar     1 ZINC000000001453   -0.1000
17     C17    -0.4220    2.0461    5.9002 C.ar     1 ZINC000000001453   -0.1200
18     C18    -1.0417    1.6314    4.7397 C.ar     1 ZINC000000001453   -0.0700
19     C19    -3.7814   -0.6292    3.6598 C.2      1 ZINC000000001453   -0.3300
20     C20    -4.4336   -1.0700    2.4844 C.2      1 ZINC000000001453    0.4300
21     O21    -5.3502   -1.8734    2.5309 O.2      1 ZINC000000001453   -0.4900
22     H22    -1.3917    2.5717    0.9126 H        1 ZINC000000001453    0.0700
23     H23    -1.4001    2.5813   -0.8673 H        1 ZINC000000001453    0.0800
24     H24    -2.6963    1.0033   -2.0984 H        1 ZINC000000001453    0.1300
25     H25    -4.5458   -0.6177   -2.1242 H        1 ZINC000000001453    0.1300
26     H26    -5.3692   -1.5913   -0.0216 H        1 ZINC000000001453    0.1400
27     H27    -3.3032   -0.5076    6.0957 H        1 ZINC000000001453    0.1300
28     H28    -2.1753    0.2373    8.1503 H        1 ZINC000000001453    0.1300
29     H29    -0.3367    1.8671    8.0284 H        1 ZINC000000001453    0.1300
30     H30     0.3853    2.7619    5.8536 H        1 ZINC000000001453    0.1300
31     H31    -0.7231    2.0248    3.7857 H        1 ZINC000000001453    0.1400
32     H32    -4.0865   -1.0057    4.6250 H        1 ZINC000000001453    0.1600
@<TRIPOS>BOND
1     1     2     ar
2     2     3     ar
3     2     4     1
4     4     5     1
5     4     22    1
6     4     23    1
7     5     10    ar
8     5     6     ar
9     6     7     ar
10    6     24    1
11    7     8     ar
12    7     25    1
13    8     9     ar
14    8     26    1
15    9     20    1
16    9     10    ar
17    10    11    1
18    11    12    1
19    12    13    1
20    12    19    2
21    13    18    ar
22    13    14    ar
23    14    15    ar
24    14    27    1
25    15    16    ar
26    15    28    1
27    16    17    ar
28    16    29    1
29    17    18    ar
30    17    30    1
31    18    31    1
32    19    20    1
33    19    32    1
34    20    21    2
@<TRIPOS>SUBSTRUCTURE
1   ZINC000000001453 1     RESIDUE    1   A     ZIN   1
