@<TRIPOS>MOLECULE
ZINC000003982111
52    56    1     0     0
SMALL
USER_CHARGES
@<TRIPOS>ATOM
1      C1     -0.0184    1.5028    0.0103 C.3      1 ZINC000003982111   -0.0700
2      C2      0.0021   -0.0041    0.0020 C.2      1 ZINC000003982111   -0.0300
3      C3     -1.0704   -0.8164    0.0025 C.2      1 ZINC000003982111   -0.0100
4      C4     -2.5133   -0.3814    0.0114 C.3      1 ZINC000003982111   -0.0300
5      C5     -3.0081   -0.2263   -1.4281 C.3      1 ZINC000003982111    0.0700
6      O6     -4.3762    0.1862   -1.4196 O.3      1 ZINC000003982111   -0.3100
7      C7     -4.9723    0.3708   -2.6266 C.ar     1 ZINC000003982111    0.1800
8      C8     -6.3245    0.7849   -2.6893 C.ar     1 ZINC000003982111   -0.1000
9      C9     -7.2525    1.0671   -1.6061 C.2      1 ZINC000003982111   -0.1000
10     C10    -8.4577    1.4367   -1.9905 C.2      1 ZINC000003982111   -0.2100
11     S11    -8.5864    1.4792   -3.7382 S.3      1 ZINC000003982111    0.1400
12     C12    -6.9153    0.9680   -3.9413 C.ar     1 ZINC000003982111   -0.1000
13     C13    -6.1697    0.7423   -5.1035 C.ar     1 ZINC000003982111   -0.1100
14     C14    -6.8092    0.9410   -6.4535 C.3      1 ZINC000003982111   -0.0500
15     C15    -6.7127    2.4152   -6.8515 C.3      1 ZINC000003982111   -0.1100
16     H16    -5.6790    2.7581   -6.8071 H        1 ZINC000003982111    0.1600
17     S17    -7.7796    3.4425   -5.7858 S.3      1 ZINC000003982111   -0.0800
18     C18    -8.7936    4.0117   -7.1240 C.2      1 ZINC000003982111    0.5300
19     O19    -9.7376    4.7726   -7.0354 O.2      1 ZINC000003982111   -0.4300
20     N20    -8.3339    3.4543   -8.2462 N.am     1 ZINC000003982111   -0.6800
21     C21    -7.2906    2.6355   -8.2324 C.2      1 ZINC000003982111    0.5400
22     O22    -6.8464    2.1121   -9.2317 O.2      1 ZINC000003982111   -0.4600
23     C23    -4.8575    0.3408   -5.0220 C.ar     1 ZINC000003982111   -0.0500
24     C24    -4.2575    0.1600   -3.7838 C.ar     1 ZINC000003982111   -0.2200
25     N25    -0.6270   -2.0826   -0.0069 N.2      1 ZINC000003982111   -0.4600
26     C26     0.6851   -2.0676   -0.0131 C.2      1 ZINC000003982111    0.2400
27     C27     1.5619   -3.2577   -0.0241 C.ar     1 ZINC000003982111   -0.0200
28     C28     1.0059   -4.5378   -0.0345 C.ar     1 ZINC000003982111   -0.0700
29     C29     1.8298   -5.6443   -0.0447 C.ar     1 ZINC000003982111   -0.1200
30     C30     3.2044   -5.4871   -0.0446 C.ar     1 ZINC000003982111   -0.1000
31     C31     3.7620   -4.2209   -0.0342 C.ar     1 ZINC000003982111   -0.1200
32     C32     2.9493   -3.1060   -0.0298 C.ar     1 ZINC000003982111   -0.0900
33     O33     1.0981   -0.7883   -0.0131 O.3      1 ZINC000003982111   -0.1900
34     H34     1.0042    1.8801    0.0026 H        1 ZINC000003982111    0.0800
35     H35    -0.5455    1.8639   -0.8728 H        1 ZINC000003982111    0.0900
36     H36    -0.5286    1.8543    0.9071 H        1 ZINC000003982111    0.0900
37     H37    -3.1157   -1.1314    0.5239 H        1 ZINC000003982111    0.1000
38     H38    -2.6019    0.5728    0.5308 H        1 ZINC000003982111    0.0900
39     H39    -2.4056    0.5237   -1.9406 H        1 ZINC000003982111    0.0700
40     H40    -2.9195   -1.1805   -1.9475 H        1 ZINC000003982111    0.0700
41     H41    -6.9754    0.9801   -0.5659 H        1 ZINC000003982111    0.1500
42     H42    -9.2635    1.6822   -1.3146 H        1 ZINC000003982111    0.1700
43     H43    -6.2924    0.3302   -7.1938 H        1 ZINC000003982111    0.1100
44     H44    -7.8572    0.6453   -6.4062 H        1 ZINC000003982111    0.0900
45     H45    -8.7704    3.6527   -9.0894 H        1 ZINC000003982111    0.4200
46     H46    -4.2902    0.1692   -5.9249 H        1 ZINC000003982111    0.1400
47     H47    -3.2261   -0.1552   -3.7279 H        1 ZINC000003982111    0.1400
48     H48    -0.0669   -4.6619   -0.0343 H        1 ZINC000003982111    0.1400
49     H49     1.4009   -6.6354   -0.0525 H        1 ZINC000003982111    0.1300
50     H50     3.8450   -6.3565   -0.0522 H        1 ZINC000003982111    0.1300
51     H51     4.8358   -4.1050   -0.0342 H        1 ZINC000003982111    0.1300
52     H52     3.3858   -2.1182   -0.0218 H        1 ZINC000003982111    0.1300
@<TRIPOS>BOND
1     1     2     1
2     1     34    1
3     1     35    1
4     1     36    1
5     2     33    1
6     2     3     2
7     3     4     1
8     3     25    1
9     4     5     1
10    4     37    1
11    4     38    1
12    5     6     1
13    5     39    1
14    5     40    1
15    6     7     1
16    7     24    ar
17    7     8     ar
18    8     12    ar
19    8     9     1
20    9     10    2
21    9     41    1
22    10    11    1
23    10    42    1
24    11    12    1
25    12    13    ar
26    13    14    1
27    13    23    ar
28    14    15    1
29    14    43    1
30    14    44    1
31    15    16    1
32    15    21    1
33    15    17    1
34    17    18    1
35    18    19    2
36    18    20    am
37    20    21    am
38    20    45    1
39    21    22    2
40    23    24    ar
41    23    46    1
42    24    47    1
43    25    26    2
44    26    27    1
45    26    33    1
46    27    32    ar
47    27    28    ar
48    28    29    ar
49    28    48    1
50    29    30    ar
51    29    49    1
52    30    31    ar
53    30    50    1
54    31    32    ar
55    31    51    1
56    32    52    1
@<TRIPOS>SUBSTRUCTURE
1   ZINC000003982111 1     RESIDUE    1   A     ZIN   1
