@<TRIPOS>MOLECULE
ZINC000003979512
84    87    1     0     0
SMALL
USER_CHARGES
@<TRIPOS>ATOM
1      C1     -5.7544  -15.1052    1.7245 C.2      1 ZINC000003979512   -0.0400
2      C2     -7.0809  -15.0197    1.6621 C.2      1 ZINC000003979512   -0.1900
3      Br3    -8.1346  -16.5873    1.7517 Br       1 ZINC000003979512   -0.0400
4      C4     -7.7277  -13.7053    1.5234 C.2      1 ZINC000003979512    0.5700
5      O5     -7.0499  -12.6969    1.4658 O.2      1 ZINC000003979512   -0.5100
6      N6     -9.0712  -13.6187    1.4602 N.am     1 ZINC000003979512   -0.6400
7      C7     -9.6894  -12.3625    1.3277 C.2      1 ZINC000003979512    0.0600
8      C8    -11.0270  -12.1309    1.2579 C.2      1 ZINC000003979512    0.0000
9      N9    -11.2331  -10.7937    1.1335 N.pl3    1 ZINC000003979512   -0.4000
10     C10   -12.5386  -10.1373    1.0286 C.3      1 ZINC000003979512    0.0700
11     C11   -10.0128  -10.1580    1.1233 C.2      1 ZINC000003979512   -0.0400
12     C12    -9.7906   -8.7132    1.0059 C.2      1 ZINC000003979512    0.6000
13     O13   -10.7393   -7.9506    0.9935 O.2      1 ZINC000003979512   -0.5400
14     N14    -8.5361   -8.2298    0.9117 N.am     1 ZINC000003979512   -0.6300
15     C15    -8.3160   -6.8405    0.9105 C.2      1 ZINC000003979512    0.0600
16     C16    -7.1102   -6.2203    0.8163 C.2      1 ZINC000003979512    0.0000
17     N17    -7.3064   -4.8761    0.8489 N.pl3    1 ZINC000003979512   -0.4000
18     C18    -6.2559   -3.8579    0.7721 C.3      1 ZINC000003979512    0.0700
19     C19    -8.6551   -4.6296    0.9656 C.2      1 ZINC000003979512   -0.0500
20     C20    -9.2908   -3.3099    1.0350 C.2      1 ZINC000003979512    0.6000
21     O21    -8.6198   -2.3032    0.9004 O.2      1 ZINC000003979512   -0.5400
22     N22   -10.6180   -3.2115    1.2478 N.am     1 ZINC000003979512   -0.6300
23     C23   -11.2460   -1.9537    1.2044 C.2      1 ZINC000003979512    0.0700
24     C24   -12.5682   -1.7107    1.4047 C.2      1 ZINC000003979512    0.0000
25     N25   -12.7909   -0.3759    1.2815 N.pl3    1 ZINC000003979512   -0.4000
26     C26   -14.0877    0.2902    1.4265 C.3      1 ZINC000003979512    0.0700
27     C27   -11.5968    0.2465    0.9985 C.2      1 ZINC000003979512   -0.0500
28     C28   -11.3986    1.6845    0.7902 C.2      1 ZINC000003979512    0.6000
29     O29   -12.3269    2.4560    0.9479 O.2      1 ZINC000003979512   -0.5400
30     N30   -10.1887    2.1519    0.4240 N.am     1 ZINC000003979512   -0.6300
31     C31    -9.9687    3.5381    0.3316 C.2      1 ZINC000003979512    0.0700
32     C32    -8.8060    4.1428   -0.0290 C.2      1 ZINC000003979512    0.0000
33     N33    -8.9863    5.4890   -0.0004 N.pl3    1 ZINC000003979512   -0.4000
34     C34    -7.9705    6.4935   -0.3253 C.3      1 ZINC000003979512    0.0700
35     C35   -10.2811    5.7530    0.3834 C.2      1 ZINC000003979512   -0.0600
36     C36   -10.8843    7.0808    0.5385 C.2      1 ZINC000003979512    0.6000
37     O37   -10.2511    8.0756    0.2377 O.2      1 ZINC000003979512   -0.5400
38     N38   -12.1397    7.1992    1.0140 N.am     1 ZINC000003979512   -0.7200
39     C39   -12.7027    8.5267    1.2730 C.3      1 ZINC000003979512    0.1100
40     C40   -14.1303    8.3806    1.8037 C.3      1 ZINC000003979512    0.0800
41     N41   -14.6933    9.7081    2.0626 N.pl3    1 ZINC000003979512   -0.6900
42     C42   -15.9675    9.8283    2.5453 C.cat    1 ZINC000003979512    0.7500
43     N43   -16.6964    8.7385    2.7799 N.pl3    1 ZINC000003979512   -0.7900
44     N44   -16.4793   11.0353    2.7807 N.pl3    1 ZINC000003979512   -0.7900
45     H45   -17.3829   11.1205    3.1230 H        1 ZINC000003979512    0.4400
46     H46   -15.9485   11.8290    2.6098 H        1 ZINC000003979512    0.4400
47     C47   -10.9114    4.5438    0.5892 C.2      1 ZINC000003979512   -0.1300
48     C48   -10.6190   -0.7248    0.9527 C.2      1 ZINC000003979512   -0.1300
49     C49    -9.3017   -5.8472    1.0002 C.2      1 ZINC000003979512   -0.1300
50     C50    -9.0366  -11.1238    1.2499 C.2      1 ZINC000003979512   -0.1300
51     H51    -5.2797  -16.0699    1.8262 H        1 ZINC000003979512    0.1300
52     H52    -5.1524  -14.2103    1.6688 H        1 ZINC000003979512    0.1400
53     H53    -9.6117  -14.4228    1.5062 H        1 ZINC000003979512    0.4100
54     H54   -11.7988  -12.8856    1.2948 H        1 ZINC000003979512    0.1800
55     H55   -12.9384   -9.9618    2.0273 H        1 ZINC000003979512    0.0800
56     H56   -12.4259   -9.1853    0.5098 H        1 ZINC000003979512    0.1100
57     H57   -13.2229  -10.7764    0.4705 H        1 ZINC000003979512    0.0800
58     H58    -7.7849   -8.8399    0.8447 H        1 ZINC000003979512    0.4200
59     H59    -6.1538   -6.7144    0.7300 H        1 ZINC000003979512    0.1800
60     H60    -6.0224   -3.6548   -0.2730 H        1 ZINC000003979512    0.0800
61     H61    -6.6017   -2.9421    1.2517 H        1 ZINC000003979512    0.1100
62     H62    -5.3620   -4.2190    1.2806 H        1 ZINC000003979512    0.0800
63     H63   -11.1402   -4.0082    1.4309 H        1 ZINC000003979512    0.4200
64     H64   -13.3182   -2.4558    1.6254 H        1 ZINC000003979512    0.1800
65     H65   -14.1952    0.6578    2.4470 H        1 ZINC000003979512    0.0800
66     H66   -14.1460    1.1272    0.7307 H        1 ZINC000003979512    0.1000
67     H67   -14.8866   -0.4189    1.2098 H        1 ZINC000003979512    0.0900
68     H68    -9.4696    1.5324    0.2242 H        1 ZINC000003979512    0.4200
69     H69    -7.8898    3.6364   -0.2945 H        1 ZINC000003979512    0.1800
70     H70    -8.0741    6.7907   -1.3689 H        1 ZINC000003979512    0.0800
71     H71    -8.1034    7.3651    0.3156 H        1 ZINC000003979512    0.1000
72     H72    -6.9782    6.0721   -0.1643 H        1 ZINC000003979512    0.0900
73     H73   -12.6706    6.4055    1.1849 H        1 ZINC000003979512    0.4100
74     H74   -12.0910    9.0428    2.0130 H        1 ZINC000003979512    0.0900
75     H75   -12.7163    9.1024    0.3475 H        1 ZINC000003979512    0.0900
76     H76   -14.7420    7.8646    1.0637 H        1 ZINC000003979512    0.1000
77     H77   -14.1167    7.8049    2.7291 H        1 ZINC000003979512    0.1000
78     H78   -14.1625   10.5018    1.8917 H        1 ZINC000003979512    0.4400
79     H79   -16.3236    7.8596    2.6085 H        1 ZINC000003979512    0.4400
80     H80   -17.6000    8.8238    3.1222 H        1 ZINC000003979512    0.4400
81     H81   -11.9361    4.3987    0.8979 H        1 ZINC000003979512    0.1700
82     H82    -9.5690   -0.5692    0.7533 H        1 ZINC000003979512    0.1700
83     H83   -10.3665   -6.0059    1.0866 H        1 ZINC000003979512    0.1700
84     H84    -7.9697  -10.9580    1.2766 H        1 ZINC000003979512    0.1700
@<TRIPOS>BOND
1     1     2     2
2     1     51    1
3     1     52    1
4     2     3     1
5     2     4     1
6     4     5     2
7     4     6     am
8     6     7     1
9     6     53    1
10    7     50    1
11    7     8     2
12    8     9     1
13    8     54    1
14    9     10    1
15    9     11    1
16    10    55    1
17    10    56    1
18    10    57    1
19    11    12    1
20    11    50    2
21    12    13    2
22    12    14    am
23    14    15    1
24    14    58    1
25    15    49    1
26    15    16    2
27    16    17    1
28    16    59    1
29    17    18    1
30    17    19    1
31    18    60    1
32    18    61    1
33    18    62    1
34    19    20    1
35    19    49    2
36    20    21    2
37    20    22    am
38    22    23    1
39    22    63    1
40    23    48    1
41    23    24    2
42    24    25    1
43    24    64    1
44    25    26    1
45    25    27    1
46    26    65    1
47    26    66    1
48    26    67    1
49    27    28    1
50    27    48    2
51    28    29    2
52    28    30    am
53    30    31    1
54    30    68    1
55    31    47    1
56    31    32    2
57    32    33    1
58    32    69    1
59    33    34    1
60    33    35    1
61    34    70    1
62    34    71    1
63    34    72    1
64    35    36    1
65    35    47    2
66    36    37    2
67    36    38    am
68    38    39    1
69    38    73    1
70    39    40    1
71    39    74    1
72    39    75    1
73    40    41    1
74    40    76    1
75    40    77    1
76    41    42    ar
77    41    78    1
78    42    43    ar
79    42    44    ar
80    43    79    1
81    43    80    1
82    44    45    1
83    44    46    1
84    47    81    1
85    48    82    1
86    49    83    1
87    50    84    1
@<TRIPOS>SUBSTRUCTURE
1   ZINC000003979512 1     RESIDUE    1   A     ZIN   1
