@<TRIPOS>MOLECULE
ZINC000003961864
40    40    1     0     0
SMALL
USER_CHARGES
@<TRIPOS>ATOM
1      C1      0.5306    0.2343    0.9787 C.3      1 ZINC000003961864   -0.0500
2      N2      0.3741   -1.2154    0.7997 N.4      1 ZINC000003961864   -0.5100
3      H3      0.7745   -1.6971    1.5907 H        1 ZINC000003961864    0.4300
4      H4     -0.6066   -1.4417    0.7292 H        1 ZINC000003961864    0.4300
5      C5      1.0628   -1.6343   -0.4285 C.3      1 ZINC000003961864    0.0300
6      H6      0.6918   -1.0498   -1.2704 H        1 ZINC000003961864    0.1400
7      C7      2.5676   -1.4057   -0.2727 C.3      1 ZINC000003961864   -0.1800
8      C8      0.7960   -3.1194   -0.6815 C.3      1 ZINC000003961864   -0.1100
9      C9     -0.6711   -3.3265   -0.9567 C.2      1 ZINC000003961864   -0.2100
10     C10    -1.0574   -3.9347   -2.0694 C.2      1 ZINC000003961864   -0.0500
11     C11    -2.4965   -4.1378   -2.3393 C.ar     1 ZINC000003961864   -0.0900
12     C12    -3.4578   -3.6887   -1.4333 C.ar     1 ZINC000003961864    0.0700
13     N13    -4.7409   -3.8680   -1.6705 N.ar     1 ZINC000003961864   -0.4400
14     C14    -5.1707   -4.4718   -2.7610 C.ar     1 ZINC000003961864    0.0900
15     C15    -4.2794   -4.9480   -3.7132 C.ar     1 ZINC000003961864    0.0900
16     O16    -4.7357   -5.5686   -4.8330 O.3      1 ZINC000003961864   -0.3000
17     C17    -3.7645   -5.9245   -5.8190 C.3      1 ZINC000003961864    0.0800
18     C18    -3.1526   -7.2816   -5.4655 C.3      1 ZINC000003961864   -0.1800
19     C19    -4.4375   -6.0101   -7.1903 C.3      1 ZINC000003961864   -0.1500
20     C20    -2.9164   -4.7781   -3.5098 C.ar     1 ZINC000003961864   -0.1500
21     H21     1.5901    0.4787    1.0548 H        1 ZINC000003961864    0.1300
22     H22     0.0981    0.7546    0.1241 H        1 ZINC000003961864    0.1200
23     H23     0.0196    0.5451    1.8899 H        1 ZINC000003961864    0.1300
24     H24     3.0785   -1.7165   -1.1839 H        1 ZINC000003961864    0.1100
25     H25     2.7576   -0.3477   -0.0924 H        1 ZINC000003961864    0.0800
26     H26     2.9386   -1.9901    0.5693 H        1 ZINC000003961864    0.0800
27     H27     1.3774   -3.4516   -1.5416 H        1 ZINC000003961864    0.1200
28     H28     1.0857   -3.6955    0.1973 H        1 ZINC000003961864    0.1000
29     H29    -1.4078   -2.9794   -0.2473 H        1 ZINC000003961864    0.1200
30     H30    -0.3207   -4.2817   -2.7788 H        1 ZINC000003961864    0.1300
31     H31    -3.1465   -3.1892   -0.5278 H        1 ZINC000003961864    0.1500
32     H32    -6.2321   -4.5981   -2.9158 H        1 ZINC000003961864    0.1700
33     H33    -2.9800   -5.1682   -5.8458 H        1 ZINC000003961864    0.0700
34     H34    -2.6731   -7.2206   -4.4886 H        1 ZINC000003961864    0.0600
35     H35    -3.9371   -8.0379   -5.4387 H        1 ZINC000003961864    0.0700
36     H36    -2.4118   -7.5531   -6.2176 H        1 ZINC000003961864    0.0800
37     H37    -4.8734   -5.0433   -7.4421 H        1 ZINC000003961864    0.0700
38     H38    -3.6967   -6.2816   -7.9423 H        1 ZINC000003961864    0.0800
39     H39    -5.2220   -6.7664   -7.1634 H        1 ZINC000003961864    0.0700
40     H40    -2.1991   -5.1375   -4.2328 H        1 ZINC000003961864    0.1500
@<TRIPOS>BOND
1     1     2     1
2     1     21    1
3     1     22    1
4     1     23    1
5     2     3     1
6     2     4     1
7     2     5     1
8     5     6     1
9     5     7     1
10    5     8     1
11    7     24    1
12    7     25    1
13    7     26    1
14    8     9     1
15    8     27    1
16    8     28    1
17    9     10    2
18    9     29    1
19    10    11    1
20    10    30    1
21    11    20    ar
22    11    12    ar
23    12    13    ar
24    12    31    1
25    13    14    ar
26    14    15    ar
27    14    32    1
28    15    16    1
29    15    20    ar
30    16    17    1
31    17    18    1
32    17    19    1
33    17    33    1
34    18    34    1
35    18    35    1
36    18    36    1
37    19    37    1
38    19    38    1
39    19    39    1
40    20    40    1
@<TRIPOS>SUBSTRUCTURE
1   ZINC000003961864 1     RESIDUE    1   A     ZIN   1
