@<TRIPOS>MOLECULE
ZINC000034016204
70    73    1     0     0
SMALL
USER_CHARGES
@<TRIPOS>ATOM
1      C1     -0.0187    1.5258    0.0104 C.3      1 ZINC000034016204   -0.1500
2      C2      0.0021   -0.0041    0.0020 C.3      1 ZINC000034016204    0.0500
3      O3      0.6709   -0.4649   -1.1737 O.3      1 ZINC000034016204   -0.2400
4      C4      0.7765   -1.8062   -1.3357 C.ar     1 ZINC000034016204    0.4300
5      N5      0.2658   -2.6194   -0.4277 N.ar     1 ZINC000034016204   -0.5400
6      C6      0.3455   -3.9313   -0.5458 C.ar     1 ZINC000034016204    0.2700
7      C7      0.9711   -4.5153   -1.6315 C.ar     1 ZINC000034016204   -0.7900
8      S8      1.0640   -6.2698   -1.7654 S.o2     1 ZINC000034016204    2.7000
9      O9      2.1743   -6.5498   -2.6069 O.2      1 ZINC000034016204   -0.9300
10     O10     0.9414   -6.7801   -0.4449 O.2      1 ZINC000034016204   -0.9300
11     N11    -0.2836   -6.7706   -2.5873 N.am     1 ZINC000034016204   -1.0100
12     C12    -1.5234   -7.1098   -1.8718 C.3      1 ZINC000034016204    0.1000
13     C13    -2.6849   -6.3569   -2.5290 C.3      1 ZINC000034016204   -0.0200
14     N14    -2.7123   -6.6589   -3.9657 N.4      1 ZINC000034016204   -0.3800
15     H15    -2.7650   -7.6579   -4.0971 H        1 ZINC000034016204    0.4300
16     C16    -3.8883   -6.0239   -4.5754 C.3      1 ZINC000034016204   -0.0100
17     C17    -3.9876   -6.4389   -6.0447 C.3      1 ZINC000034016204   -0.1900
18     C18    -1.4954   -6.1461   -4.6078 C.3      1 ZINC000034016204   -0.0300
19     C19    -0.2767   -6.8832   -4.0541 C.3      1 ZINC000034016204    0.1000
20     C20     1.5238   -3.7101   -2.6129 C.ar     1 ZINC000034016204    0.0700
21     C21     1.4219   -2.3227   -2.4689 C.ar     1 ZINC000034016204   -0.1400
22     C22     1.9936   -1.4177   -3.4858 C.2      1 ZINC000034016204    0.4000
23     N23     1.8754   -0.1294   -3.3004 N.2      1 ZINC000034016204   -0.4200
24     C24     2.3762    0.7590   -4.1928 C.2      1 ZINC000034016204    0.0000
25     C25     2.4358    2.1247   -4.3203 C.2      1 ZINC000034016204    0.0800
26     C26     1.8772    3.1410   -3.3579 C.3      1 ZINC000034016204   -0.0500
27     C27     0.4354    3.4734   -3.7471 C.3      1 ZINC000034016204   -0.1500
28     N28     3.0906    2.3834   -5.4720 N.pl3    1 ZINC000034016204   -0.2600
29     C29     3.3659    3.7311   -5.9761 C.3      1 ZINC000034016204    0.1200
30     C30     4.7145    4.2118   -5.4367 C.3      1 ZINC000034016204    0.0500
31     O31     4.9830    5.5264   -5.9284 O.3      1 ZINC000034016204   -0.3800
32     C32     6.2260    6.0715   -5.4814 C.3      1 ZINC000034016204    0.0300
33     N33     3.4438    1.3023   -6.0726 N.2      1 ZINC000034016204   -0.2000
34     C34     3.0651    0.2491   -5.3914 C.2      1 ZINC000034016204   -0.0600
35     C35     3.1650   -1.2094   -5.5419 C.2      1 ZINC000034016204    0.6100
36     O36     3.7188   -1.7082   -6.5038 O.2      1 ZINC000034016204   -0.4900
37     N37     2.6230   -1.9767   -4.5680 N.am     1 ZINC000034016204   -0.6500
38     H38     1.0039    1.9031    0.0027 H        1 ZINC000034016204    0.0700
39     H39    -0.5459    1.8868   -0.8726 H        1 ZINC000034016204    0.0700
40     H40    -0.5289    1.8773    0.9072 H        1 ZINC000034016204    0.0800
41     H41     0.5293   -0.3651    0.8851 H        1 ZINC000034016204    0.0700
42     H42    -1.0205   -0.3814    0.0098 H        1 ZINC000034016204    0.0700
43     H43    -0.0854   -4.5599    0.2194 H        1 ZINC000034016204    0.1800
44     H44    -1.7006   -8.1834   -1.9347 H        1 ZINC000034016204    0.1100
45     H45    -1.4371   -6.8104   -0.8273 H        1 ZINC000034016204    0.1400
46     H46    -3.6247   -6.6697   -2.0738 H        1 ZINC000034016204    0.1500
47     H47    -2.5506   -5.2848   -2.3855 H        1 ZINC000034016204    0.1300
48     H48    -4.7873   -6.3407   -4.0468 H        1 ZINC000034016204    0.1300
49     H49    -3.7910   -4.9402   -4.5097 H        1 ZINC000034016204    0.1300
50     H50    -3.0886   -6.1221   -6.5733 H        1 ZINC000034016204    0.0800
51     H51    -4.0849   -7.5226   -6.1104 H        1 ZINC000034016204    0.0800
52     H52    -4.8602   -5.9677   -6.4971 H        1 ZINC000034016204    0.1100
53     H53    -1.5587   -6.3036   -5.6845 H        1 ZINC000034016204    0.1500
54     H54    -1.3971   -5.0803   -4.4014 H        1 ZINC000034016204    0.1300
55     H55     0.6340   -6.4364   -4.4530 H        1 ZINC000034016204    0.1400
56     H56    -0.3258   -7.9351   -4.3354 H        1 ZINC000034016204    0.1100
57     H57     2.0180   -4.1426   -3.4703 H        1 ZINC000034016204    0.1600
58     H58     1.8959    2.7330   -2.3473 H        1 ZINC000034016204    0.1000
59     H59     2.4818    4.0473   -3.3951 H        1 ZINC000034016204    0.0800
60     H60     0.4167    3.8814   -4.7577 H        1 ZINC000034016204    0.0500
61     H61    -0.1691    2.5672   -3.7099 H        1 ZINC000034016204    0.0600
62     H62     0.0314    4.2085   -3.0510 H        1 ZINC000034016204    0.0700
63     H63     3.3961    3.7124   -7.0656 H        1 ZINC000034016204    0.1200
64     H64     2.5797    4.4101   -5.6461 H        1 ZINC000034016204    0.1200
65     H65     4.6843    4.2305   -4.3473 H        1 ZINC000034016204    0.0600
66     H66     5.5007    3.5328   -5.7668 H        1 ZINC000034016204    0.0600
67     H67     6.2272    6.1288   -4.3930 H        1 ZINC000034016204    0.0500
68     H68     7.0436    5.4311   -5.8124 H        1 ZINC000034016204    0.0500
69     H69     6.3555    7.0704   -5.8980 H        1 ZINC000034016204    0.1000
70     H70     2.6741   -2.9426   -4.6410 H        1 ZINC000034016204    0.4200
@<TRIPOS>BOND
1     1     2     1
2     1     38    1
3     1     39    1
4     1     40    1
5     2     3     1
6     2     41    1
7     2     42    1
8     3     4     1
9     4     21    ar
10    4     5     ar
11    5     6     ar
12    6     7     ar
13    6     43    1
14    7     8     1
15    7     20    ar
16    8     9     2
17    8     10    2
18    8     11    am
19    11    19    1
20    11    12    1
21    12    13    1
22    12    44    1
23    12    45    1
24    13    14    1
25    13    46    1
26    13    47    1
27    14    15    1
28    14    16    1
29    14    18    1
30    16    17    1
31    16    48    1
32    16    49    1
33    17    50    1
34    17    51    1
35    17    52    1
36    18    19    1
37    18    53    1
38    18    54    1
39    19    55    1
40    19    56    1
41    20    21    ar
42    20    57    1
43    21    22    1
44    22    37    1
45    22    23    2
46    23    24    1
47    24    34    1
48    24    25    2
49    25    26    1
50    25    28    1
51    26    27    1
52    26    58    1
53    26    59    1
54    27    60    1
55    27    61    1
56    27    62    1
57    28    29    1
58    28    33    1
59    29    30    1
60    29    63    1
61    29    64    1
62    30    31    1
63    30    65    1
64    30    66    1
65    31    32    1
66    32    67    1
67    32    68    1
68    32    69    1
69    33    34    2
70    34    35    1
71    35    36    2
72    35    37    am
73    37    70    1
@<TRIPOS>SUBSTRUCTURE
1   ZINC000034016204 1     RESIDUE    1   A     ZIN   1
