@<TRIPOS>MOLECULE
ZINC000013492903
34    36    1     0     0
SMALL
USER_CHARGES
@<TRIPOS>ATOM
1      N1     -0.0167    1.3814    0.0096 N.pl3    1 ZINC000013492903   -0.8400
2      C2      0.0021   -0.0041    0.0020 C.ar     1 ZINC000013492903    0.4600
3      C3     -1.1909   -0.7347    0.0037 C.ar     1 ZINC000013492903   -0.0700
4      N4     -2.5258   -0.4033    0.0117 N.pl3    1 ZINC000013492903   -0.5700
5      C5     -3.2835   -1.5374    0.0092 C.2      1 ZINC000013492903    0.0900
6      C6     -2.4852   -2.6214   -0.0004 C.2      1 ZINC000013492903   -0.1700
7      C7     -2.9297   -4.0613   -0.0069 C.3      1 ZINC000013492903    0.1600
8      H8     -2.2467   -4.6579   -0.6116 H        1 ZINC000013492903    0.1200
9      N9     -4.3021   -4.1626   -0.5489 N.3      1 ZINC000013492903   -0.6400
10     C10    -4.9590   -5.2550    0.2136 C.3      1 ZINC000013492903    0.0800
11     H11    -4.6519   -6.2289   -0.1677 H        1 ZINC000013492903    0.1100
12     C12    -6.4813   -5.1115    0.1596 C.3      1 ZINC000013492903    0.0800
13     O13    -6.9321   -5.3196   -1.1803 O.3      1 ZINC000013492903   -0.5600
14     C14    -4.4370   -5.0435    1.6570 C.3      1 ZINC000013492903    0.0400
15     H15    -5.0025   -4.2595    2.1606 H        1 ZINC000013492903    0.0700
16     O16    -4.4952   -6.2630    2.3996 O.3      1 ZINC000013492903   -0.5400
17     C17    -2.9668   -4.6053    1.4333 C.3      1 ZINC000013492903    0.0600
18     H18    -2.6938   -3.8219    2.1403 H        1 ZINC000013492903    0.0700
19     O19    -2.0892   -5.7246    1.5713 O.3      1 ZINC000013492903   -0.5400
20     C20    -1.1083   -2.1385   -0.0043 C.ar     1 ZINC000013492903    0.1700
21     N21     0.0942   -2.7194   -0.0124 N.ar     1 ZINC000013492903   -0.5200
22     C22     1.1871   -1.9881   -0.0130 C.ar     1 ZINC000013492903    0.3200
23     N23     1.1543   -0.6674   -0.0125 N.ar     1 ZINC000013492903   -0.5700
24     H24     0.8166    1.8778    0.0043 H        1 ZINC000013492903    0.4100
25     H25    -0.8633    1.8549    0.0162 H        1 ZINC000013492903    0.4100
26     H26    -2.8758    0.5013    0.0185 H        1 ZINC000013492903    0.4200
27     H27    -4.3632   -1.5622    0.0147 H        1 ZINC000013492903    0.1800
28     H28    -4.8005   -3.2926   -0.4362 H        1 ZINC000013492903    0.3300
29     H29    -6.9394   -5.8513    0.8161 H        1 ZINC000013492903    0.0600
30     H30    -6.7637   -4.1109    0.4868 H        1 ZINC000013492903    0.0400
31     H31    -7.8899   -5.2435   -1.2893 H        1 ZINC000013492903    0.3800
32     H32    -4.1794   -6.1845    3.3102 H        1 ZINC000013492903    0.3800
33     H33    -2.1077   -6.1332    2.4476 H        1 ZINC000013492903    0.3800
34     H34     2.1460   -2.4850   -0.0193 H        1 ZINC000013492903    0.2000
@<TRIPOS>BOND
1     1     2     1
2     1     24    1
3     1     25    1
4     2     23    ar
5     2     3     ar
6     3     20    ar
7     3     4     1
8     4     5     1
9     4     26    1
10    5     6     2
11    5     27    1
12    6     7     1
13    6     20    1
14    7     8     1
15    7     17    1
16    7     9     1
17    9     10    1
18    9     28    1
19    10    11    1
20    10    12    1
21    10    14    1
22    12    13    1
23    12    29    1
24    12    30    1
25    13    31    1
26    14    15    1
27    14    16    1
28    14    17    1
29    16    32    1
30    17    18    1
31    17    19    1
32    19    33    1
33    20    21    ar
34    21    22    ar
35    22    23    ar
36    22    34    1
@<TRIPOS>SUBSTRUCTURE
1   ZINC000013492903 1     RESIDUE    1   A     ZIN   1
