@<TRIPOS>MOLECULE
ZINC000028965775
53    54    1     0     0
SMALL
USER_CHARGES
@<TRIPOS>ATOM
1      C1     -0.0173    1.4248    0.0099 C.3      1 ZINC000028965775    0.0200
2      O2      0.0021   -0.0041    0.0020 O.3      1 ZINC000028965775   -0.3100
3      C3     -1.1998   -0.6372    0.0101 C.ar     1 ZINC000028965775    0.2100
4      C4     -2.3721    0.1058    0.0195 C.ar     1 ZINC000028965775   -0.3400
5      C5     -3.5999   -0.5329    0.0273 C.ar     1 ZINC000028965775    0.2300
6      O6     -4.7461    0.1957    0.0360 O.3      1 ZINC000028965775   -0.3000
7      C7     -4.6106    1.6183    0.0366 C.3      1 ZINC000028965775    0.0200
8      C8     -3.6577   -1.9320    0.0257 C.ar     1 ZINC000028965775   -0.1900
9      C9     -4.9636   -2.6199    0.0335 C.2      1 ZINC000028965775    0.0800
10     C10    -5.2123   -3.5815   -0.8466 C.2      1 ZINC000028965775   -0.7200
11     S11    -6.7712   -4.4027   -0.8373 S.o2     1 ZINC000028965775    2.4800
12     O12    -6.4393   -5.7842   -0.8157 O.2      1 ZINC000028965775   -0.9400
13     O13    -7.4773   -3.8019    0.2396 O.2      1 ZINC000028965775   -0.9400
14     C14    -7.5283   -3.9546   -2.4236 C.3      1 ZINC000028965775   -0.5400
15     C15    -8.8833   -4.6047   -2.5350 C.ar     1 ZINC000028965775   -0.1300
16     C16    -9.0000   -5.8643   -3.0918 C.ar     1 ZINC000028965775   -0.0800
17     C17   -10.2411   -6.4650   -3.1967 C.ar     1 ZINC000028965775   -0.2000
18     C18   -11.3709   -5.8044   -2.7427 C.ar     1 ZINC000028965775    0.1300
19     O19   -12.5921   -6.3939   -2.8447 O.3      1 ZINC000028965775   -0.3000
20     C20   -12.6369   -7.6964   -3.4308 C.3      1 ZINC000028965775    0.0300
21     C21   -11.2533   -4.5360   -2.1815 C.ar     1 ZINC000028965775    0.1200
22     O22   -12.3594   -3.8836   -1.7340 O.3      1 ZINC000028965775   -0.6400
23     P23   -12.8504   -2.6904   -2.6970 P.3      1 ZINC000028965775    2.1700
24     O24   -13.0703   -3.2382   -4.1247 O.2      1 ZINC000028965775   -1.0800
25     O25   -11.7758   -1.5808   -2.7310 O.3      1 ZINC000028965775   -1.0900
26     O26   -14.2319   -2.0825   -2.1367 O.3      1 ZINC000028965775   -0.8900
27     C27   -10.0064   -3.9421   -2.0748 C.ar     1 ZINC000028965775   -0.0900
28     C28    -2.4712   -2.6756    0.0162 C.ar     1 ZINC000028965775    0.2200
29     O29    -2.5186   -4.0330    0.0141 O.3      1 ZINC000028965775   -0.2900
30     C30    -1.2688   -4.7258    0.0043 C.3      1 ZINC000028965775    0.0200
31     C31    -1.2501   -2.0242    0.0031 C.ar     1 ZINC000028965775   -0.2800
32     H32     1.0053    1.8021    0.0021 H        1 ZINC000028965775    0.1000
33     H33    -0.5445    1.7859   -0.8732 H        1 ZINC000028965775    0.0600
34     H34    -0.5275    1.7763    0.9067 H        1 ZINC000028965775    0.0600
35     H35    -2.3260    1.1848    0.0211 H        1 ZINC000028965775    0.1400
36     H36    -5.5991    2.0774    0.0440 H        1 ZINC000028965775    0.1100
37     H37    -4.0585    1.9302    0.9232 H        1 ZINC000028965775    0.0600
38     H38    -4.0708    1.9322   -0.8567 H        1 ZINC000028965775    0.0600
39     H39    -5.7167   -2.3407    0.7554 H        1 ZINC000028965775    0.1500
40     H40    -4.4591   -3.8607   -1.5686 H        1 ZINC000028965775    0.1600
41     H41    -7.6391   -2.8717   -2.4803 H        1 ZINC000028965775    0.1500
42     H42    -6.8924   -4.2979   -3.2396 H        1 ZINC000028965775    0.1400
43     H43    -8.1199   -6.3804   -3.4461 H        1 ZINC000028965775    0.1300
44     H44   -10.3297   -7.4490   -3.6328 H        1 ZINC000028965775    0.1400
45     H45   -13.6676   -8.0503   -3.4515 H        1 ZINC000028965775    0.1000
46     H46   -12.2479   -7.6507   -4.4480 H        1 ZINC000028965775    0.0600
47     H47   -12.0293   -8.3818   -2.8399 H        1 ZINC000028965775    0.0500
48     H48   -14.5871   -1.3575   -2.6689 H        1 ZINC000028965775    0.4200
49     H49    -9.9124   -2.9580   -1.6398 H        1 ZINC000028965775    0.1600
50     H50    -1.4493   -5.8007    0.0036 H        1 ZINC000028965775    0.1100
51     H51    -0.7081   -4.4509   -0.8891 H        1 ZINC000028965775    0.0600
52     H52    -0.6958   -4.4541    0.8908 H        1 ZINC000028965775    0.0600
53     H53    -0.3342   -2.5965   -0.0042 H        1 ZINC000028965775    0.1400
@<TRIPOS>BOND
1     1     2     1
2     1     32    1
3     1     33    1
4     1     34    1
5     2     3     1
6     3     31    ar
7     3     4     ar
8     4     5     ar
9     4     35    1
10    5     6     1
11    5     8     ar
12    6     7     1
13    7     36    1
14    7     37    1
15    7     38    1
16    8     9     1
17    8     28    ar
18    9     10    2
19    9     39    1
20    10    11    1
21    10    40    1
22    11    12    2
23    11    13    2
24    11    14    1
25    14    15    1
26    14    41    1
27    14    42    1
28    15    27    ar
29    15    16    ar
30    16    17    ar
31    16    43    1
32    17    18    ar
33    17    44    1
34    18    19    1
35    18    21    ar
36    19    20    1
37    20    45    1
38    20    46    1
39    20    47    1
40    21    22    1
41    21    27    ar
42    22    23    1
43    23    24    2
44    23    25    1
45    23    26    1
46    26    48    1
47    27    49    1
48    28    29    1
49    28    31    ar
50    29    30    1
51    30    50    1
52    30    51    1
53    30    52    1
54    31    53    1
@<TRIPOS>SUBSTRUCTURE
1   ZINC000028965775 1     RESIDUE    1   A     ZIN   1
