@<TRIPOS>MOLECULE
ZINC000053046001
  59   63    0    0    0
SMALL
USER_CHARGES
NO_NAME
@<TRIPOS>ATOM
    1 O1        0.0021    -0.0041     0.0020 O.2    1 <0>      -0.5200
    2 C2       -0.0144     1.2086     0.0087 C.2    1 <0>       0.5300
    3 N3        1.1435     1.8983     0.0013 N.am   1 <0>      -0.7300
    4 C4        2.4220     1.1832    -0.0147 C.3    1 <0>       0.0900
    5 C5        3.5713     2.1931    -0.0203 C.3    1 <0>      -0.0200
    6 N6        4.8533     1.4760    -0.0364 N.4    1 <0>      -0.3800
    7 H7        4.8867     0.8318     0.7395 H      1 <0>       0.4300
    8 C8        5.9534     2.4411     0.0834 C.3    1 <0>      -0.0200
    9 C9        7.2840     1.6877     0.1820 C.3    1 <0>       0.1100
   10 N10       7.3937     0.7820    -0.9720 N.pl3  1 <0>      -0.6100
   11 C11       8.5310     0.7687    -1.7607 C.ar   1 <0>       0.5600
   12 N12       9.5337     1.5821    -1.4633 N.ar   1 <0>      -0.5700
   13 C13      10.6348     1.5941    -2.1963 C.ar   1 <0>       0.2000
   14 C14      10.7312     0.7425    -3.2856 C.ar   1 <0>      -0.2700
   15 C15       9.6637    -0.0952    -3.5682 C.ar   1 <0>       0.2000
   16 N16       8.5933    -0.0609    -2.7918 N.ar   1 <0>      -0.5700
   17 C17       6.2605    -0.1096    -1.2637 C.3    1 <0>       0.1100
   18 C18       4.9792     0.7304    -1.2950 C.3    1 <0>      -0.0300
   19 C19      -1.3296     1.9443     0.0189 C.3    1 <0>      -0.0700
   20 C20      -1.4285     2.8295    -1.2251 C.3    1 <0>      -0.1000
   21 C21      -2.7637     3.5764    -1.2147 C.3    1 <0>      -0.0900
   22 C22      -2.8508     4.4481     0.0397 C.3    1 <0>      -0.1100
   23 C23      -2.7519     3.5628     1.2837 C.3    1 <0>      -0.0900
   24 C24      -3.9012     2.5529     1.2837 C.3    1 <0>      -0.1100
   25 C25      -3.8141     1.6813     0.0293 C.3    1 <0>      -0.0900
   26 C26      -3.9130     2.5665    -1.2147 C.3    1 <0>      -0.1100
   27 C27      -2.4789     0.9344     0.0189 C.3    1 <0>      -0.0900
   28 C28      -1.4166     2.8159     1.2733 C.3    1 <0>      -0.1000
   29 H29       1.1304     2.8682     0.0067 H      1 <0>       0.4100
   30 H30       2.4967     0.5526     0.8712 H      1 <0>       0.0900
   31 H31       2.4797     0.5621    -0.9086 H      1 <0>       0.0900
   32 H32       3.4966     2.8237    -0.9062 H      1 <0>       0.1400
   33 H33       3.5136     2.8141     0.8737 H      1 <0>       0.1400
   34 H34       5.9663     3.0882    -0.7937 H      1 <0>       0.1300
   35 H35       5.8108     3.0456     0.9791 H      1 <0>       0.1500
   36 H36       8.1096     2.3992     0.1690 H      1 <0>       0.1400
   37 H37       7.3097     1.1091     1.1054 H      1 <0>       0.0900
   38 H38      11.4487     2.2596    -1.9491 H      1 <0>       0.1800
   39 H39      11.6186     0.7321    -3.9010 H      1 <0>       0.1500
   40 H40       9.7069    -0.7705    -4.4100 H      1 <0>       0.1800
   41 H41       6.4095    -0.5863    -2.2326 H      1 <0>       0.1400
   42 H42       6.1829    -0.8696    -0.4863 H      1 <0>       0.0900
   43 H43       4.1172     0.0741    -1.4143 H      1 <0>       0.1500
   44 H44       5.0228     1.4288    -2.1308 H      1 <0>       0.1400
   45 H45      -0.6097     3.5490    -1.2250 H      1 <0>       0.0600
   46 H46      -1.3664     2.2085    -2.1187 H      1 <0>       0.0700
   47 H47      -2.8342     4.2071    -2.1009 H      1 <0>       0.0800
   48 H48      -2.0320     5.1676     0.0398 H      1 <0>       0.0600
   49 H49      -3.8020     4.9802     0.0472 H      1 <0>       0.0700
   50 H50      -2.8139     4.1838     2.1774 H      1 <0>       0.0800
   51 H51      -3.8307     1.9223     2.1699 H      1 <0>       0.0600
   52 H52      -4.8524     3.0850     1.2911 H      1 <0>       0.0700
   53 H53      -4.6329     0.9618     0.0292 H      1 <0>       0.0800
   54 H54      -4.8643     3.0986    -1.2073 H      1 <0>       0.0700
   55 H55      -3.8510     1.9455    -2.1084 H      1 <0>       0.0600
   56 H56      -2.4169     0.3134    -0.8748 H      1 <0>       0.0700
   57 H57      -2.4084     0.3037     0.9051 H      1 <0>       0.0700
   58 H58      -1.3462     2.1853     2.1596 H      1 <0>       0.0700
   59 H59      -0.5978     3.5354     1.2734 H      1 <0>       0.0600
@<TRIPOS>BOND
   1    1    2 2
   2    2    3 am
   3    2   19 1
   4    3    4 1
   5    3   29 1
   6    4    5 1
   7    4   30 1
   8    4   31 1
   9    5    6 1
  10    5   32 1
  11    5   33 1
  12    6    7 1
  13    6   18 1
  14    6    8 1
  15    8    9 1
  16    8   34 1
  17    8   35 1
  18    9   10 1
  19    9   36 1
  20    9   37 1
  21   10   11 1
  22   10   17 1
  23   11   16 ar
  24   11   12 ar
  25   12   13 ar
  26   13   14 ar
  27   13   38 1
  28   14   15 ar
  29   14   39 1
  30   15   16 ar
  31   15   40 1
  32   17   18 1
  33   17   41 1
  34   17   42 1
  35   18   43 1
  36   18   44 1
  37   19   27 1
  38   19   28 1
  39   19   20 1
  40   20   21 1
  41   20   45 1
  42   20   46 1
  43   21   26 1
  44   21   22 1
  45   21   47 1
  46   22   23 1
  47   22   48 1
  48   22   49 1
  49   23   24 1
  50   23   28 1
  51   23   50 1
  52   24   25 1
  53   24   51 1
  54   24   52 1
  55   25   26 1
  56   25   27 1
  57   25   53 1
  58   26   54 1
  59   26   55 1
  60   27   56 1
  61   27   57 1
  62   28   58 1
  63   28   59 1
