@<TRIPOS>MOLECULE
ZINC000005923781
  54   56    0    0    0
SMALL
USER_CHARGES
NO_NAME
@<TRIPOS>ATOM
    1 C1        0.8388     1.9770    -0.0398 C.3    1 <0>      -0.1500
    2 C2        0.2290     0.5770    -0.1351 C.3    1 <0>      -0.1400
    3 C3        0.7021    -0.2670     1.0501 C.3    1 <0>       0.1200
    4 C4        2.2313    -0.3143     1.0645 C.3    1 <0>      -0.1000
    5 C5        2.7263    -0.9469    -0.2106 C.2    1 <0>      -0.2200
    6 C6        3.5801    -0.2939    -0.9865 C.2    1 <0>      -0.0500
    7 C7        4.0656    -0.9143    -2.2371 C.ar   1 <0>      -0.0800
    8 C8        3.6228    -2.1849    -2.6067 C.ar   1 <0>      -0.1100
    9 C9        4.0799    -2.7585    -3.7753 C.ar   1 <0>      -0.1200
   10 C10       4.9757    -2.0769    -4.5797 C.ar   1 <0>      -0.1000
   11 C11       5.4189    -0.8171    -4.2187 C.ar   1 <0>      -0.1200
   12 C12       4.9643    -0.2296    -3.0560 C.ar   1 <0>      -0.1000
   13 C13       0.2064     0.3473     2.3339 C.ar   1 <0>      -0.1300
   14 C14       0.9894     0.2964     3.4719 C.ar   1 <0>      -0.1000
   15 C15       0.5347     0.8598     4.6495 C.ar   1 <0>      -0.1100
   16 C16      -0.7028     1.4746     4.6889 C.ar   1 <0>      -0.0900
   17 C17      -1.4854     1.5263     3.5506 C.ar   1 <0>      -0.1100
   18 C18      -1.0289     0.9666     2.3719 C.ar   1 <0>      -0.1000
   19 N19       0.1712    -1.6308     0.9229 N.4    1 <0>      -0.3700
   20 H20       0.5211    -2.0502     0.0745 H      1 <0>       0.4200
   21 C21       0.5983    -2.4322     2.0776 C.3    1 <0>      -0.0600
   22 C22      -1.2963    -1.5826     0.8761 C.3    1 <0>       0.0200
   23 C23      -1.8439    -2.9836     0.5965 C.3    1 <0>      -0.2100
   24 C24      -2.7046    -3.6351     1.6807 C.3    1 <0>      -0.1700
   25 C25      -3.3537    -3.1243     0.3928 C.3    1 <0>      -0.1500
   26 H26       1.9261     1.9013    -0.0503 H      1 <0>       0.0700
   27 H27       0.5081     2.5759    -0.8884 H      1 <0>       0.0800
   28 H28       0.5166     2.4513     0.8872 H      1 <0>       0.0700
   29 H29      -0.8582     0.6522    -0.1166 H      1 <0>       0.0900
   30 H30       0.5449     0.1058    -1.0658 H      1 <0>       0.0900
   31 H31       2.6254     0.6989     1.1443 H      1 <0>       0.1200
   32 H32       2.5686    -0.9035     1.9172 H      1 <0>       0.1000
   33 H33       2.3855    -1.9322    -0.4922 H      1 <0>       0.1100
   34 H34       3.9209     0.6915    -0.7048 H      1 <0>       0.1300
   35 H35       2.9241    -2.7183    -1.9793 H      1 <0>       0.1200
   36 H36       3.7380    -3.7419    -4.0626 H      1 <0>       0.1300
   37 H37       5.3307    -2.5305    -5.4933 H      1 <0>       0.1300
   38 H38       6.1187    -0.2905    -4.8506 H      1 <0>       0.1300
   39 H39       5.3108     0.7540    -2.7753 H      1 <0>       0.1300
   40 H40       1.9562    -0.1839     3.4412 H      1 <0>       0.1300
   41 H41       1.1462     0.8194     5.5388 H      1 <0>       0.1400
   42 H42      -1.0583     1.9142     5.6091 H      1 <0>       0.1300
   43 H43      -2.4524     2.0063     3.5815 H      1 <0>       0.1300
   44 H44      -1.6403     1.0070     1.4826 H      1 <0>       0.1300
   45 H45       0.1559    -2.0244     2.9865 H      1 <0>       0.1200
   46 H46       0.2709    -3.4634     1.9452 H      1 <0>       0.1300
   47 H47       1.6849    -2.4035     2.1579 H      1 <0>       0.1200
   48 H48      -1.6788    -1.2273     1.8330 H      1 <0>       0.1300
   49 H49      -1.6125    -0.9041     0.0839 H      1 <0>       0.1300
   50 H50      -1.1943    -3.6340     0.0107 H      1 <0>       0.1200
   51 H51      -2.6213    -4.7144     1.8086 H      1 <0>       0.1100
   52 H52      -2.8808    -3.0657     2.5933 H      1 <0>       0.1000
   53 H53      -3.9569    -2.2188     0.4581 H      1 <0>       0.1100
   54 H54      -3.6974    -3.8676    -0.3266 H      1 <0>       0.1100
@<TRIPOS>BOND
   1    1    2 1
   2    1   26 1
   3    1   27 1
   4    1   28 1
   5    2    3 1
   6    2   29 1
   7    2   30 1
   8    3    4 1
   9    3   13 1
  10    3   19 1
  11    4    5 1
  12    4   31 1
  13    4   32 1
  14    5    6 2
  15    5   33 1
  16    6    7 1
  17    6   34 1
  18    7   12 ar
  19    7    8 ar
  20    8    9 ar
  21    8   35 1
  22    9   10 ar
  23    9   36 1
  24   10   11 ar
  25   10   37 1
  26   11   12 ar
  27   11   38 1
  28   12   39 1
  29   13   18 ar
  30   13   14 ar
  31   14   15 ar
  32   14   40 1
  33   15   16 ar
  34   15   41 1
  35   16   17 ar
  36   16   42 1
  37   17   18 ar
  38   17   43 1
  39   18   44 1
  40   19   20 1
  41   19   21 1
  42   19   22 1
  43   21   45 1
  44   21   46 1
  45   21   47 1
  46   22   23 1
  47   22   48 1
  48   22   49 1
  49   23   25 1
  50   23   24 1
  51   23   50 1
  52   24   25 1
  53   24   51 1
  54   24   52 1
  55   25   53 1
  56   25   54 1
