@<TRIPOS>MOLECULE
ZINC000001491474
38    38    1     0     0
SMALL
USER_CHARGES
@<TRIPOS>ATOM
1      N1     -0.0116    1.0048    0.0076 N.4      1 ZINC000001491474   -0.6100
2      H2      0.0021   -0.0041    0.0020 H        1 ZINC000001491474    0.4300
3      H3      0.9350    1.3541    0.0004 H        1 ZINC000001491474    0.4400
4      H4     -0.4996    1.3391   -0.8099 H        1 ZINC000001491474    0.4100
5      C5     -0.6992    1.4786    1.2162 C.3      1 ZINC000001491474   -0.0400
6      H6     -0.7140    2.5685    1.2222 H        1 ZINC000001491474    0.1400
7      C7     -2.1346    0.9490    1.2270 C.3      1 ZINC000001491474   -0.0900
8      C8     -2.8990    1.5459    0.0736 C.ar     1 ZINC000001491474   -0.0800
9      C9     -3.5777    2.7389    0.2378 C.ar     1 ZINC000001491474   -0.1000
10     C10    -4.2789    3.2865   -0.8202 C.ar     1 ZINC000001491474   -0.0500
11     C11    -4.3010    2.6413   -2.0425 C.ar     1 ZINC000001491474    0.0100
12     N12    -5.0105    3.1948   -3.1124 N.4      1 ZINC000001491474   -0.0700
13     O13    -5.0227    4.6524   -2.9874 O.3      1 ZINC000001491474   -0.6200
14     C14    -4.3641    2.8172   -4.3763 C.3      1 ZINC000001491474    0.0000
15     C15    -2.8920    3.2327   -4.3404 C.3      1 ZINC000001491474   -0.0500
16     Cl16   -2.0986    2.7692   -5.8917 Cl       1 ZINC000001491474   -0.1600
17     C17    -6.3901    2.6905   -3.0982 C.3      1 ZINC000001491474    0.0100
18     C18    -7.1310    3.1969   -4.3374 C.3      1 ZINC000001491474   -0.0500
19     Cl19   -8.8243    2.5779   -4.3200 Cl       1 ZINC000001491474   -0.1500
20     C20    -3.6211    1.4490   -2.2071 C.ar     1 ZINC000001491474   -0.1200
21     C21    -2.9168    0.9034   -1.1502 C.ar     1 ZINC000001491474   -0.1300
22     C22     0.0297    0.9794    2.4371 C.2      1 ZINC000001491474    0.4900
23     O23     1.0293    0.2926    2.3120 O.co2    1 ZINC000001491474   -0.6700
24     O24    -0.3802    1.2622    3.5499 O.co2    1 ZINC000001491474   -0.6300
25     H25    -2.1220   -0.1367    1.1315 H        1 ZINC000001491474    0.1000
26     H26    -2.6169    1.2257    2.1646 H        1 ZINC000001491474    0.1300
27     H27    -3.5605    3.2430    1.1928 H        1 ZINC000001491474    0.1500
28     H28    -4.8098    4.2182   -0.6917 H        1 ZINC000001491474    0.1600
29     H29    -4.4337    1.7378   -4.5118 H        1 ZINC000001491474    0.1000
30     H30    -4.8635    3.3202   -5.2044 H        1 ZINC000001491474    0.1300
31     H31    -2.8224    4.3120   -4.2050 H        1 ZINC000001491474    0.1200
32     H32    -2.3926    2.7296   -3.5124 H        1 ZINC000001491474    0.1000
33     H33    -6.3787    1.6006   -3.1018 H        1 ZINC000001491474    0.1000
34     H34    -6.8975    3.0456   -2.2012 H        1 ZINC000001491474    0.1200
35     H35    -7.1425    4.2868   -4.3338 H        1 ZINC000001491474    0.1200
36     H36    -6.6236    2.8418   -5.2344 H        1 ZINC000001491474    0.1000
37     H37    -3.6380    0.9451   -3.1622 H        1 ZINC000001491474    0.1400
38     H38    -2.3856   -0.0281   -1.2788 H        1 ZINC000001491474    0.1400
@<TRIPOS>BOND
1     1     2     1
2     1     3     1
3     1     4     1
4     1     5     1
5     5     6     1
6     5     7     1
7     5     22    1
8     7     8     1
9     7     25    1
10    7     26    1
11    8     21    ar
12    8     9     ar
13    9     10    ar
14    9     27    1
15    10    11    ar
16    10    28    1
17    11    12    1
18    11    20    ar
19    12    13    1
20    12    14    1
21    12    17    1
22    14    15    1
23    14    29    1
24    14    30    1
25    15    16    1
26    15    31    1
27    15    32    1
28    17    18    1
29    17    33    1
30    17    34    1
31    18    19    1
32    18    35    1
33    18    36    1
34    20    21    ar
35    20    37    1
36    21    38    1
37    22    23    ar
38    22    24    ar
@<TRIPOS>SUBSTRUCTURE
1   ZINC000001491474 1     RESIDUE    1   A     ZIN   1
