@<TRIPOS>MOLECULE
ZINC000005497159
43    45    1     0     0
SMALL
USER_CHARGES
@<TRIPOS>ATOM
1      C1     -0.2800    1.7477    0.3078 C.3      1 ZINC000005497159   -0.1200
2      C2     -0.1621    0.2476    0.0309 C.3      1 ZINC000005497159    0.0000
3      C3     -1.5388   -0.4192    0.0016 C.3      1 ZINC000005497159   -0.1500
4      S4      0.7756   -0.0768   -1.5216 S.3      1 ZINC000005497159   -0.3000
5      C5      1.4435   -1.6945   -0.9692 C.3      1 ZINC000005497159    0.0900
6      H6      2.4601   -1.8955   -1.3073 H        1 ZINC000005497159    0.1600
7      C7      0.4628   -2.8512   -1.1533 C.3      1 ZINC000005497159    0.0800
8      H8      0.9155   -3.7693   -1.5277 H        1 ZINC000005497159    0.1500
9      N9     -0.7760   -2.4888   -1.8463 N.am     1 ZINC000005497159   -0.6700
10     C10    -1.5333   -3.4460   -2.4177 C.2      1 ZINC000005497159    0.5100
11     O11    -1.1893   -4.6075   -2.3582 O.2      1 ZINC000005497159   -0.5200
12     C12    -2.8076   -3.0732   -3.1306 C.3      1 ZINC000005497159    0.0700
13     H13    -2.6521   -2.1546   -3.6963 H        1 ZINC000005497159    0.1700
14     N14    -3.1896   -4.1547   -4.0485 N.4      1 ZINC000005497159   -0.6200
15     H15    -2.4548   -4.2967   -4.7252 H        1 ZINC000005497159    0.4400
16     H16    -3.3336   -5.0051   -3.5249 H        1 ZINC000005497159    0.4400
17     H17    -4.0428   -3.9051   -4.5258 H        1 ZINC000005497159    0.4400
18     C18    -3.9051   -2.8611   -2.1198 C.ar     1 ZINC000005497159   -0.1600
19     C19    -4.5624   -3.9483   -1.5749 C.ar     1 ZINC000005497159   -0.1100
20     C20    -5.5691   -3.7537   -0.6477 C.ar     1 ZINC000005497159   -0.1000
21     C21    -5.9181   -2.4720   -0.2652 C.ar     1 ZINC000005497159   -0.0800
22     C22    -5.2602   -1.3849   -0.8094 C.ar     1 ZINC000005497159   -0.1000
23     C23    -4.2506   -1.5796   -1.7334 C.ar     1 ZINC000005497159   -0.0800
24     C24     0.3839   -2.7647    0.3474 C.2      1 ZINC000005497159    0.4700
25     O25    -0.2328   -3.4172    1.1628 O.2      1 ZINC000005497159   -0.3700
26     N26     1.2510   -1.7103    0.4878 N.am     1 ZINC000005497159   -0.4900
27     C27     0.7813   -0.4452    1.0548 C.3      1 ZINC000005497159    0.0200
28     H28     1.6351    0.1937    1.2807 H        1 ZINC000005497159    0.1100
29     C29     0.0035   -0.7147    2.3171 C.2      1 ZINC000005497159    0.5000
30     O30    -0.1231   -1.8574    2.7229 O.co2    1 ZINC000005497159   -0.6400
31     O31    -0.4991    0.2100    2.9326 O.co2    1 ZINC000005497159   -0.6700
32     H32     0.7053    2.2086    0.2376 H        1 ZINC000005497159    0.0700
33     H33    -0.9464    2.2013   -0.4257 H        1 ZINC000005497159    0.0600
34     H34    -0.6827    1.9018    1.3089 H        1 ZINC000005497159    0.1000
35     H35    -2.0983   -0.0598   -0.8621 H        1 ZINC000005497159    0.0600
36     H36    -1.4176   -1.5002   -0.0683 H        1 ZINC000005497159    0.0600
37     H37    -2.0814   -0.1727    0.9142 H        1 ZINC000005497159    0.0900
38     H38    -1.0512   -1.5598   -1.8939 H        1 ZINC000005497159    0.4200
39     H39    -4.2897   -4.9496   -1.8738 H        1 ZINC000005497159    0.1200
40     H40    -6.0831   -4.6030   -0.2225 H        1 ZINC000005497159    0.1400
41     H41    -6.7051   -2.3200    0.4587 H        1 ZINC000005497159    0.1400
42     H42    -5.5332   -0.3836   -0.5108 H        1 ZINC000005497159    0.1400
43     H43    -3.7366   -0.7303   -2.1586 H        1 ZINC000005497159    0.1400
@<TRIPOS>BOND
1     1     2     1
2     1     32    1
3     1     33    1
4     1     34    1
5     2     27    1
6     2     3     1
7     2     4     1
8     3     35    1
9     3     36    1
10    3     37    1
11    4     5     1
12    5     6     1
13    5     26    1
14    5     7     1
15    7     8     1
16    7     9     1
17    7     24    1
18    9     10    am
19    9     38    1
20    10    11    2
21    10    12    1
22    12    13    1
23    12    14    1
24    12    18    1
25    14    15    1
26    14    16    1
27    14    17    1
28    18    23    ar
29    18    19    ar
30    19    20    ar
31    19    39    1
32    20    21    ar
33    20    40    1
34    21    22    ar
35    21    41    1
36    22    23    ar
37    22    42    1
38    23    43    1
39    24    25    2
40    24    26    am
41    26    27    1
42    27    28    1
43    27    29    1
44    29    30    ar
45    29    31    ar
@<TRIPOS>SUBSTRUCTURE
1   ZINC000005497159 1     RESIDUE    1   A     ZIN   1
