@<TRIPOS>MOLECULE
ZINC000005649505
  47   49    0    0    0
SMALL
USER_CHARGES
NO_NAME
@<TRIPOS>ATOM
    1 C1       -0.0187     1.5258     0.0104 C.3    1 <0>      -0.1500
    2 C2        0.0021    -0.0041     0.0020 C.3    1 <0>      -0.1200
    3 C3        0.7182    -0.4975    -1.2568 C.3    1 <0>      -0.0800
    4 C4        0.7386    -2.0043    -1.2651 C.ar   1 <0>      -0.0300
    5 C5        1.7877    -2.6827    -0.6751 C.ar   1 <0>      -0.1800
    6 C6        1.8014    -4.0698    -0.6796 C.ar   1 <0>       0.1500
    7 O7        2.8311    -4.7391    -0.0976 O.3    1 <0>      -0.4900
    8 C8        0.7675    -4.7753    -1.2757 C.ar   1 <0>      -0.1800
    9 C9       -0.2831    -4.0952    -1.8770 C.ar   1 <0>       0.1600
   10 C10      -0.2932    -2.7036    -1.8569 C.ar   1 <0>      -0.1600
   11 O11      -1.3046    -4.7399    -2.4979 O.3    1 <0>      -0.3100
   12 C12      -1.4522    -6.1534    -2.3261 C.3    1 <0>       0.1200
   13 C13      -2.0447    -6.4489    -0.9467 C.3    1 <0>      -0.1800
   14 C14      -2.3687    -6.7151    -3.4149 C.3    1 <0>      -0.1400
   15 C15      -0.0670    -6.7827    -2.4393 C.3    1 <0>      -0.1100
   16 H16       0.3948    -6.4773    -3.3782 H      1 <0>       0.0800
   17 C17      -0.0977    -8.3064    -2.3600 C.3    1 <0>      -0.1100
   18 C18       1.3167    -8.8172    -2.6589 C.3    1 <0>      -0.0800
   19 C19       2.3565    -8.0072    -1.9460 C.2    1 <0>      -0.1300
   20 C20       3.7650    -8.5428    -1.9336 C.3    1 <0>      -0.1200
   21 C21       2.1397    -6.8776    -1.3370 C.2    1 <0>      -0.1600
   22 C22       0.7763    -6.2730    -1.2664 C.3    1 <0>      -0.0100
   23 H23       0.3054    -6.6009    -0.3396 H      1 <0>       0.0900
   24 H24       1.0039     1.9031     0.0027 H      1 <0>       0.0600
   25 H25      -0.5459     1.8868    -0.8726 H      1 <0>       0.0600
   26 H26      -0.5289     1.8773     0.9072 H      1 <0>       0.0600
   27 H27       0.5293    -0.3651     0.8851 H      1 <0>       0.0600
   28 H28      -1.0205    -0.3814     0.0098 H      1 <0>       0.0600
   29 H29       0.1910    -0.1364    -2.1398 H      1 <0>       0.0800
   30 H30       1.7408    -0.1202    -1.2645 H      1 <0>       0.0800
   31 H31       2.5949    -2.1346    -0.2121 H      1 <0>       0.1300
   32 H32       2.6910    -4.9396     0.8379 H      1 <0>       0.3900
   33 H33      -1.1106    -2.1669    -2.3154 H      1 <0>       0.1300
   34 H34      -3.0208    -5.9716    -0.8607 H      1 <0>       0.0700
   35 H35      -2.1547    -7.5261    -0.8217 H      1 <0>       0.0800
   36 H36      -1.3806    -6.0595    -0.1751 H      1 <0>       0.0600
   37 H37      -1.9345    -6.5146    -4.3944 H      1 <0>       0.0700
   38 H38      -2.4773    -7.7911    -3.2789 H      1 <0>       0.0800
   39 H39      -3.3473    -6.2397    -3.3470 H      1 <0>       0.0700
   40 H40      -0.3996    -8.6183    -1.3602 H      1 <0>       0.0700
   41 H41      -0.7965    -8.7008    -3.0977 H      1 <0>       0.0700
   42 H42       1.3947    -9.8565    -2.3399 H      1 <0>       0.0700
   43 H43       1.4961    -8.7611    -3.7325 H      1 <0>       0.0700
   44 H44       4.3055    -8.1638    -2.8010 H      1 <0>       0.0600
   45 H45       4.2685    -8.2201    -1.0223 H      1 <0>       0.0600
   46 H46       3.7399    -9.6319    -1.9686 H      1 <0>       0.0600
   47 H47       2.9674    -6.3651    -0.8694 H      1 <0>       0.1500
@<TRIPOS>BOND
   1    1    2 1
   2    1   24 1
   3    1   25 1
   4    1   26 1
   5    2    3 1
   6    2   27 1
   7    2   28 1
   8    3    4 1
   9    3   29 1
  10    3   30 1
  11    4   10 ar
  12    4    5 ar
  13    5    6 ar
  14    5   31 1
  15    6    7 1
  16    6    8 ar
  17    7   32 1
  18    8   22 1
  19    8    9 ar
  20    9   10 ar
  21    9   11 1
  22   10   33 1
  23   11   12 1
  24   12   13 1
  25   12   14 1
  26   12   15 1
  27   13   34 1
  28   13   35 1
  29   13   36 1
  30   14   37 1
  31   14   38 1
  32   14   39 1
  33   15   16 1
  34   15   22 1
  35   15   17 1
  36   17   18 1
  37   17   40 1
  38   17   41 1
  39   18   19 1
  40   18   42 1
  41   18   43 1
  42   19   20 1
  43   19   21 2
  44   20   44 1
  45   20   45 1
  46   20   46 1
  47   21   22 1
  48   21   47 1
  49   22   23 1
