@<TRIPOS>MOLECULE
ZINC000002016002
32    33    1     0     0
SMALL
USER_CHARGES
@<TRIPOS>ATOM
1      N1     -0.0116    1.0048    0.0076 N.4      1 ZINC000002016002   -0.6400
2      H2      0.0021   -0.0041    0.0020 H        1 ZINC000002016002    0.4400
3      H3      0.9350    1.3541    0.0004 H        1 ZINC000002016002    0.4400
4      H4     -0.4996    1.3391   -0.8099 H        1 ZINC000002016002    0.4400
5      C5     -0.6992    1.4786    1.2162 C.3      1 ZINC000002016002    0.0000
6      C6      0.0408    0.9717    2.4557 C.3      1 ZINC000002016002   -0.1400
7      H7      1.0936    1.2521    2.4209 H        1 ZINC000002016002    0.1200
8      C8     -0.1196   -0.5586    2.6088 C.3      1 ZINC000002016002   -0.1700
9      C9     -0.2338   -0.7721    4.1021 C.2      1 ZINC000002016002    0.5200
10     O10    -0.0935   -1.8375    4.6642 O.2      1 ZINC000002016002   -0.5000
11     N11    -0.5131    0.3910    4.7154 N.am     1 ZINC000002016002   -0.6100
12     C12    -0.6815    0.5428    6.1627 C.3      1 ZINC000002016002    0.1700
13     C13     0.6506    0.8571    6.7933 C.ar     1 ZINC000002016002   -0.1200
14     C14     1.4708   -0.1689    7.2240 C.ar     1 ZINC000002016002   -0.1000
15     C15     2.6927    0.1194    7.8024 C.ar     1 ZINC000002016002   -0.1200
16     C16     3.0948    1.4338    7.9496 C.ar     1 ZINC000002016002   -0.1100
17     C17     2.2750    2.4598    7.5180 C.ar     1 ZINC000002016002   -0.1200
18     C18     1.0550    2.1713    6.9357 C.ar     1 ZINC000002016002   -0.1100
19     C19    -0.6268    1.4902    3.7487 C.3      1 ZINC000002016002    0.1100
20     H20    -0.7140    2.5685    1.2222 H        1 ZINC000002016002    0.1400
21     H21    -1.7218    1.1013    1.2239 H        1 ZINC000002016002    0.1400
22     H22    -1.0237   -0.8997    2.1044 H        1 ZINC000002016002    0.1100
23     H23     0.7559   -1.0752    2.2154 H        1 ZINC000002016002    0.1100
24     H24    -1.3796    1.3553    6.3641 H        1 ZINC000002016002    0.0900
25     H25    -1.0723   -0.3843    6.5822 H        1 ZINC000002016002    0.1000
26     H26     1.1566   -1.1958    7.1090 H        1 ZINC000002016002    0.1300
27     H27     3.3332   -0.6821    8.1396 H        1 ZINC000002016002    0.1300
28     H28     4.0492    1.6591    8.4021 H        1 ZINC000002016002    0.1300
29     H29     2.5890    3.4867    7.6333 H        1 ZINC000002016002    0.1300
30     H30     0.4145    2.9729    6.5985 H        1 ZINC000002016002    0.1200
31     H31    -0.1032    2.3723    4.1172 H        1 ZINC000002016002    0.0900
32     H32    -1.6755    1.7230    3.5639 H        1 ZINC000002016002    0.0900
@<TRIPOS>BOND
1     1     2     1
2     1     3     1
3     1     4     1
4     1     5     1
5     5     6     1
6     5     20    1
7     5     21    1
8     6     7     1
9     6     19    1
10    6     8     1
11    8     9     1
12    8     22    1
13    8     23    1
14    9     10    2
15    9     11    am
16    11    12    1
17    11    19    1
18    12    13    1
19    12    24    1
20    12    25    1
21    13    18    ar
22    13    14    ar
23    14    15    ar
24    14    26    1
25    15    16    ar
26    15    27    1
27    16    17    ar
28    16    28    1
29    17    18    ar
30    17    29    1
31    18    30    1
32    19    31    1
33    19    32    1
@<TRIPOS>SUBSTRUCTURE
1   ZINC000002016002 1     RESIDUE    1   A     ZIN   1
