@<TRIPOS>MOLECULE
ZINC000003927675
53    56    1     0     0
SMALL
USER_CHARGES
@<TRIPOS>ATOM
1      C1      0.2329    1.5873    0.0365 C.3      1 ZINC000003927675   -0.1500
2      C2      0.1315    0.0607    0.0438 C.3      1 ZINC000003927675   -0.0400
3      C3     -1.2951   -0.3720    0.3492 C.3      1 ZINC000003927675   -0.0600
4      C4     -1.6247    0.1797    1.7169 C.2      1 ZINC000003927675   -0.1500
5      C5     -0.7270    0.4569    2.6219 C.2      1 ZINC000003927675   -0.1100
6      C6      0.7551    0.2265    2.4477 C.3      1 ZINC000003927675   -0.0400
7      H7      1.2670    1.1877    2.4001 H        1 ZINC000003927675    0.0800
8      C8      1.2903   -0.5753    3.6385 C.3      1 ZINC000003927675   -0.1100
9      C9      1.0131    0.1800    4.9392 C.3      1 ZINC000003927675   -0.1000
10     C10    -0.4839    0.3872    5.0686 C.2      1 ZINC000003927675   -0.0200
11     C11    -1.0849   -0.0164    6.1859 C.2      1 ZINC000003927675   -0.2400
12     C12    -2.5322    0.1560    6.3494 C.2      1 ZINC000003927675    0.3900
13     O13    -3.1576   -0.4829    7.1695 O.2      1 ZINC000003927675   -0.4600
14     C14    -3.2115    1.1677    5.4490 C.3      1 ZINC000003927675   -0.1700
15     C15    -2.7188    0.9201    4.0222 C.3      1 ZINC000003927675   -0.1100
16     C16    -1.2088    1.0480    3.9354 C.3      1 ZINC000003927675    0.0000
17     C17    -0.8507    2.5356    3.9372 C.3      1 ZINC000003927675   -0.1400
18     C18     1.0171   -0.5342    1.1684 C.3      1 ZINC000003927675   -0.0800
19     H19     0.7794   -1.5886    1.3090 H        1 ZINC000003927675    0.0800
20     C20     2.4292   -0.3907    0.5879 C.3      1 ZINC000003927675   -0.1100
21     C21     2.2363   -0.7776   -0.9027 C.3      1 ZINC000003927675   -0.1500
22     C22     0.7444   -0.5177   -1.2308 C.3      1 ZINC000003927675    0.1000
23     O23     0.0893   -1.7449   -1.5579 O.3      1 ZINC000003927675   -0.5400
24     C24     0.6241    0.4588   -2.3723 C.2      1 ZINC000003927675    0.3400
25     O25     1.5076    1.2552   -2.5812 O.2      1 ZINC000003927675   -0.4200
26     C26    -0.5985    0.4415   -3.2531 C.3      1 ZINC000003927675    0.0300
27     O27    -0.4780    1.4530   -4.2552 O.3      1 ZINC000003927675   -0.5600
28     H28     1.2636    1.8820   -0.1610 H        1 ZINC000003927675    0.0700
29     H29    -0.4158    1.9909   -0.7409 H        1 ZINC000003927675    0.0500
30     H30    -0.0767    1.9766    1.0064 H        1 ZINC000003927675    0.0800
31     H31    -1.9778    0.0392   -0.3943 H        1 ZINC000003927675    0.0700
32     H32    -1.3619   -1.4599    0.3588 H        1 ZINC000003927675    0.0900
33     H33    -2.6626    0.3548    1.9588 H        1 ZINC000003927675    0.1200
34     H34     0.7975   -1.5470    3.6718 H        1 ZINC000003927675    0.0700
35     H35     2.3648   -0.7190    3.5250 H        1 ZINC000003927675    0.0700
36     H36     1.3763   -0.4031    5.7855 H        1 ZINC000003927675    0.0800
37     H37     1.5157    1.1469    4.9151 H        1 ZINC000003927675    0.0900
38     H38    -0.5049   -0.4726    6.9744 H        1 ZINC000003927675    0.1300
39     H39    -4.2926    1.0367    5.4950 H        1 ZINC000003927675    0.0900
40     H40    -2.9468    2.1778    5.7617 H        1 ZINC000003927675    0.1000
41     H41    -3.0111   -0.0831    3.7119 H        1 ZINC000003927675    0.0800
42     H42    -3.1784    1.6483    3.3538 H        1 ZINC000003927675    0.0800
43     H43    -1.2122    2.9951    4.8571 H        1 ZINC000003927675    0.0600
44     H44     0.2316    2.6488    3.8754 H        1 ZINC000003927675    0.0600
45     H45    -1.3165    3.0224    3.0805 H        1 ZINC000003927675    0.0700
46     H46     2.7797    0.6376    0.6769 H        1 ZINC000003927675    0.0700
47     H47     3.1190   -1.0777    1.0782 H        1 ZINC000003927675    0.0700
48     H48     2.8692   -0.1554   -1.5355 H        1 ZINC000003927675    0.0800
49     H49     2.4786   -1.8300   -1.0503 H        1 ZINC000003927675    0.0800
50     H50     0.4530   -2.1897   -2.3357 H        1 ZINC000003927675    0.3800
51     H51    -0.6885   -0.5342   -3.7306 H        1 ZINC000003927675    0.0800
52     H52    -1.4848    0.6330   -2.6482 H        1 ZINC000003927675    0.0800
53     H53    -1.2314    1.4996   -4.8596 H        1 ZINC000003927675    0.3900
@<TRIPOS>BOND
1     1     2     1
2     1     28    1
3     1     29    1
4     1     30    1
5     2     18    1
6     2     22    1
7     2     3     1
8     3     4     1
9     3     31    1
10    3     32    1
11    4     5     2
12    4     33    1
13    5     16    1
14    5     6     1
15    6     7     1
16    6     8     1
17    6     18    1
18    8     9     1
19    8     34    1
20    8     35    1
21    9     10    1
22    9     36    1
23    9     37    1
24    10    16    1
25    10    11    2
26    11    12    1
27    11    38    1
28    12    13    2
29    12    14    1
30    14    15    1
31    14    39    1
32    14    40    1
33    15    16    1
34    15    41    1
35    15    42    1
36    16    17    1
37    17    43    1
38    17    44    1
39    17    45    1
40    18    19    1
41    18    20    1
42    20    21    1
43    20    46    1
44    20    47    1
45    21    22    1
46    21    48    1
47    21    49    1
48    22    23    1
49    22    24    1
50    23    50    1
51    24    25    2
52    24    26    1
53    26    27    1
54    26    51    1
55    26    52    1
56    27    53    1
@<TRIPOS>SUBSTRUCTURE
1   ZINC000003927675 1     RESIDUE    1   A     ZIN   1
