@<TRIPOS>MOLECULE
ZINC000084610155
35    37    1     0     0
SMALL
USER_CHARGES
@<TRIPOS>ATOM
1      C1     -0.0187    1.5258    0.0104 C.3      1 ZINC000084610155   -0.1800
2      C2      0.0021   -0.0041    0.0020 C.3      1 ZINC000084610155    0.1600
3      C3      0.6818   -0.5012   -1.2477 C.2      1 ZINC000084610155    0.2300
4      N4      1.7404   -1.2569   -1.2705 N.2      1 ZINC000084610155   -0.4900
5      C5      2.0861   -1.5159   -2.5587 C.ar     1 ZINC000084610155    0.0400
6      C6      3.1142   -2.2548   -3.1485 C.ar     1 ZINC000084610155   -0.0200
7      C7      3.2088   -2.3344   -4.5218 C.ar     1 ZINC000084610155   -0.1300
8      C8      2.2928   -1.6884   -5.3317 C.ar     1 ZINC000084610155   -0.0400
9      C9      1.2572   -0.9443   -4.7676 C.ar     1 ZINC000084610155   -0.1400
10     C10     0.2805   -0.2554   -5.6324 C.2      1 ZINC000084610155    0.5700
11     N11     0.3872   -0.3439   -6.9730 N.am     1 ZINC000084610155   -0.8400
12     O12    -0.6208    0.3921   -5.1356 O.2      1 ZINC000084610155   -0.5500
13     C13     1.1509   -0.8562   -3.3729 C.ar     1 ZINC000084610155    0.1200
14     N14     0.2746   -0.2299   -2.5180 N.pl3    1 ZINC000084610155   -0.5600
15     C15    -1.4366   -0.5486    0.0737 C.3      1 ZINC000084610155   -0.1400
16     C16    -1.4976   -1.3558    1.3908 C.3      1 ZINC000084610155   -0.1400
17     C17    -0.3327   -0.7569    2.2185 C.3      1 ZINC000084610155    0.0000
18     N18     0.7156   -0.5049    1.1968 N.4      1 ZINC000084610155   -0.5100
19     H19     1.2015   -1.3617    0.9782 H        1 ZINC000084610155    0.4400
20     H20     1.3670    0.1896    1.5308 H        1 ZINC000084610155    0.4400
21     H21     1.0039    1.9031    0.0027 H        1 ZINC000084610155    0.0900
22     H22    -0.5459    1.8868   -0.8726 H        1 ZINC000084610155    0.1100
23     H23    -0.5289    1.8773    0.9072 H        1 ZINC000084610155    0.1000
24     H24     3.8364   -2.7644   -2.5279 H        1 ZINC000084610155    0.1400
25     H25     4.0072   -2.9072   -4.9698 H        1 ZINC000084610155    0.1500
26     H26     2.3802   -1.7601   -6.4058 H        1 ZINC000084610155    0.1500
27     H27     1.1062   -0.8605   -7.3693 H        1 ZINC000084610155    0.4100
28     H28    -0.2550    0.1090   -7.5416 H        1 ZINC000084610155    0.4100
29     H29    -0.4911    0.3081   -2.7732 H        1 ZINC000084610155    0.4400
30     H30    -2.1515    0.2737    0.1005 H        1 ZINC000084610155    0.1200
31     H31    -1.6380   -1.1985   -0.7779 H        1 ZINC000084610155    0.1100
32     H32    -2.4505   -1.1982    1.8960 H        1 ZINC000084610155    0.1200
33     H33    -1.3309   -2.4162    1.2014 H        1 ZINC000084610155    0.1000
34     H34    -0.6382    0.1750    2.6943 H        1 ZINC000084610155    0.1400
35     H35     0.0187   -1.4725    2.9618 H        1 ZINC000084610155    0.1500
@<TRIPOS>BOND
1     1     2     1
2     1     21    1
3     1     22    1
4     1     23    1
5     2     18    1
6     2     3     1
7     2     15    1
8     3     14    1
9     3     4     2
10    4     5     1
11    5     13    ar
12    5     6     ar
13    6     7     ar
14    6     24    1
15    7     8     ar
16    7     25    1
17    8     9     ar
18    8     26    1
19    9     10    1
20    9     13    ar
21    10    11    am
22    10    12    2
23    11    27    1
24    11    28    1
25    13    14    1
26    14    29    1
27    15    16    1
28    15    30    1
29    15    31    1
30    16    17    1
31    16    32    1
32    16    33    1
33    17    18    1
34    17    34    1
35    17    35    1
36    18    19    1
37    18    20    1
@<TRIPOS>SUBSTRUCTURE
1   ZINC000084610155 1     RESIDUE    1   A     ZIN   1
