@<TRIPOS>MOLECULE
ZINC000001554399
35    35    1     0     0
SMALL
USER_CHARGES
@<TRIPOS>ATOM
1      C1     -0.0187    1.5258    0.0104 C.3      1 ZINC000001554399   -0.1400
2      C2      0.0021   -0.0041    0.0020 C.3      1 ZINC000001554399   -0.0500
3      C3      0.7421   -0.5109    1.2415 C.3      1 ZINC000001554399   -0.1400
4      C4     -1.4117   -0.5257    0.0127 C.ar     1 ZINC000001554399   -0.0800
5      C5     -2.2591   -0.2048    1.0555 C.ar     1 ZINC000001554399   -0.1100
6      C6     -3.5565   -0.6827    1.0656 C.ar     1 ZINC000001554399   -0.1400
7      C7     -4.0092   -1.4826    0.0327 C.ar     1 ZINC000001554399   -0.1100
8      C8     -3.1658   -1.8064   -1.0123 C.ar     1 ZINC000001554399   -0.0900
9      C9     -3.6598   -2.6783   -2.1378 C.3      1 ZINC000001554399   -0.0500
10     C10    -4.0933   -4.0352   -1.5792 C.3      1 ZINC000001554399   -0.1400
11     C11    -4.8513   -2.0036   -2.8204 C.3      1 ZINC000001554399   -0.1400
12     C12    -1.8651   -1.3238   -1.0275 C.ar     1 ZINC000001554399    0.1500
13     O13    -1.0335   -1.6409   -2.0545 O.3      1 ZINC000001554399   -0.6600
14     P14    -1.0837   -0.6012   -3.2827 P.3      1 ZINC000001554399    2.1600
15     O15    -0.8012    0.8256   -2.7616 O.2      1 ZINC000001554399   -1.0800
16     O16    -2.4831   -0.6431   -3.9361 O.3      1 ZINC000001554399   -1.0700
17     O17     0.0300   -1.0046   -4.3732 O.3      1 ZINC000001554399   -0.9000
18     H18     1.0039    1.9031    0.0027 H        1 ZINC000001554399    0.0400
19     H19    -0.5459    1.8868   -0.8726 H        1 ZINC000001554399    0.1000
20     H20    -0.5289    1.8773    0.9072 H        1 ZINC000001554399    0.0400
21     H21     0.5123   -0.3556   -0.8948 H        1 ZINC000001554399    0.0700
22     H22     0.2319   -0.1594    2.1383 H        1 ZINC000001554399    0.0500
23     H23     0.7568   -1.6008    1.2356 H        1 ZINC000001554399    0.0500
24     H24     1.7647   -0.1336    1.2338 H        1 ZINC000001554399    0.0500
25     H25    -1.9078    0.4196    1.8636 H        1 ZINC000001554399    0.1200
26     H26    -4.2173   -0.4310    1.8820 H        1 ZINC000001554399    0.1200
27     H27    -5.0229   -1.8549    0.0431 H        1 ZINC000001554399    0.1200
28     H28    -2.8595   -2.8231   -2.8635 H        1 ZINC000001554399    0.0800
29     H29    -4.8936   -3.8904   -0.8535 H        1 ZINC000001554399    0.0500
30     H30    -4.4506   -4.6658   -2.3933 H        1 ZINC000001554399    0.0500
31     H31    -3.2444   -4.5158   -1.0929 H        1 ZINC000001554399    0.0500
32     H32    -4.5425   -1.0370   -3.2183 H        1 ZINC000001554399    0.1000
33     H33    -5.2087   -2.6343   -3.6344 H        1 ZINC000001554399    0.0400
34     H34    -5.6516   -1.8589   -2.0947 H        1 ZINC000001554399    0.0300
35     H35     0.0568   -0.4198   -5.1428 H        1 ZINC000001554399    0.4100
@<TRIPOS>BOND
1     1     2     1
2     1     18    1
3     1     19    1
4     1     20    1
5     2     3     1
6     2     4     1
7     2     21    1
8     3     22    1
9     3     23    1
10    3     24    1
11    4     12    ar
12    4     5     ar
13    5     6     ar
14    5     25    1
15    6     7     ar
16    6     26    1
17    7     8     ar
18    7     27    1
19    8     9     1
20    8     12    ar
21    9     10    1
22    9     11    1
23    9     28    1
24    10    29    1
25    10    30    1
26    10    31    1
27    11    32    1
28    11    33    1
29    11    34    1
30    12    13    1
31    13    14    1
32    14    15    2
33    14    16    1
34    14    17    1
35    17    35    1
@<TRIPOS>SUBSTRUCTURE
1   ZINC000001554399 1     RESIDUE    1   A     ZIN   1
