@<TRIPOS>MOLECULE
ZINC000000003715
35    36    1     0     0
SMALL
USER_CHARGES
@<TRIPOS>ATOM
1      C1     -0.0187    1.5258    0.0104 C.3      1 ZINC000000003715   -0.1300
2      C2      0.0021   -0.0041    0.0020 C.3      1 ZINC000000003715   -0.1500
3      H3      0.5293   -0.3651    0.8851 H        1 ZINC000000003715    0.0700
4      C4     -1.4333   -0.5336    0.0129 C.3      1 ZINC000000003715   -0.1400
5      C5     -2.1001   -0.1511    1.3091 C.2      1 ZINC000000003715    0.3900
6      O6     -1.4875    0.4827    2.1422 O.2      1 ZINC000000003715   -0.4500
7      C7     -3.4923   -0.5460    1.5636 C.ar     1 ZINC000000003715   -0.1500
8      C8     -4.1987   -1.2827    0.6048 C.ar     1 ZINC000000003715   -0.0700
9      C9     -5.4927   -1.6487    0.8435 C.ar     1 ZINC000000003715   -0.1100
10     C10    -6.1115   -1.2883    2.0422 C.ar     1 ZINC000000003715   -0.0400
11     C11    -7.5151   -1.6864    2.2987 C.ar     1 ZINC000000003715   -0.0900
12     C12    -8.4975   -1.4451    1.3390 C.ar     1 ZINC000000003715   -0.0500
13     C13    -9.8030   -1.8178    1.5820 C.ar     1 ZINC000000003715   -0.1600
14     C14   -10.1409   -2.4314    2.7781 C.ar     1 ZINC000000003715    0.1300
15     F15   -11.4215   -2.7937    3.0103 F        1 ZINC000000003715   -0.1300
16     C16    -9.1702   -2.6748    3.7361 C.ar     1 ZINC000000003715   -0.1900
17     C17    -7.8584   -2.3103    3.5008 C.ar     1 ZINC000000003715    0.1400
18     F18    -6.9117   -2.5477    4.4350 F        1 ZINC000000003715   -0.1200
19     C19    -5.4091   -0.5538    2.9995 C.ar     1 ZINC000000003715   -0.1100
20     C20    -4.1129   -0.1911    2.7677 C.ar     1 ZINC000000003715   -0.0600
21     C21     0.7074   -0.4901   -1.2379 C.2      1 ZINC000000003715    0.5000
22     O22     1.4615   -1.4461   -1.1751 O.co2    1 ZINC000000003715   -0.7000
23     O23     0.5241    0.0728   -2.3037 O.co2    1 ZINC000000003715   -0.7000
24     H24     1.0039    1.9031    0.0027 H        1 ZINC000000003715    0.0400
25     H25    -0.5459    1.8868   -0.8726 H        1 ZINC000000003715    0.0500
26     H26    -0.5289    1.8773    0.9072 H        1 ZINC000000003715    0.0500
27     H27    -1.9862   -0.1019   -0.8214 H        1 ZINC000000003715    0.1000
28     H28    -1.4207   -1.6194   -0.0826 H        1 ZINC000000003715    0.0900
29     H29    -3.7207   -1.5611   -0.3228 H        1 ZINC000000003715    0.1400
30     H30    -6.0379   -2.2169    0.1044 H        1 ZINC000000003715    0.1300
31     H31    -8.2365   -0.9665    0.4067 H        1 ZINC000000003715    0.1500
32     H32   -10.5639   -1.6309    0.8387 H        1 ZINC000000003715    0.1500
33     H33    -9.4385   -3.1534    4.6663 H        1 ZINC000000003715    0.1500
34     H34    -5.8897   -0.2762    3.9260 H        1 ZINC000000003715    0.1300
35     H35    -3.5699    0.3768    3.5087 H        1 ZINC000000003715    0.1400
@<TRIPOS>BOND
1     1     2     1
2     1     24    1
3     1     25    1
4     1     26    1
5     2     3     1
6     2     4     1
7     2     21    1
8     4     5     1
9     4     27    1
10    4     28    1
11    5     6     2
12    5     7     1
13    7     20    ar
14    7     8     ar
15    8     9     ar
16    8     29    1
17    9     10    ar
18    9     30    1
19    10    11    1
20    10    19    ar
21    11    17    ar
22    11    12    ar
23    12    13    ar
24    12    31    1
25    13    14    ar
26    13    32    1
27    14    15    1
28    14    16    ar
29    16    17    ar
30    16    33    1
31    17    18    1
32    19    20    ar
33    19    34    1
34    20    35    1
35    21    22    ar
36    21    23    ar
@<TRIPOS>SUBSTRUCTURE
1   ZINC000000003715 1     RESIDUE    1   A     ZIN   1
