@<TRIPOS>MOLECULE
ZINC000071789368
33    33    1     0     0
SMALL
USER_CHARGES
@<TRIPOS>ATOM
1      O1      0.0021   -0.0041    0.0020 O.co2    1 ZINC000071789368   -1.2000
2      P2     -0.0192    1.5624    0.0106 P.3      1 ZINC000071789368    2.1500
3      O3      1.4506    2.1047   -0.0005 O.co2    1 ZINC000071789368   -1.2100
4      O4     -0.7769    2.0814   -1.2586 O.co2    1 ZINC000071789368   -1.1700
5      O5     -0.7728    2.0816    1.3353 O.3      1 ZINC000071789368   -0.7300
6      C6     -0.9560    3.4670    1.6340 C.3      1 ZINC000071789368    0.1600
7      H7     -0.5145    4.0711    0.8413 H        1 ZINC000071789368    0.0600
8      C8     -0.2761    3.7961    2.9646 C.3      1 ZINC000071789368    0.1100
9      H9     -0.4159    4.8528    3.1924 H        1 ZINC000071789368    0.0500
10     O10     1.1207    3.5100    2.8694 O.3      1 ZINC000071789368   -0.5200
11     C11    -0.8957    2.9482    4.0772 C.3      1 ZINC000071789368    0.0500
12     H12    -0.7560    1.8915    3.8494 H        1 ZINC000071789368    0.0900
13     O13    -0.2608    3.2555    5.3200 O.3      1 ZINC000071789368   -0.5800
14     C14    -2.3913    3.2545    4.1792 C.3      1 ZINC000071789368    0.0700
15     H15    -2.5310    4.3112    4.4070 H        1 ZINC000071789368    0.0500
16     O16    -2.9700    2.4626    5.2184 O.3      1 ZINC000071789368   -0.5100
17     C17    -3.0711    2.9254    2.8486 C.3      1 ZINC000071789368    0.1700
18     H18    -2.9314    1.8687    2.6207 H        1 ZINC000071789368    0.0600
19     O19    -4.4679    3.2115    2.9438 O.3      1 ZINC000071789368   -0.7300
20     P20    -5.6081    2.0942    2.7346 P.3      1 ZINC000071789368    2.1600
21     O21    -5.4093    1.3990    1.3448 O.co2    1 ZINC000071789368   -1.1800
22     O22    -5.5052    1.0235    3.8736 O.co2    1 ZINC000071789368   -1.2200
23     O23    -7.0193    2.7729    2.7819 O.co2    1 ZINC000071789368   -1.2000
24     C24    -2.4515    3.7733    1.7359 C.3      1 ZINC000071789368    0.1600
25     H25    -2.5912    4.8301    1.9637 H        1 ZINC000071789368    0.0200
26     O26    -3.0865    3.4660    0.4931 O.3      1 ZINC000071789368   -0.6800
27     P27    -3.8718    4.5632   -0.3852 P.3      1 ZINC000071789368    2.1800
28     O28    -4.9703    5.2490    0.4964 O.co2    1 ZINC000071789368   -1.2000
29     O29    -2.8603    5.6456   -0.8948 O.co2    1 ZINC000071789368   -1.2300
30     O30    -4.5490    3.8626   -1.6121 O.co2    1 ZINC000071789368   -1.1900
31     H31     1.6162    3.6953    3.6788 H        1 ZINC000071789368    0.3300
32     H32    -0.6042    2.7537    6.0718 H        1 ZINC000071789368    0.3600
33     H33    -2.5864    2.6192    6.0921 H        1 ZINC000071789368    0.3200
@<TRIPOS>BOND
1     1     2     ar
2     2     3     ar
3     2     4     ar
4     2     5     1
5     5     6     1
6     6     7     1
7     6     24    1
8     6     8     1
9     8     9     1
10    8     10    1
11    8     11    1
12    10    31    1
13    11    12    1
14    11    13    1
15    11    14    1
16    13    32    1
17    14    15    1
18    14    16    1
19    14    17    1
20    16    33    1
21    17    18    1
22    17    19    1
23    17    24    1
24    19    20    1
25    20    21    ar
26    20    22    ar
27    20    23    ar
28    24    25    1
29    24    26    1
30    26    27    1
31    27    28    ar
32    27    29    ar
33    27    30    ar
@<TRIPOS>SUBSTRUCTURE
1   ZINC000071789368 1     RESIDUE    1   A     ZIN   1
