@<TRIPOS>MOLECULE
ZINC000001550156
  51   53    0    0    0
SMALL
USER_CHARGES
NO_NAME
@<TRIPOS>ATOM
    1 C1       -0.0305     1.5173    -0.0088 C.3    1 <0>      -0.1500
    2 C2       -0.0175    -0.0126    -0.0093 C.3    1 <0>      -0.0700
    3 C3        0.5931    -0.5093    -1.2945 C.2    1 <0>       0.1400
    4 C4       -0.0867    -0.6812    -2.4859 C.2    1 <0>      -0.2300
    5 C5       -1.5036    -0.4208    -2.7343 C.2    1 <0>       0.4400
    6 O6       -1.8533     0.6475    -3.1972 O.2    1 <0>      -0.4100
    7 C7       -2.5201    -1.4659    -2.4199 C.2    1 <0>       0.4900
    8 N8       -3.8328    -1.1907    -2.5528 N.am   1 <0>      -0.8300
    9 O9       -2.1652    -2.5643    -2.0442 O.2    1 <0>      -0.5000
   10 C10       0.9068    -1.1796    -3.4565 C.ar   1 <0>      -0.0800
   11 C11       0.8495    -1.5392    -4.8038 C.ar   1 <0>       0.1700
   12 O12      -0.3232    -1.4553    -5.4847 O.3    1 <0>      -0.2900
   13 C13      -0.3036    -1.8406    -6.8606 C.3    1 <0>       0.0700
   14 C14      -1.6831    -1.6823    -7.4463 C.2    1 <0>       0.4600
   15 O15      -2.5899    -1.2807    -6.7563 O.2    1 <0>      -0.4800
   16 O16      -1.9042    -1.9875    -8.7346 O.3    1 <0>      -0.3600
   17 C17      -3.2572    -1.8107    -9.2311 C.3    1 <0>       0.0400
   18 C18       1.9954    -1.9815    -5.4420 C.ar   1 <0>      -0.2300
   19 C19       3.1913    -2.0665    -4.7472 C.ar   1 <0>      -0.0600
   20 C20       3.2583    -1.7141    -3.4159 C.ar   1 <0>      -0.1500
   21 C21       2.1184    -1.2664    -2.7551 C.ar   1 <0>       0.1300
   22 N22       1.8847    -0.8480    -1.4600 N.pl3  1 <0>      -0.4500
   23 C23       2.9032    -0.7850    -0.4088 C.3    1 <0>       0.1500
   24 C24       3.0435    -2.1395     0.2366 C.ar   1 <0>      -0.1200
   25 C25       2.1937    -2.5076     1.2628 C.ar   1 <0>      -0.1000
   26 C26       2.3224    -3.7501     1.8548 C.ar   1 <0>      -0.1200
   27 C27       3.3007    -4.6248     1.4203 C.ar   1 <0>      -0.1100
   28 C28       4.1500    -4.2570     0.3934 C.ar   1 <0>      -0.1200
   29 C29       4.0185    -3.0162    -0.2015 C.ar   1 <0>      -0.1000
   30 H30       0.9940     1.8894    -0.0043 H      1 <0>       0.0600
   31 H31      -0.5436     1.8766    -0.9008 H      1 <0>       0.0700
   32 H32      -0.5512     1.8759     0.8791 H      1 <0>       0.0700
   33 H33       0.5713    -0.3712     0.8350 H      1 <0>       0.0800
   34 H34      -1.0385    -0.3847     0.0755 H      1 <0>       0.0900
   35 H35      -4.1164    -0.3130    -2.8529 H      1 <0>       0.4100
   36 H36      -4.4939    -1.8704    -2.3483 H      1 <0>       0.4100
   37 H37       0.3972    -1.2078    -7.4052 H      1 <0>       0.1100
   38 H38       0.0084    -2.8819    -6.9419 H      1 <0>       0.1100
   39 H39      -3.5503    -0.7664    -9.1230 H      1 <0>       0.0700
   40 H40      -3.2979    -2.0924   -10.2832 H      1 <0>       0.1100
   41 H41      -3.9391    -2.4404    -8.6596 H      1 <0>       0.0700
   42 H42       1.9572    -2.2615    -6.4844 H      1 <0>       0.1300
   43 H43       4.0801    -2.4128    -5.2537 H      1 <0>       0.1300
   44 H44       4.1964    -1.7852    -2.8856 H      1 <0>       0.1200
   45 H45       3.8575    -0.4896    -0.8448 H      1 <0>       0.1000
   46 H46       2.6051    -0.0537     0.3425 H      1 <0>       0.1000
   47 H47       1.4294    -1.8243     1.6023 H      1 <0>       0.1200
   48 H48       1.6589    -4.0374     2.6571 H      1 <0>       0.1300
   49 H49       3.4018    -5.5952     1.8832 H      1 <0>       0.1200
   50 H50       4.9145    -4.9403     0.0541 H      1 <0>       0.1300
   51 H51       4.6820    -2.7289    -1.0038 H      1 <0>       0.1200
@<TRIPOS>BOND
   1    1    2 1
   2    1   30 1
   3    1   31 1
   4    1   32 1
   5    2    3 1
   6    2   33 1
   7    2   34 1
   8    3   22 1
   9    3    4 2
  10    4    5 1
  11    4   10 1
  12    5    6 2
  13    5    7 1
  14    7    8 am
  15    7    9 2
  16    8   35 1
  17    8   36 1
  18   10   21 ar
  19   10   11 ar
  20   11   12 1
  21   11   18 ar
  22   12   13 1
  23   13   14 1
  24   13   37 1
  25   13   38 1
  26   14   15 2
  27   14   16 1
  28   16   17 1
  29   17   39 1
  30   17   40 1
  31   17   41 1
  32   18   19 ar
  33   18   42 1
  34   19   20 ar
  35   19   43 1
  36   20   21 ar
  37   20   44 1
  38   21   22 1
  39   22   23 1
  40   23   24 1
  41   23   45 1
  42   23   46 1
  43   24   29 ar
  44   24   25 ar
  45   25   26 ar
  46   25   47 1
  47   26   27 ar
  48   26   48 1
  49   27   28 ar
  50   27   49 1
  51   28   29 ar
  52   28   50 1
  53   29   51 1
