@<TRIPOS>MOLECULE
ZINC000001725270
30    31    1     0     0
SMALL
USER_CHARGES
@<TRIPOS>ATOM
1      C1     -0.0184    1.5028    0.0103 C.3      1 ZINC000001725270   -0.0900
2      C2      0.0021   -0.0041    0.0020 C.2      1 ZINC000001725270   -0.2500
3      C3     -1.1526   -0.7039    0.0037 C.2      1 ZINC000001725270    0.1600
4      N4     -1.1160   -2.0718   -0.0039 N.am     1 ZINC000001725270   -0.5300
5      C5     -2.3687   -2.8312   -0.0021 C.3      1 ZINC000001725270    0.3000
6      H6     -3.2219   -2.1617    0.1070 H        1 ZINC000001725270    0.1200
7      C7     -2.4981   -3.6738   -1.2966 C.3      1 ZINC000001725270   -0.1900
8      C8     -3.4501   -4.8101   -0.8502 C.3      1 ZINC000001725270    0.0700
9      H9     -3.1272   -5.7641   -1.2669 H        1 ZINC000001725270    0.1100
10     F10    -4.7646   -4.5278   -1.2370 F        1 ZINC000001725270   -0.1900
11     C11    -3.3279   -4.8235    0.6859 C.3      1 ZINC000001725270    0.0600
12     H12    -4.2916   -4.5859    1.1364 H        1 ZINC000001725270    0.1000
13     C13    -2.8585   -6.2009    1.1585 C.3      1 ZINC000001725270    0.0800
14     O14    -2.8599   -6.2404    2.5869 O.3      1 ZINC000001725270   -0.5600
15     O15    -2.3617   -3.8211    1.0490 O.3      1 ZINC000001725270   -0.3400
16     C16     0.0598   -2.7257   -0.0134 C.2      1 ZINC000001725270    0.7000
17     O17     0.0693   -3.9416   -0.0204 O.2      1 ZINC000001725270   -0.5200
18     N18     1.2256   -2.0531   -0.0157 N.am     1 ZINC000001725270   -0.6600
19     C19     1.2322   -0.7047   -0.0135 C.2      1 ZINC000001725270    0.5500
20     O20     2.2865   -0.0953   -0.0160 O.2      1 ZINC000001725270   -0.5100
21     H21     1.0042    1.8801    0.0026 H        1 ZINC000001725270    0.0800
22     H22    -0.5455    1.8639   -0.8728 H        1 ZINC000001725270    0.0700
23     H23    -0.5286    1.8543    0.9071 H        1 ZINC000001725270    0.0700
24     H24    -2.1006   -0.1866    0.0113 H        1 ZINC000001725270    0.1800
25     H25    -2.9429   -3.0867   -2.1000 H        1 ZINC000001725270    0.1100
26     H26    -1.5301   -4.0736   -1.5988 H        1 ZINC000001725270    0.1100
27     H27    -3.5322   -6.9663    0.7732 H        1 ZINC000001725270    0.0700
28     H28    -1.8493   -6.3867    0.7908 H        1 ZINC000001725270    0.0600
29     H29    -2.5725   -7.0862    2.9572 H        1 ZINC000001725270    0.3900
30     H30     2.0644   -2.5402   -0.0226 H        1 ZINC000001725270    0.4300
@<TRIPOS>BOND
1     1     2     1
2     1     21    1
3     1     22    1
4     1     23    1
5     2     19    1
6     2     3     2
7     3     4     1
8     3     24    1
9     4     5     1
10    4     16    am
11    5     6     1
12    5     15    1
13    5     7     1
14    7     8     1
15    7     25    1
16    7     26    1
17    8     9     1
18    8     10    1
19    8     11    1
20    11    12    1
21    11    13    1
22    11    15    1
23    13    14    1
24    13    27    1
25    13    28    1
26    14    29    1
27    16    17    2
28    16    18    am
29    18    19    am
30    18    30    1
31    19    20    2
@<TRIPOS>SUBSTRUCTURE
1   ZINC000001725270 1     RESIDUE    1   A     ZIN   1
