@<TRIPOS>MOLECULE
ZINC000008034928
93    92    1     0     0
SMALL
USER_CHARGES
@<TRIPOS>ATOM
1      C1      3.3558   -1.6865    0.7378 C.3      1 ZINC000008034928   -0.1500
2      C2      3.1471   -3.2020    0.7145 C.3      1 ZINC000008034928   -0.1300
3      C3      1.6486   -3.5101    0.6910 C.3      1 ZINC000008034928   -0.1200
4      C4      1.4398   -5.0256    0.6677 C.3      1 ZINC000008034928   -0.1200
5      C5     -0.0586   -5.3337    0.6442 C.3      1 ZINC000008034928   -0.1200
6      C6     -0.2674   -6.8492    0.6209 C.3      1 ZINC000008034928   -0.1200
7      C7     -1.7659   -7.1573    0.5973 C.3      1 ZINC000008034928   -0.1200
8      C8     -1.9746   -8.6728    0.5740 C.3      1 ZINC000008034928   -0.1200
9      C9     -3.4731   -8.9809    0.5505 C.3      1 ZINC000008034928   -0.1200
10     C10    -3.6819  -10.4964    0.5272 C.3      1 ZINC000008034928   -0.1200
11     C11    -5.1804  -10.8045    0.5037 C.3      1 ZINC000008034928   -0.1200
12     C12    -5.3891  -12.3201    0.4804 C.3      1 ZINC000008034928   -0.1200
13     C13    -6.8876  -12.6282    0.4568 C.3      1 ZINC000008034928   -0.1200
14     C14    -7.0963  -14.1437    0.4335 C.3      1 ZINC000008034928   -0.1200
15     C15    -8.5948  -14.4518    0.4100 C.3      1 ZINC000008034928   -0.1200
16     C16    -8.8036  -15.9673    0.3867 C.3      1 ZINC000008034928   -0.1200
17     C17   -10.3021  -16.2754    0.3631 C.3      1 ZINC000008034928   -0.1200
18     C18   -10.5108  -17.7909    0.3399 C.3      1 ZINC000008034928    0.0600
19     O19   -11.9104  -18.0786    0.3179 O.3      1 ZINC000008034928   -0.3800
20     C20   -12.2165  -19.4743    0.2950 C.3      1 ZINC000008034928    0.0600
21     C21   -13.7347  -19.6631    0.2728 C.3      1 ZINC000008034928    0.0900
22     H22   -14.1571  -19.1116   -0.5672 H        1 ZINC000008034928    0.0700
23     C23   -14.0615  -21.1502    0.1226 C.3      1 ZINC000008034928    0.1200
24     O24   -15.4742  -21.3159   -0.0151 O.3      1 ZINC000008034928   -0.7600
25     P25   -16.1750  -22.7543   -0.1941 P.3      1 ZINC000008034928    2.2100
26     O26   -15.7546  -23.6803    0.9690 O.co2    1 ZINC000008034928   -1.0900
27     O27   -15.7324  -23.3794   -1.5359 O.co2    1 ZINC000008034928   -1.0900
28     O28   -17.7751  -22.5762   -0.1869 O.3      1 ZINC000008034928   -0.7600
29     C29   -18.6813  -23.6806   -0.2224 C.3      1 ZINC000008034928    0.1000
30     C30   -20.1201  -23.1605   -0.2042 C.3      1 ZINC000008034928   -0.0100
31     N31   -20.3938  -22.4334   -1.4509 N.4      1 ZINC000008034928   -0.2700
32     C32   -20.0861  -23.2966   -2.5989 C.3      1 ZINC000008034928   -0.0600
33     C33   -21.8111  -22.0496   -1.4928 C.3      1 ZINC000008034928   -0.0400
34     C34   -19.5579  -21.2267   -1.5075 C.3      1 ZINC000008034928   -0.0400
35     O35   -14.2934  -19.1735    1.4934 O.3      1 ZINC000008034928   -0.3700
36     C36   -15.6238  -18.6685    1.3623 C.3      1 ZINC000008034928    0.0400
37     H37     4.4234   -1.4670    0.7546 H        1 ZINC000008034928    0.0500
38     H38     2.9079   -1.2443   -0.1521 H        1 ZINC000008034928    0.0500
39     H39     2.8849   -1.2685    1.6276 H        1 ZINC000008034928    0.0500
40     H40     3.6180   -3.6200   -0.1752 H        1 ZINC000008034928    0.0600
41     H41     3.5950   -3.6442    1.6045 H        1 ZINC000008034928    0.0600
42     H42     1.1777   -3.0921    1.5807 H        1 ZINC000008034928    0.0600
43     H43     1.2007   -3.0679   -0.1989 H        1 ZINC000008034928    0.0600
44     H44     1.9107   -5.4436   -0.2220 H        1 ZINC000008034928    0.0600
45     H45     1.8877   -5.4678    1.5576 H        1 ZINC000008034928    0.0600
46     H46    -0.5296   -4.9157    1.5339 H        1 ZINC000008034928    0.0600
47     H47    -0.5066   -4.8915   -0.2458 H        1 ZINC000008034928    0.0600
48     H48     0.2035   -7.2672   -0.2689 H        1 ZINC000008034928    0.0600
49     H49     0.1805   -7.2914    1.5108 H        1 ZINC000008034928    0.0600
50     H50    -2.2368   -6.7393    1.4870 H        1 ZINC000008034928    0.0600
51     H51    -2.2138   -6.7151   -0.2926 H        1 ZINC000008034928    0.0600
52     H52    -1.5037   -9.0908   -0.3157 H        1 ZINC000008034928    0.0600
53     H53    -1.5267   -9.1150    1.4640 H        1 ZINC000008034928    0.0600
54     H54    -3.9440   -8.5629    1.4402 H        1 ZINC000008034928    0.0600
55     H55    -3.9210   -8.5388   -0.3394 H        1 ZINC000008034928    0.0600
56     H56    -3.2110  -10.9144   -0.3625 H        1 ZINC000008034928    0.0600
57     H57    -3.2340  -10.9386    1.4171 H        1 ZINC000008034928    0.0600
58     H58    -5.6513  -10.3865    1.3934 H        1 ZINC000008034928    0.0600
59     H59    -5.6283  -10.3624   -0.3863 H        1 ZINC000008034928    0.0600
60     H60    -4.9182  -12.7381   -0.4094 H        1 ZINC000008034928    0.0600
61     H61    -4.9412  -12.7622    1.3703 H        1 ZINC000008034928    0.0600
62     H62    -7.3585  -12.2101    1.3465 H        1 ZINC000008034928    0.0600
63     H63    -7.3355  -12.1860   -0.4331 H        1 ZINC000008034928    0.0600
64     H64    -6.6254  -14.5617   -0.4562 H        1 ZINC000008034928    0.0600
65     H65    -6.6484  -14.5858    1.3235 H        1 ZINC000008034928    0.0600
66     H66    -9.0657  -14.0338    1.2997 H        1 ZINC000008034928    0.0600
67     H67    -9.0427  -14.0096   -0.4799 H        1 ZINC000008034928    0.0600
68     H68    -8.3327  -16.3853   -0.5030 H        1 ZINC000008034928    0.0600
69     H69    -8.3557  -16.4095    1.2766 H        1 ZINC000008034928    0.0600
70     H70   -10.7730  -15.8574    1.2529 H        1 ZINC000008034928    0.0700
71     H71   -10.7500  -15.8332   -0.5268 H        1 ZINC000008034928    0.0700
72     H72   -10.0399  -18.2089   -0.5499 H        1 ZINC000008034928    0.0500
73     H73   -10.0629  -18.2331    1.2298 H        1 ZINC000008034928    0.0500
74     H74   -11.7810  -19.9272   -0.5957 H        1 ZINC000008034928    0.0700
75     H75   -11.8040  -19.9514    1.1839 H        1 ZINC000008034928    0.0600
76     H76   -13.5615  -21.5446   -0.7620 H        1 ZINC000008034928    0.0600
77     H77   -13.7168  -21.6889    1.0053 H        1 ZINC000008034928    0.0700
78     H78   -18.5151  -24.2578   -1.1320 H        1 ZINC000008034928    0.0800
79     H79   -18.5136  -24.3163    0.6470 H        1 ZINC000008034928    0.1000
80     H80   -20.8089  -24.0006   -0.1148 H        1 ZINC000008034928    0.1400
81     H81   -20.2531  -22.4896    0.6445 H        1 ZINC000008034928    0.1300
82     H82   -20.7063  -24.1920   -2.5568 H        1 ZINC000008034928    0.1200
83     H83   -20.2892  -22.7571   -3.5240 H        1 ZINC000008034928    0.1200
84     H84   -19.0344  -23.5814   -2.5678 H        1 ZINC000008034928    0.1300
85     H85   -22.0395  -21.4090   -0.6409 H        1 ZINC000008034928    0.1200
86     H86   -22.0142  -21.5100   -2.4178 H        1 ZINC000008034928    0.1200
87     H87   -22.4314  -22.9449   -1.4507 H        1 ZINC000008034928    0.1200
88     H88   -18.5191  -21.5119   -1.6741 H        1 ZINC000008034928    0.1400
89     H89   -19.8951  -20.5892   -2.3248 H        1 ZINC000008034928    0.1100
90     H90   -19.6391  -20.6838   -0.5659 H        1 ZINC000008034928    0.1200
91     H91   -15.6304  -17.8423    0.6514 H        1 ZINC000008034928    0.0300
92     H92   -16.2798  -19.4617    1.0037 H        1 ZINC000008034928    0.0500
93     H93   -15.9760  -18.3164    2.3319 H        1 ZINC000008034928    0.0800
@<TRIPOS>BOND
1     1     2     1
2     1     37    1
3     1     38    1
4     1     39    1
5     2     3     1
6     2     40    1
7     2     41    1
8     3     4     1
9     3     42    1
10    3     43    1
11    4     5     1
12    4     44    1
13    4     45    1
14    5     6     1
15    5     46    1
16    5     47    1
17    6     7     1
18    6     48    1
19    6     49    1
20    7     8     1
21    7     50    1
22    7     51    1
23    8     9     1
24    8     52    1
25    8     53    1
26    9     10    1
27    9     54    1
28    9     55    1
29    10    11    1
30    10    56    1
31    10    57    1
32    11    12    1
33    11    58    1
34    11    59    1
35    12    13    1
36    12    60    1
37    12    61    1
38    13    14    1
39    13    62    1
40    13    63    1
41    14    15    1
42    14    64    1
43    14    65    1
44    15    16    1
45    15    66    1
46    15    67    1
47    16    17    1
48    16    68    1
49    16    69    1
50    17    18    1
51    17    70    1
52    17    71    1
53    18    19    1
54    18    72    1
55    18    73    1
56    19    20    1
57    20    21    1
58    20    74    1
59    20    75    1
60    21    22    1
61    21    23    1
62    21    35    1
63    23    24    1
64    23    76    1
65    23    77    1
66    24    25    1
67    25    26    ar
68    25    27    ar
69    25    28    1
70    28    29    1
71    29    30    1
72    29    78    1
73    29    79    1
74    30    31    1
75    30    80    1
76    30    81    1
77    31    32    1
78    31    33    1
79    31    34    1
80    32    82    1
81    32    83    1
82    32    84    1
83    33    85    1
84    33    86    1
85    33    87    1
86    34    88    1
87    34    89    1
88    34    90    1
89    35    36    1
90    36    91    1
91    36    92    1
92    36    93    1
@<TRIPOS>SUBSTRUCTURE
1   ZINC000008034928 1     RESIDUE    1   A     ZIN   1
