@<TRIPOS>MOLECULE
ZINC000002596977
47    49    1     0     0
SMALL
USER_CHARGES
@<TRIPOS>ATOM
1      O1      0.0021   -0.0041    0.0020 O.2      1 ZINC000002596977   -0.4500
2      C2     -0.0144    1.2085    0.0087 C.2      1 ZINC000002596977    0.4000
3      C3      1.2803    1.9797    0.0005 C.3      1 ZINC000002596977   -0.1700
4      C4      2.4566    1.0014   -0.0160 C.3      1 ZINC000002596977   -0.1400
5      C5      3.7710    1.7844   -0.0244 C.3      1 ZINC000002596977   -0.0100
6      N6      4.9004    0.8451   -0.0402 N.4      1 ZINC000002596977   -0.3900
7      H7      4.8173    0.2064    0.7365 H        1 ZINC000002596977    0.4200
8      C8      6.1599    1.5922    0.0732 C.3      1 ZINC000002596977    0.0000
9      C9      7.3357    0.6129    0.0757 C.3      1 ZINC000002596977    0.0400
10     N10     7.3206   -0.1695   -1.1684 N.3      1 ZINC000002596977   -0.4800
11     C11     8.4072   -1.0345   -1.2262 C.ar     1 ZINC000002596977    0.2900
12     C12     8.5732   -1.8596   -2.3336 C.ar     1 ZINC000002596977   -0.1800
13     C13     9.6594   -2.7152   -2.3782 C.ar     1 ZINC000002596977   -0.0500
14     C14    10.5461   -2.7167   -1.3099 C.ar     1 ZINC000002596977   -0.1800
15     C15    10.3200   -1.8710   -0.2422 C.ar     1 ZINC000002596977    0.1300
16     N16     9.2781   -1.0616   -0.2289 N.ar     1 ZINC000002596977   -0.5200
17     C17     6.0550   -0.9037   -1.3079 C.3      1 ZINC000002596977    0.0300
18     C18     4.8899    0.0884   -1.2991 C.3      1 ZINC000002596977   -0.0100
19     C19    -1.2974    1.9262    0.0187 C.ar     1 ZINC000002596977   -0.2000
20     C20    -1.3199    3.3255    0.0206 C.ar     1 ZINC000002596977   -0.0400
21     C21    -2.5255    3.9917    0.0300 C.ar     1 ZINC000002596977   -0.1700
22     C22    -3.7154    3.2788    0.0380 C.ar     1 ZINC000002596977    0.1400
23     F23    -4.8945    3.9384    0.0477 F        1 ZINC000002596977   -0.1300
24     C24    -3.7002    1.8917    0.0357 C.ar     1 ZINC000002596977   -0.1600
25     C25    -2.5015    1.2132    0.0205 C.ar     1 ZINC000002596977   -0.0300
26     H26     1.3211    2.6119   -0.8866 H        1 ZINC000002596977    0.1100
27     H27     1.3381    2.6023    0.8933 H        1 ZINC000002596977    0.1100
28     H28     2.4158    0.3693    0.8710 H        1 ZINC000002596977    0.0900
29     H29     2.3988    0.3788   -0.9088 H        1 ZINC000002596977    0.0900
30     H30     3.8118    2.4165   -0.9114 H        1 ZINC000002596977    0.1300
31     H31     3.8288    2.4070    0.8685 H        1 ZINC000002596977    0.1300
32     H32     6.2559    2.2730   -0.7726 H        1 ZINC000002596977    0.1400
33     H33     6.1610    2.1637    1.0014 H        1 ZINC000002596977    0.1400
34     H34     8.2712    1.1680    0.1449 H        1 ZINC000002596977    0.1300
35     H35     7.2473   -0.0593    0.9292 H        1 ZINC000002596977    0.0800
36     H36     7.8637   -1.8329   -3.1473 H        1 ZINC000002596977    0.1400
37     H37     9.8139   -3.3676   -3.2250 H        1 ZINC000002596977    0.1400
38     H38    11.4037   -3.3731   -1.3137 H        1 ZINC000002596977    0.1400
39     H39    11.0072   -1.8689    0.5909 H        1 ZINC000002596977    0.1600
40     H40     6.0561   -1.4550   -2.2481 H        1 ZINC000002596977    0.1300
41     H41     5.9455   -1.6009   -0.4772 H        1 ZINC000002596977    0.0700
42     H42     3.9493   -0.4550   -1.3882 H        1 ZINC000002596977    0.1400
43     H43     4.9926    0.7768   -2.1380 H        1 ZINC000002596977    0.1400
44     H44    -0.3942    3.8817    0.0151 H        1 ZINC000002596977    0.1400
45     H45    -2.5443    5.0716    0.0315 H        1 ZINC000002596977    0.1500
46     H46    -4.6301    1.3426    0.0420 H        1 ZINC000002596977    0.1500
47     H47    -2.4909    0.1332    0.0184 H        1 ZINC000002596977    0.1500
@<TRIPOS>BOND
1     1     2     2
2     2     3     1
3     2     19    1
4     3     4     1
5     3     26    1
6     3     27    1
7     4     5     1
8     4     28    1
9     4     29    1
10    5     6     1
11    5     30    1
12    5     31    1
13    6     7     1
14    6     18    1
15    6     8     1
16    8     9     1
17    8     32    1
18    8     33    1
19    9     10    1
20    9     34    1
21    9     35    1
22    10    11    1
23    10    17    1
24    11    16    ar
25    11    12    ar
26    12    13    ar
27    12    36    1
28    13    14    ar
29    13    37    1
30    14    15    ar
31    14    38    1
32    15    16    ar
33    15    39    1
34    17    18    1
35    17    40    1
36    17    41    1
37    18    42    1
38    18    43    1
39    19    25    ar
40    19    20    ar
41    20    21    ar
42    20    44    1
43    21    22    ar
44    21    45    1
45    22    23    1
46    22    24    ar
47    24    25    ar
48    24    46    1
49    25    47    1
@<TRIPOS>SUBSTRUCTURE
1   ZINC000002596977 1     RESIDUE    1   A     ZIN   1
