@<TRIPOS>MOLECULE
ZINC000005134714
40    42    1     0     0
SMALL
USER_CHARGES
@<TRIPOS>ATOM
1      O1      1.4458    0.3563   -4.4669 O.co2    1 ZINC000005134714   -0.6800
2      C2      1.9695    1.2086   -3.7700 C.2      1 ZINC000005134714    0.4900
3      O3      3.0336    1.7006   -4.1049 O.co2    1 ZINC000005134714   -0.6400
4      C4      1.3015    1.6542   -2.4947 C.3      1 ZINC000005134714   -0.0500
5      H5      1.2550    2.7429   -2.4710 H        1 ZINC000005134714    0.1300
6      C6      2.1088    1.1529   -1.2952 C.3      1 ZINC000005134714   -0.1100
7      C7      1.4244    1.6132   -0.0029 C.3      1 ZINC000005134714   -0.0900
8      H8      1.9618    1.2311    0.8651 H        1 ZINC000005134714    0.1000
9      C9      1.4072    3.1431    0.0346 C.3      1 ZINC000005134714   -0.1200
10     C10     0.6922    3.6177    1.3007 C.3      1 ZINC000005134714   -0.0800
11     H11     1.2144    3.2358    2.1779 H        1 ZINC000005134714    0.0700
12     C12     0.6823    5.1472    1.3382 C.3      1 ZINC000005134714   -0.1000
13     C13     0.0790    5.6209    2.6621 C.3      1 ZINC000005134714    0.0000
14     C14     0.0692    7.1274    2.6991 C.2      1 ZINC000005134714    0.0500
15     N15     1.0290    7.9125    3.1663 N.2      1 ZINC000005134714   -0.3900
16     N16     0.6413    9.1331    3.0169 N.2      1 ZINC000005134714   -0.2000
17     N17    -0.5295    9.1387    2.4811 N.2      1 ZINC000005134714   -0.2000
18     N18    -0.9033    7.9218    2.2761 N.pl3    1 ZINC000005134714   -0.3900
19     C19    -0.7470    3.0979    1.2967 C.3      1 ZINC000005134714   -0.1200
20     C20    -0.7360    1.5759    1.2615 C.3      1 ZINC000005134714   -0.1100
21     C21    -0.0127    1.0858    0.0080 C.3      1 ZINC000005134714   -0.1000
22     H22     0.0021   -0.0041    0.0020 H        1 ZINC000005134714    0.0900
23     C23    -0.7454    1.5900   -1.2361 C.3      1 ZINC000005134714   -0.0100
24     N24    -0.0588    1.1061   -2.4402 N.4      1 ZINC000005134714   -0.4800
25     H25    -0.5712    1.3991   -3.2586 H        1 ZINC000005134714    0.4300
26     H26    -0.0134    0.0984   -2.4163 H        1 ZINC000005134714    0.4200
27     H27     3.1183    1.5619   -1.3387 H        1 ZINC000005134714    0.1100
28     H28     2.1542    0.0640   -1.3158 H        1 ZINC000005134714    0.0800
29     H29     2.4309    3.5177    0.0338 H        1 ZINC000005134714    0.0800
30     H30     0.8821    3.5217   -0.8423 H        1 ZINC000005134714    0.0600
31     H31     1.7029    5.5194    1.2502 H        1 ZINC000005134714    0.0600
32     H32     0.0843    5.5271    0.5099 H        1 ZINC000005134714    0.0600
33     H33    -0.9417    5.2487    2.7501 H        1 ZINC000005134714    0.0600
34     H34     0.6770    5.2410    3.4905 H        1 ZINC000005134714    0.0600
35     H35    -1.2595    3.4390    2.1962 H        1 ZINC000005134714    0.0800
36     H36    -1.2674    3.4746    0.4161 H        1 ZINC000005134714    0.0600
37     H37    -1.7605    1.2038    1.2580 H        1 ZINC000005134714    0.0700
38     H38    -0.2191    1.2055    2.1468 H        1 ZINC000005134714    0.0800
39     H39    -1.7705    1.2194   -1.2289 H        1 ZINC000005134714    0.1200
40     H40    -0.7536    2.6800   -1.2359 H        1 ZINC000005134714    0.1300
@<TRIPOS>BOND
1     1     2     ar
2     2     3     ar
3     2     4     1
4     4     5     1
5     4     24    1
6     4     6     1
7     6     7     1
8     6     27    1
9     6     28    1
10    7     8     1
11    7     21    1
12    7     9     1
13    9     10    1
14    9     29    1
15    9     30    1
16    10    11    1
17    10    12    1
18    10    19    1
19    12    13    1
20    12    31    1
21    12    32    1
22    13    14    1
23    13    33    1
24    13    34    1
25    14    18    1
26    14    15    2
27    15    16    1
28    16    17    2
29    17    18    1
30    19    20    1
31    19    35    1
32    19    36    1
33    20    21    1
34    20    37    1
35    20    38    1
36    21    22    1
37    21    23    1
38    23    24    1
39    23    39    1
40    23    40    1
41    24    25    1
42    24    26    1
@<TRIPOS>SUBSTRUCTURE
1   ZINC000005134714 1     RESIDUE    1   A     ZIN   1
