@<TRIPOS>MOLECULE
ZINC000000000644
46    48    1     0     0
SMALL
USER_CHARGES
@<TRIPOS>ATOM
1      C1     -1.3567    1.4092    1.2913 C.3      1 ZINC000000000644   -0.1500
2      C2     -1.2602   -0.0923    1.2061 C.2      1 ZINC000000000644    0.4500
3      O3     -1.2808   -0.7572    2.2148 O.2      1 ZINC000000000644   -0.4900
4      O4     -1.1514   -0.6912    0.0093 O.3      1 ZINC000000000644   -0.2900
5      C5     -0.9571   -2.0358    0.0079 C.ar     1 ZINC000000000644    0.1300
6      C6      0.3271   -2.5581    0.0593 C.ar     1 ZINC000000000644   -0.1500
7      C7      0.5235   -3.9270    0.0578 C.ar     1 ZINC000000000644   -0.0400
8      C8      1.9243   -4.4803    0.1119 C.3      1 ZINC000000000644   -0.1200
9      C9     -0.5545   -4.7938    0.0077 C.ar     1 ZINC000000000644   -0.1400
10     C10    -1.8405   -4.2895   -0.0423 C.ar     1 ZINC000000000644    0.1500
11     C11    -2.0471   -2.9050   -0.0395 C.ar     1 ZINC000000000644   -0.1300
12     C12    -3.4372   -2.3922   -0.1040 C.2      1 ZINC000000000644   -0.0600
13     C13    -4.4230   -3.2267    0.1858 C.2      1 ZINC000000000644   -0.1400
14     C14    -5.8730   -2.8222    0.1504 C.3      1 ZINC000000000644   -0.0800
15     C15    -6.0577   -1.5346   -0.6496 C.3      1 ZINC000000000644   -0.1200
16     C16    -5.0577   -0.4964   -0.1245 C.3      1 ZINC000000000644   -0.0900
17     H17    -5.1410   -0.4205    0.9597 H        1 ZINC000000000644    0.0700
18     C18    -5.3439    0.8650   -0.7613 C.3      1 ZINC000000000644   -0.1500
19     C19    -3.6516   -0.9589   -0.5028 C.3      1 ZINC000000000644   -0.0800
20     C20    -4.0959   -4.6500    0.5858 C.3      1 ZINC000000000644    0.1500
21     C21    -3.8608   -4.7080    2.0965 C.3      1 ZINC000000000644   -0.1700
22     C22    -5.2721   -5.5587    0.2232 C.3      1 ZINC000000000644   -0.1400
23     O23    -2.9247   -5.1055   -0.0858 O.3      1 ZINC000000000644   -0.3000
24     H24    -1.4381    1.7094    2.3360 H        1 ZINC000000000644    0.1100
25     H25    -0.4641    1.8561    0.8534 H        1 ZINC000000000644    0.1100
26     H26    -2.2376    1.7482    0.7462 H        1 ZINC000000000644    0.1000
27     H27     1.1770   -1.8930    0.1003 H        1 ZINC000000000644    0.1300
28     H28     2.2195   -4.6208    1.1517 H        1 ZINC000000000644    0.0800
29     H29     1.9570   -5.4379   -0.4077 H        1 ZINC000000000644    0.0700
30     H30     2.6094   -3.7822   -0.3692 H        1 ZINC000000000644    0.0700
31     H31    -0.3913   -5.8614    0.0071 H        1 ZINC000000000644    0.1400
32     H32    -6.4562   -3.6186   -0.3119 H        1 ZINC000000000644    0.0800
33     H33    -6.2264   -2.6651    1.1695 H        1 ZINC000000000644    0.0800
34     H34    -5.8674   -1.7272   -1.7055 H        1 ZINC000000000644    0.0700
35     H35    -7.0745   -1.1640   -0.5203 H        1 ZINC000000000644    0.0700
36     H36    -6.3565    1.1790   -0.5080 H        1 ZINC000000000644    0.0600
37     H37    -4.6312    1.5991   -0.3852 H        1 ZINC000000000644    0.0500
38     H38    -5.2478    0.7870   -1.8442 H        1 ZINC000000000644    0.0600
39     H39    -2.9188   -0.3317    0.0048 H        1 ZINC000000000644    0.0900
40     H40    -3.5200   -0.8627   -1.5806 H        1 ZINC000000000644    0.0800
41     H41    -4.7604   -4.3798    2.6171 H        1 ZINC000000000644    0.0700
42     H42    -3.6249   -5.7313    2.3885 H        1 ZINC000000000644    0.0700
43     H43    -3.0294   -4.0542    2.3602 H        1 ZINC000000000644    0.0600
44     H44    -5.4491   -5.5127   -0.8513 H        1 ZINC000000000644    0.0700
45     H45    -5.0405   -6.5846    0.5097 H        1 ZINC000000000644    0.0700
46     H46    -6.1648   -5.2263    0.7530 H        1 ZINC000000000644    0.0800
@<TRIPOS>BOND
1     1     2     1
2     1     24    1
3     1     25    1
4     1     26    1
5     2     3     2
6     2     4     1
7     4     5     1
8     5     11    ar
9     5     6     ar
10    6     7     ar
11    6     27    1
12    7     8     1
13    7     9     ar
14    8     28    1
15    8     29    1
16    8     30    1
17    9     10    ar
18    9     31    1
19    10    23    1
20    10    11    ar
21    11    12    1
22    12    19    1
23    12    13    2
24    13    14    1
25    13    20    1
26    14    15    1
27    14    32    1
28    14    33    1
29    15    16    1
30    15    34    1
31    15    35    1
32    16    17    1
33    16    18    1
34    16    19    1
35    18    36    1
36    18    37    1
37    18    38    1
38    19    39    1
39    19    40    1
40    20    21    1
41    20    22    1
42    20    23    1
43    21    41    1
44    21    42    1
45    21    43    1
46    22    44    1
47    22    45    1
48    22    46    1
@<TRIPOS>SUBSTRUCTURE
1   ZINC000000000644 1     RESIDUE    1   A     ZIN   1
