@<TRIPOS>MOLECULE
ZINC000004212253
44    45    1     0     0
SMALL
USER_CHARGES
@<TRIPOS>ATOM
1      C1     -0.0187    1.5258    0.0104 C.3      1 ZINC000004212253   -0.1800
2      C2      0.0021   -0.0041    0.0020 C.3      1 ZINC000004212253   -0.1500
3      C3     -1.4333   -0.5336    0.0129 C.3      1 ZINC000004212253    0.0200
4      H4     -1.9862   -0.1019   -0.8214 H        1 ZINC000004212253    0.1400
5      C5     -1.4157   -2.0577   -0.1212 C.3      1 ZINC000004212253   -0.1900
6      N6     -2.0833   -0.1607    1.2764 N.4      1 ZINC000004212253   -0.5100
7      H7     -1.6210   -0.6267    2.0427 H        1 ZINC000004212253    0.4300
8      H8     -2.0220    0.8383    1.4041 H        1 ZINC000004212253    0.4300
9      C9     -3.4954   -0.5639    1.2383 C.3      1 ZINC000004212253   -0.0500
10     C10    -4.1723   -0.1755    2.5543 C.3      1 ZINC000004212253    0.1400
11     H11    -3.6194   -0.6073    3.3885 H        1 ZINC000004212253    0.1300
12     O12    -4.1888    1.2479    2.6795 O.3      1 ZINC000004212253   -0.5500
13     C13    -5.5861   -0.6971    2.5649 C.ar     1 ZINC000004212253   -0.1500
14     C14    -6.5811   -0.0177    1.8876 C.ar     1 ZINC000004212253   -0.1100
15     C15    -7.8738   -0.4999    1.9046 C.ar     1 ZINC000004212253   -0.1100
16     C16    -8.1841   -1.6628    2.5973 C.ar     1 ZINC000004212253   -0.0500
17     C17    -9.6179   -2.1243    2.5865 C.3      1 ZINC000004212253   -0.0900
18     C18    -9.7134   -3.5904    3.0038 C.3      1 ZINC000004212253   -0.1200
19     C19    -8.9457   -3.7702    4.3188 C.3      1 ZINC000004212253   -0.1200
20     C20    -7.4538   -3.6144    4.0310 C.3      1 ZINC000004212253   -0.0900
21     C21    -7.1917   -2.3427    3.2675 C.ar     1 ZINC000004212253   -0.0700
22     C22    -5.8907   -1.8577    3.2463 C.ar     1 ZINC000004212253   -0.1000
23     H23     1.0039    1.9031    0.0027 H        1 ZINC000004212253    0.0800
24     H24    -0.5459    1.8868   -0.8726 H        1 ZINC000004212253    0.0700
25     H25    -0.5289    1.8773    0.9072 H        1 ZINC000004212253    0.0500
26     H26     0.5123   -0.3556   -0.8948 H        1 ZINC000004212253    0.1100
27     H27     0.5293   -0.3651    0.8851 H        1 ZINC000004212253    0.0900
28     H28    -2.4383   -2.4349   -0.1135 H        1 ZINC000004212253    0.0800
29     H29    -0.9334   -2.3344   -1.0587 H        1 ZINC000004212253    0.1100
30     H30    -0.8628   -2.4894    0.7131 H        1 ZINC000004212253    0.0800
31     H31    -3.9947   -0.0605    0.4104 H        1 ZINC000004212253    0.1400
32     H32    -3.5615   -1.6431    1.1003 H        1 ZINC000004212253    0.1500
33     H33    -4.6650    1.6997    1.9694 H        1 ZINC000004212253    0.3900
34     H34    -6.3476    0.8877    1.3471 H        1 ZINC000004212253    0.1200
35     H35    -8.6507    0.0317    1.3752 H        1 ZINC000004212253    0.1300
36     H36   -10.1970   -1.5147    3.2802 H        1 ZINC000004212253    0.0800
37     H37   -10.0249   -2.0093    1.5819 H        1 ZINC000004212253    0.0800
38     H38   -10.7586   -3.8635    3.1487 H        1 ZINC000004212253    0.0700
39     H39    -9.2723   -4.2212    2.2321 H        1 ZINC000004212253    0.0700
40     H40    -9.2624   -3.0123    5.0353 H        1 ZINC000004212253    0.0700
41     H41    -9.1396   -4.7632    4.7242 H        1 ZINC000004212253    0.0700
42     H42    -6.9069   -3.5870    4.9735 H        1 ZINC000004212253    0.0800
43     H43    -7.1107   -4.4647    3.4416 H        1 ZINC000004212253    0.0800
44     H44    -5.1117   -2.3908    3.7709 H        1 ZINC000004212253    0.1300
@<TRIPOS>BOND
1     1     2     1
2     1     23    1
3     1     24    1
4     1     25    1
5     2     3     1
6     2     26    1
7     2     27    1
8     3     4     1
9     3     5     1
10    3     6     1
11    5     28    1
12    5     29    1
13    5     30    1
14    6     7     1
15    6     8     1
16    6     9     1
17    9     10    1
18    9     31    1
19    9     32    1
20    10    11    1
21    10    12    1
22    10    13    1
23    12    33    1
24    13    22    ar
25    13    14    ar
26    14    15    ar
27    14    34    1
28    15    16    ar
29    15    35    1
30    16    21    ar
31    16    17    1
32    17    18    1
33    17    36    1
34    17    37    1
35    18    19    1
36    18    38    1
37    18    39    1
38    19    20    1
39    19    40    1
40    19    41    1
41    20    21    1
42    20    42    1
43    20    43    1
44    21    22    ar
45    22    44    1
@<TRIPOS>SUBSTRUCTURE
1   ZINC000004212253 1     RESIDUE    1   A     ZIN   1
