@<TRIPOS>MOLECULE
ZINC000252625887
40    42    1     0     0
SMALL
USER_CHARGES
@<TRIPOS>ATOM
1      Cl1     0.0021   -0.0041    0.0020 Cl       1 ZINC000252625887   -0.0400
2      C2     -0.0215    1.7317    0.0116 C.ar     1 ZINC000252625887   -0.0200
3      C3     -1.2286    2.4072    0.0325 C.ar     1 ZINC000252625887   -0.1000
4      C4     -1.2475    3.7894    0.0396 C.ar     1 ZINC000252625887   -0.0900
5      C5     -0.0607    4.4974    0.0262 C.ar     1 ZINC000252625887   -0.0800
6      C6     -0.0822    6.0042    0.0345 C.3      1 ZINC000252625887    0.1200
7      O7     -1.4359    6.4612    0.0564 O.3      1 ZINC000252625887   -0.2300
8      N8     -1.5679    7.8710    0.0657 N.2      1 ZINC000252625887   -0.2500
9      C9     -2.7434    8.4105    0.0854 C.2      1 ZINC000252625887    0.1300
10     C10    -3.9725    7.5386    0.0985 C.3      1 ZINC000252625887    0.1100
11     N11    -4.3510    7.2488    1.4838 N.pl3    1 ZINC000252625887   -0.4000
12     C12    -3.9188    6.1928    2.2399 C.2      1 ZINC000252625887    0.0300
13     C13    -4.5089    6.3089    3.4448 C.2      1 ZINC000252625887    0.0100
14     N14    -5.2803    7.4060    3.4250 N.pl3    1 ZINC000252625887   -0.4700
15     H15    -5.8197    7.7266    4.1647 H        1 ZINC000252625887    0.4700
16     C16    -5.1867    7.9769    2.2552 C.cat    1 ZINC000252625887    0.2900
17     C17    -2.8809    9.8798    0.0952 C.ar     1 ZINC000252625887   -0.0500
18     C18    -4.1481   10.4653    0.1222 C.ar     1 ZINC000252625887   -0.0900
19     C19    -4.2702   11.8390    0.1311 C.ar     1 ZINC000252625887   -0.1000
20     C20    -3.1393   12.6383    0.1129 C.ar     1 ZINC000252625887    0.0000
21     Cl21   -3.3024   14.3666    0.1237 Cl       1 ZINC000252625887   -0.0300
22     C22    -1.8792   12.0650    0.0864 C.ar     1 ZINC000252625887   -0.1000
23     C23    -1.7430   10.6913    0.0831 C.ar     1 ZINC000252625887    0.0100
24     Cl24   -0.1626    9.9736    0.0506 Cl       1 ZINC000252625887   -0.0100
25     C25     1.1474    3.8229    0.0058 C.ar     1 ZINC000252625887   -0.0200
26     Cl26    2.6382    4.7123   -0.0109 Cl       1 ZINC000252625887   -0.0400
27     C27     1.1671    2.4399    0.0040 C.ar     1 ZINC000252625887   -0.0900
28     H28    -2.1564    1.8545    0.0429 H        1 ZINC000252625887    0.1400
29     H29    -2.1901    4.3163    0.0552 H        1 ZINC000252625887    0.1400
30     H30     0.4392    6.3702    0.9190 H        1 ZINC000252625887    0.0900
31     H31     0.4136    6.3795   -0.8607 H        1 ZINC000252625887    0.0900
32     H32    -4.7911    8.0570   -0.4009 H        1 ZINC000252625887    0.1400
33     H33    -3.7615    6.6052   -0.4233 H        1 ZINC000252625887    0.1500
34     H34    -3.2361    5.4155    1.9296 H        1 ZINC000252625887    0.2200
35     H35    -4.3830    5.6366    4.2806 H        1 ZINC000252625887    0.2300
36     H36    -5.6982    8.8784    1.9521 H        1 ZINC000252625887    0.2600
37     H37    -5.0311    9.8436    0.1358 H        1 ZINC000252625887    0.1400
38     H38    -5.2501   12.2926    0.1521 H        1 ZINC000252625887    0.1500
39     H39    -1.0012   12.6938    0.0723 H        1 ZINC000252625887    0.1600
40     H40     2.1097    1.9130   -0.0120 H        1 ZINC000252625887    0.1500
@<TRIPOS>BOND
1     1     2     1
2     2     27    ar
3     2     3     ar
4     3     4     ar
5     3     28    1
6     4     5     ar
7     4     29    1
8     5     6     1
9     5     25    ar
10    6     7     1
11    6     30    1
12    6     31    1
13    7     8     1
14    8     9     2
15    9     10    1
16    9     17    1
17    10    11    1
18    10    32    1
19    10    33    1
20    11    16    ar
21    11    12    1
22    12    13    2
23    12    34    1
24    13    14    1
25    13    35    1
26    14    15    1
27    14    16    ar
28    16    36    1
29    17    23    ar
30    17    18    ar
31    18    19    ar
32    18    37    1
33    19    20    ar
34    19    38    1
35    20    21    1
36    20    22    ar
37    22    23    ar
38    22    39    1
39    23    24    1
40    25    26    1
41    25    27    ar
42    27    40    1
@<TRIPOS>SUBSTRUCTURE
1   ZINC000252625887 1     RESIDUE    1   A     ZIN   1
