@<TRIPOS>MOLECULE
ZINC000114545220
51    54    1     0     0
SMALL
USER_CHARGES
@<TRIPOS>ATOM
1      C1     -0.4932   -2.1428    0.2427 C.3      1 ZINC000114545220   -0.1400
2      C2     -0.0076   -0.7105    0.0112 C.3      1 ZINC000114545220   -0.0800
3      C3      0.8872   -0.6731   -1.2008 C.2      1 ZINC000114545220   -0.0800
4      C4      2.2351   -0.7549   -1.0527 C.2      1 ZINC000114545220   -0.0100
5      C5      2.8311   -0.7531    0.2988 C.ar     1 ZINC000114545220   -0.0600
6      C6      2.7873    0.4060    1.0800 C.ar     1 ZINC000114545220   -0.1000
7      C7      3.3379    0.4094    2.3289 C.ar     1 ZINC000114545220   -0.1200
8      C8      3.9471   -0.7496    2.8284 C.ar     1 ZINC000114545220   -0.0300
9      C9      4.5394   -0.7478    4.1717 C.2      1 ZINC000114545220   -0.1200
10     C10     5.1276   -1.8678    4.6535 C.2      1 ZINC000114545220   -0.1600
11     C11     5.6981   -1.8661    5.9473 C.2      1 ZINC000114545220    0.5000
12     O12     5.6601   -0.8509    6.6322 O.co2    1 ZINC000114545220   -0.6900
13     O13     6.2306   -2.8798    6.3834 O.co2    1 ZINC000114545220   -0.7000
14     C14     3.9898   -1.9105    2.0445 C.ar     1 ZINC000114545220   -0.1200
15     C15     3.4336   -1.9122    0.7981 C.ar     1 ZINC000114545220   -0.1000
16     C16     3.1060   -0.8457   -2.2449 C.ar     1 ZINC000114545220   -0.0700
17     C17     3.8403   -1.9940   -2.4610 C.ar     1 ZINC000114545220   -0.0300
18     C18     4.6691   -2.0797   -3.5970 C.ar     1 ZINC000114545220   -0.2000
19     C19     5.5167   -3.0449   -4.1121 C.2      1 ZINC000114545220    0.0800
20     N20     6.0513   -2.5616   -5.2419 N.pl3    1 ZINC000114545220   -0.4300
21     N21     5.5648   -1.2728   -5.4877 N.2      1 ZINC000114545220   -0.3100
22     C22     4.7275   -0.9377   -4.5233 C.ar     1 ZINC000114545220    0.1100
23     C23     3.9504    0.2087   -4.2430 C.ar     1 ZINC000114545220   -0.1100
24     C24     3.1657    0.2395   -3.1414 C.ar     1 ZINC000114545220   -0.0500
25     C25     0.3018   -0.5483   -2.5424 C.ar     1 ZINC000114545220   -0.0300
26     C26     0.2641   -1.6544   -3.3988 C.ar     1 ZINC000114545220   -0.0600
27     C27    -0.2869   -1.5303   -4.6559 C.ar     1 ZINC000114545220   -0.1500
28     C28    -0.8035   -0.3132   -5.0736 C.ar     1 ZINC000114545220    0.1100
29     F29    -1.3420   -0.1995   -6.3074 F        1 ZINC000114545220   -0.1400
30     C30    -0.7704    0.7875   -4.2313 C.ar     1 ZINC000114545220   -0.1500
31     C31    -0.2265    0.6772   -2.9686 C.ar     1 ZINC000114545220    0.0000
32     Cl32   -0.1864    2.0561   -1.9147 Cl       1 ZINC000114545220   -0.0500
33     H33    -1.1232   -2.4521   -0.5913 H        1 ZINC000114545220    0.0500
34     H34     0.3655   -2.8101    0.3164 H        1 ZINC000114545220    0.0600
35     H35    -1.0678   -2.1866    1.1679 H        1 ZINC000114545220    0.0600
36     H36    -0.8654   -0.0577   -0.1502 H        1 ZINC000114545220    0.0700
37     H37     0.5489   -0.3700    0.8844 H        1 ZINC000114545220    0.0900
38     H38     2.3177    1.2990    0.6948 H        1 ZINC000114545220    0.1200
39     H39     3.3045    1.3049    2.9317 H        1 ZINC000114545220    0.1200
40     H40     4.5058    0.1470    4.7755 H        1 ZINC000114545220    0.1300
41     H41     5.1612   -2.7627    4.0497 H        1 ZINC000114545220    0.1000
42     H42     4.4589   -2.8045    2.4280 H        1 ZINC000114545220    0.1300
43     H43     3.4664   -2.8066    0.1937 H        1 ZINC000114545220    0.1200
44     H44     3.7805   -2.8185   -1.7661 H        1 ZINC000114545220    0.1300
45     H45     5.7125   -4.0152   -3.6802 H        1 ZINC000114545220    0.1900
46     H46     6.6825   -3.0352   -5.8060 H        1 ZINC000114545220    0.4400
47     H47     3.9790    1.0575   -4.9101 H        1 ZINC000114545220    0.1300
48     H48     2.5767    1.1219   -2.9395 H        1 ZINC000114545220    0.1200
49     H49     0.6662   -2.6032   -3.0754 H        1 ZINC000114545220    0.1400
50     H50    -0.3162   -2.3834   -5.3176 H        1 ZINC000114545220    0.1400
51     H51    -1.1746    1.7324   -4.5633 H        1 ZINC000114545220    0.1500
@<TRIPOS>BOND
1     1     2     1
2     1     33    1
3     1     34    1
4     1     35    1
5     2     3     1
6     2     36    1
7     2     37    1
8     3     4     2
9     3     25    1
10    4     5     1
11    4     16    1
12    5     15    ar
13    5     6     ar
14    6     7     ar
15    6     38    1
16    7     8     ar
17    7     39    1
18    8     9     1
19    8     14    ar
20    9     10    2
21    9     40    1
22    10    11    1
23    10    41    1
24    11    12    ar
25    11    13    ar
26    14    15    ar
27    14    42    1
28    15    43    1
29    16    24    ar
30    16    17    ar
31    17    18    ar
32    17    44    1
33    18    22    ar
34    18    19    2
35    19    20    1
36    19    45    1
37    20    21    1
38    20    46    1
39    21    22    2
40    22    23    ar
41    23    24    ar
42    23    47    1
43    24    48    1
44    25    31    ar
45    25    26    ar
46    26    27    ar
47    26    49    1
48    27    28    ar
49    27    50    1
50    28    29    1
51    28    30    ar
52    30    31    ar
53    30    51    1
54    31    32    1
@<TRIPOS>SUBSTRUCTURE
1   ZINC000114545220 1     RESIDUE    1   A     ZIN   1
