@<TRIPOS>MOLECULE
ZINC000001491002
51    53    1     0     0
SMALL
USER_CHARGES
@<TRIPOS>ATOM
1      C1     -0.3192    1.1747    0.1071 C.3      1 ZINC000001491002   -0.1200
2      C2      0.3103   -0.1945    0.0935 C.ar     1 ZINC000001491002   -0.1300
3      C3      0.4338   -0.8867   -1.0950 C.ar     1 ZINC000001491002    0.0000
4      C4      1.0109   -2.1435   -1.1083 C.ar     1 ZINC000001491002   -0.6900
5      S5      1.1666   -3.0234   -2.6269 S.o2     1 ZINC000001491002    2.7000
6      N6      2.6306   -2.6133   -3.2832 N.am     1 ZINC000001491002   -1.2500
7      O7      1.2513   -4.4003   -2.2859 O.2      1 ZINC000001491002   -0.9600
8      O8      0.1748   -2.4981   -3.4985 O.2      1 ZINC000001491002   -0.9600
9      C9      1.4664   -2.7107    0.0675 C.ar     1 ZINC000001491002    0.0000
10     C10     1.3462   -2.0233    1.2596 C.ar     1 ZINC000001491002   -0.1400
11     C11     0.7720   -0.7591    1.2755 C.ar     1 ZINC000001491002    0.2000
12     N12     0.6493   -0.0600    2.4813 N.am     1 ZINC000001491002   -0.6700
13     C13     0.4274   -0.7302    3.6293 C.2      1 ZINC000001491002    0.5200
14     O14     0.4186   -1.9431    3.6315 O.2      1 ZINC000001491002   -0.4800
15     C15     0.1902    0.0273    4.9103 C.3      1 ZINC000001491002    0.0400
16     O16    -0.0184   -0.8980    5.9792 O.3      1 ZINC000001491002   -0.2800
17     C17    -0.2477   -0.3756    7.2100 C.ar     1 ZINC000001491002    0.1600
18     C18    -0.2779    0.9989    7.3884 C.ar     1 ZINC000001491002   -0.2000
19     C19    -0.5114    1.5299    8.6417 C.ar     1 ZINC000001491002   -0.0500
20     C20    -0.7176    0.6957    9.7298 C.ar     1 ZINC000001491002   -0.0700
21     Cl21   -1.0105    1.3784   11.2988 Cl       1 ZINC000001491002   -0.0500
22     C22    -0.6916   -0.6737    9.5710 C.ar     1 ZINC000001491002   -0.0300
23     C23    -0.4611   -1.2240    8.3068 C.ar     1 ZINC000001491002   -0.1700
24     C24    -0.4318   -2.6872    8.1292 C.2      1 ZINC000001491002    0.4600
25     O25     0.5370   -3.3246    8.4943 O.2      1 ZINC000001491002   -0.4200
26     C26    -1.5804   -3.3793    7.5072 C.ar     1 ZINC000001491002   -0.1400
27     C27    -1.5100   -4.7483    7.2369 C.ar     1 ZINC000001491002   -0.0200
28     C28    -2.5831   -5.3968    6.6560 C.ar     1 ZINC000001491002   -0.0500
29     Cl29   -2.4879   -7.0980    6.3233 Cl       1 ZINC000001491002   -0.0400
30     C30    -3.7318   -4.6971    6.3391 C.ar     1 ZINC000001491002   -0.0300
31     C31    -3.8147   -3.3274    6.6039 C.ar     1 ZINC000001491002   -0.0200
32     C32    -5.0058   -2.6038    6.2749 C.1      1 ZINC000001491002    0.2500
33     N33    -5.9508   -2.0298    6.0139 N.1      1 ZINC000001491002   -0.3900
34     C34    -2.7383   -2.6686    7.1944 C.ar     1 ZINC000001491002   -0.0100
35     H35     0.4512    1.9303   -0.0466 H        1 ZINC000001491002    0.0800
36     H36    -1.0589    1.2424   -0.6906 H        1 ZINC000001491002    0.0800
37     H37    -0.8052    1.3416    1.0684 H        1 ZINC000001491002    0.0700
38     H38     0.0789   -0.4463   -2.0151 H        1 ZINC000001491002    0.1500
39     H39     3.1083   -3.2490   -3.8387 H        1 ZINC000001491002    0.4200
40     H40     3.0106   -1.7374   -3.1121 H        1 ZINC000001491002    0.4200
41     H41     1.9163   -3.6924    0.0539 H        1 ZINC000001491002    0.1500
42     H42     1.7019   -2.4670    2.1777 H        1 ZINC000001491002    0.1500
43     H43     0.7238    0.9071    2.4909 H        1 ZINC000001491002    0.4200
44     H44     1.0585    0.6480    5.1314 H        1 ZINC000001491002    0.1100
45     H45    -0.6904    0.6601    4.8005 H        1 ZINC000001491002    0.1100
46     H46    -0.1182    1.6555    6.5459 H        1 ZINC000001491002    0.1500
47     H47    -0.5331    2.6014    8.7751 H        1 ZINC000001491002    0.1500
48     H48    -0.8524   -1.3200   10.4212 H        1 ZINC000001491002    0.1500
49     H49    -0.6150   -5.3007    7.4823 H        1 ZINC000001491002    0.1600
50     H50    -4.5672   -5.2098    5.8855 H        1 ZINC000001491002    0.1500
51     H51    -2.7974   -1.6102    7.4010 H        1 ZINC000001491002    0.1400
@<TRIPOS>BOND
1     1     2     1
2     1     35    1
3     1     36    1
4     1     37    1
5     2     11    ar
6     2     3     ar
7     3     4     ar
8     3     38    1
9     4     5     1
10    4     9     ar
11    5     6     am
12    5     7     2
13    5     8     2
14    6     39    1
15    6     40    1
16    9     10    ar
17    9     41    1
18    10    11    ar
19    10    42    1
20    11    12    1
21    12    13    am
22    12    43    1
23    13    14    2
24    13    15    1
25    15    16    1
26    15    44    1
27    15    45    1
28    16    17    1
29    17    23    ar
30    17    18    ar
31    18    19    ar
32    18    46    1
33    19    20    ar
34    19    47    1
35    20    21    1
36    20    22    ar
37    22    23    ar
38    22    48    1
39    23    24    1
40    24    25    2
41    24    26    1
42    26    34    ar
43    26    27    ar
44    27    28    ar
45    27    49    1
46    28    29    1
47    28    30    ar
48    30    31    ar
49    30    50    1
50    31    32    1
51    31    34    ar
52    32    33    3
53    34    51    1
@<TRIPOS>SUBSTRUCTURE
1   ZINC000001491002 1     RESIDUE    1   A     ZIN   1
