@<TRIPOS>MOLECULE
ZINC000003612878
54    57    1     0     0
SMALL
USER_CHARGES
@<TRIPOS>ATOM
1      O1      1.9660    3.5949   -1.1846 O.2      1 ZINC000003612878   -0.5100
2      C2      1.0116    3.0846   -0.6299 C.2      1 ZINC000003612878    0.5700
3      N3      1.1252    1.8561   -0.0873 N.am     1 ZINC000003612878   -0.6700
4      C4      2.3089    1.1284   -0.2456 C.ar     1 ZINC000003612878    0.2000
5      C5      2.2632   -0.2522   -0.3897 C.ar     1 ZINC000003612878   -0.1600
6      C6      3.4340   -0.9678   -0.5463 C.ar     1 ZINC000003612878    0.0000
7      C7      4.6509   -0.3112   -0.5598 C.ar     1 ZINC000003612878   -0.6900
8      S8      6.1423   -1.2279   -0.7599 S.o2     1 ZINC000003612878    2.6900
9      O9      7.1790   -0.4352   -0.1977 O.2      1 ZINC000003612878   -0.9500
10     O10     5.8589   -2.5533   -0.3329 O.2      1 ZINC000003612878   -0.9500
11     N11     6.4495   -1.3157   -2.3848 N.am     1 ZINC000003612878   -1.0000
12     C12     5.9186   -2.4216   -3.1974 C.3      1 ZINC000003612878    0.0900
13     C13     5.2164   -1.8269   -4.4234 C.3      1 ZINC000003612878    0.0500
14     O14     6.1066   -0.9242   -5.0840 O.3      1 ZINC000003612878   -0.3700
15     C15     6.4934    0.2011   -4.2915 C.3      1 ZINC000003612878    0.0500
16     C16     7.2564   -0.2867   -3.0598 C.3      1 ZINC000003612878    0.0900
17     C17     4.6999    1.0634   -0.4171 C.ar     1 ZINC000003612878    0.0000
18     C18     3.5325    1.7854   -0.2649 C.ar     1 ZINC000003612878   -0.1400
19     C19    -0.2676    3.8121   -0.5457 C.ar     1 ZINC000003612878   -0.1600
20     C20    -1.3651    3.2322    0.0955 C.ar     1 ZINC000003612878   -0.0500
21     C21    -2.5589    3.9181    0.1708 C.ar     1 ZINC000003612878   -0.0600
22     Cl22   -3.9214    3.1957    0.9680 Cl       1 ZINC000003612878   -0.0500
23     C23    -2.6764    5.1822   -0.3868 C.ar     1 ZINC000003612878   -0.0400
24     C24    -1.6010    5.7677   -1.0234 C.ar     1 ZINC000003612878   -0.1700
25     C25    -0.3889    5.0942   -1.1044 C.ar     1 ZINC000003612878    0.2300
26     N26     0.6950    5.6823   -1.7445 N.am     1 ZINC000003612878   -1.0400
27     S27     0.9338    7.3173   -1.6353 S.o2     1 ZINC000003612878    2.7200
28     O28     2.1822    7.5831   -2.2599 O.2      1 ZINC000003612878   -0.9300
29     O29    -0.2835    7.9285   -2.0401 O.2      1 ZINC000003612878   -0.9400
30     C30     1.1399    7.7015    0.0719 C.2      1 ZINC000003612878   -0.8000
31     C31     2.3054    7.7236    0.7193 C.2      1 ZINC000003612878    0.0300
32     C32     2.2214    8.0541    2.0614 C.2      1 ZINC000003612878   -0.1500
33     C33     0.9858    8.3004    2.5030 C.2      1 ZINC000003612878   -0.1100
34     Cl34    0.5736    8.7378    4.1317 Cl       1 ZINC000003612878    0.0100
35     S35    -0.1595    8.1218    1.1802 S.3      1 ZINC000003612878    0.2800
36     H36     0.3859    1.4767    0.4130 H        1 ZINC000003612878    0.4200
37     H37     1.3131   -0.7657   -0.3789 H        1 ZINC000003612878    0.1400
38     H38     3.3991   -2.0415   -0.6580 H        1 ZINC000003612878    0.1500
39     H39     6.7365   -3.0661   -3.5195 H        1 ZINC000003612878    0.0900
40     H40     5.2050   -2.9992   -2.6098 H        1 ZINC000003612878    0.1000
41     H41     4.9369   -2.6283   -5.1073 H        1 ZINC000003612878    0.1100
42     H42     4.3225   -1.2898   -4.1062 H        1 ZINC000003612878    0.0600
43     H43     7.1328    0.8587   -4.8805 H        1 ZINC000003612878    0.1100
44     H44     5.6042    0.7455   -3.9738 H        1 ZINC000003612878    0.0600
45     H45     7.4310    0.5485   -2.3815 H        1 ZINC000003612878    0.1000
46     H46     8.2098   -0.7177   -3.3653 H        1 ZINC000003612878    0.0900
47     H47     5.6519    1.5733   -0.4281 H        1 ZINC000003612878    0.1400
48     H48     3.5714    2.8590   -0.1535 H        1 ZINC000003612878    0.1500
49     H49    -1.2786    2.2479    0.5314 H        1 ZINC000003612878    0.1400
50     H50    -3.6155    5.7117   -0.3229 H        1 ZINC000003612878    0.1500
51     H51    -1.7007    6.7526   -1.4551 H        1 ZINC000003612878    0.1800
52     H52     1.3119    5.1350   -2.2553 H        1 ZINC000003612878    0.4400
53     H53     3.2439    7.5003    0.2338 H        1 ZINC000003612878    0.1700
54     H54     3.0891    8.1082    2.7021 H        1 ZINC000003612878    0.1600
@<TRIPOS>BOND
1     1     2     2
2     2     3     am
3     2     19    1
4     3     4     1
5     3     36    1
6     4     18    ar
7     4     5     ar
8     5     6     ar
9     5     37    1
10    6     7     ar
11    6     38    1
12    7     8     1
13    7     17    ar
14    8     9     2
15    8     10    2
16    8     11    am
17    11    16    1
18    11    12    1
19    12    13    1
20    12    39    1
21    12    40    1
22    13    14    1
23    13    41    1
24    13    42    1
25    14    15    1
26    15    16    1
27    15    43    1
28    15    44    1
29    16    45    1
30    16    46    1
31    17    18    ar
32    17    47    1
33    18    48    1
34    19    25    ar
35    19    20    ar
36    20    21    ar
37    20    49    1
38    21    22    1
39    21    23    ar
40    23    24    ar
41    23    50    1
42    24    25    ar
43    24    51    1
44    25    26    1
45    26    27    am
46    26    52    1
47    27    28    2
48    27    29    2
49    27    30    1
50    30    35    1
51    30    31    2
52    31    32    1
53    31    53    1
54    32    33    2
55    32    54    1
56    33    34    1
57    33    35    1
@<TRIPOS>SUBSTRUCTURE
1   ZINC000003612878 1     RESIDUE    1   A     ZIN   1
