@<TRIPOS>MOLECULE
ZINC000000139367
31    32    1     0     0
SMALL
USER_CHARGES
@<TRIPOS>ATOM
1      C1     -0.0187    1.5258    0.0104 C.3      1 ZINC000000139367   -0.1800
2      C2      0.0021   -0.0041    0.0020 C.3      1 ZINC000000139367   -0.1500
3      C3     -1.4333   -0.5336    0.0129 C.3      1 ZINC000000139367    0.0300
4      H4     -1.9862   -0.1019   -0.8214 H        1 ZINC000000139367    0.1400
5      N5     -2.0833   -0.1607    1.2764 N.4      1 ZINC000000139367   -0.6400
6      H6     -2.0949    0.8443    1.3648 H        1 ZINC000000139367    0.4300
7      H7     -3.0299   -0.5100    1.2835 H        1 ZINC000000139367    0.4300
8      H8     -1.5715   -0.5604    2.0487 H        1 ZINC000000139367    0.4300
9      C9     -1.4157   -2.0577   -0.1212 C.3      1 ZINC000000139367   -0.0600
10     C10    -2.8290   -2.5684   -0.2340 C.2      1 ZINC000000139367   -0.2200
11     C11    -3.5986   -3.0164    0.7705 C.2      1 ZINC000000139367    0.0600
12     N12    -4.8211   -3.3968    0.2876 N.pl3    1 ZINC000000139367   -0.5900
13     C13    -4.8692   -3.1978   -1.0740 C.ar     1 ZINC000000139367    0.1000
14     C14    -5.8480   -3.4106   -2.0389 C.ar     1 ZINC000000139367   -0.1200
15     C15    -5.5880   -3.1038   -3.3568 C.ar     1 ZINC000000139367   -0.0900
16     C16    -4.3575   -2.5836   -3.7329 C.ar     1 ZINC000000139367   -0.1300
17     C17    -3.3815   -2.3665   -2.8013 C.ar     1 ZINC000000139367   -0.0800
18     C18    -3.6257   -2.6643   -1.4596 C.ar     1 ZINC000000139367   -0.1000
19     H19     1.0039    1.9031    0.0027 H        1 ZINC000000139367    0.0800
20     H20    -0.5459    1.8868   -0.8726 H        1 ZINC000000139367    0.0700
21     H21    -0.5289    1.8773    0.9072 H        1 ZINC000000139367    0.0500
22     H22     0.5123   -0.3556   -0.8948 H        1 ZINC000000139367    0.1100
23     H23     0.5293   -0.3651    0.8851 H        1 ZINC000000139367    0.0900
24     H24    -0.8559   -2.3374   -1.0137 H        1 ZINC000000139367    0.1200
25     H25    -0.9406   -2.4942    0.7573 H        1 ZINC000000139367    0.0900
26     H26    -3.2974   -3.0691    1.8063 H        1 ZINC000000139367    0.1700
27     H27    -5.5459   -3.7535    0.8246 H        1 ZINC000000139367    0.4200
28     H28    -6.8086   -3.8154   -1.7562 H        1 ZINC000000139367    0.1300
29     H29    -6.3492   -3.2701   -4.1046 H        1 ZINC000000139367    0.1300
30     H30    -4.1697   -2.3487   -4.7702 H        1 ZINC000000139367    0.1300
31     H31    -2.4264   -1.9614   -3.1014 H        1 ZINC000000139367    0.1200
@<TRIPOS>BOND
1     1     2     1
2     1     19    1
3     1     20    1
4     1     21    1
5     2     3     1
6     2     22    1
7     2     23    1
8     3     4     1
9     3     5     1
10    3     9     1
11    5     6     1
12    5     7     1
13    5     8     1
14    9     10    1
15    9     24    1
16    9     25    1
17    10    18    1
18    10    11    2
19    11    12    1
20    11    26    1
21    12    13    1
22    12    27    1
23    13    18    ar
24    13    14    ar
25    14    15    ar
26    14    28    1
27    15    16    ar
28    15    29    1
29    16    17    ar
30    16    30    1
31    17    18    ar
32    17    31    1
@<TRIPOS>SUBSTRUCTURE
1   ZINC000000139367 1     RESIDUE    1   A     ZIN   1
