@<TRIPOS>MOLECULE
ZINC000003860906
  47   46    0    0    0
SMALL
USER_CHARGES
NO_NAME
@<TRIPOS>ATOM
    1 C1       -0.0187     1.5258     0.0104 C.3    1 <0>      -0.1500
    2 C2        0.0021    -0.0041     0.0020 C.3    1 <0>      -0.1200
    3 C3        0.7182    -0.4975    -1.2568 C.3    1 <0>      -0.1100
    4 C4        0.7386    -2.0043    -1.2651 C.2    1 <0>       0.4600
    5 O5        0.2324    -2.6204    -0.3573 O.2    1 <0>      -0.5000
    6 O6        1.3193    -2.6621    -2.2809 O.3    1 <0>      -0.3500
    7 C7        1.3016    -4.1128    -2.2227 C.3    1 <0>       0.0700
    8 C8        2.0046    -4.6813    -3.4570 C.3    1 <0>       0.0900
    9 C9        2.0964    -6.2038    -3.3356 C.3    1 <0>       0.0500
   10 O10       2.8665    -6.7324    -4.4473 O.3    1 <0>      -0.3400
   11 C11       3.0416    -8.0625    -4.4895 C.2    1 <0>       0.4600
   12 O12       2.5670    -8.7620    -3.6262 O.2    1 <0>      -0.5100
   13 C13       3.8300    -8.6835    -5.6138 C.3    1 <0>      -0.1100
   14 C14       3.8783   -10.2010    -5.4253 C.3    1 <0>      -0.1100
   15 C15       4.6787   -10.8315    -6.5667 C.3    1 <0>      -0.1500
   16 O16       1.2483    -4.3354    -4.6472 O.3    1 <0>      -0.3500
   17 C17       1.9415    -4.1802    -5.7861 C.2    1 <0>       0.4600
   18 O18       3.1406    -4.3286    -5.7884 O.2    1 <0>      -0.4900
   19 C19       1.2242    -3.8210    -7.0618 C.3    1 <0>      -0.1100
   20 C20       2.2381    -3.7054    -8.2018 C.3    1 <0>      -0.1100
   21 C21       1.5099    -3.3407    -9.4970 C.3    1 <0>      -0.1500
   22 H22       1.0039     1.9031     0.0027 H      1 <0>       0.0600
   23 H23      -0.5459     1.8868    -0.8726 H      1 <0>       0.0600
   24 H24      -0.5289     1.8773     0.9072 H      1 <0>       0.0600
   25 H25       0.5293    -0.3651     0.8851 H      1 <0>       0.0700
   26 H26      -1.0205    -0.3814     0.0098 H      1 <0>       0.0700
   27 H27       0.1910    -0.1364    -2.1398 H      1 <0>       0.1100
   28 H28       1.7408    -0.1202    -1.2645 H      1 <0>       0.1100
   29 H29       1.8194    -4.4467    -1.3236 H      1 <0>       0.1000
   30 H30       0.2696    -4.4629    -2.1989 H      1 <0>       0.0900
   31 H31       3.0079    -4.2615    -3.5293 H      1 <0>       0.1100
   32 H32       2.5865    -6.4646    -2.3976 H      1 <0>       0.0900
   33 H33       1.0937    -6.6307    -3.3527 H      1 <0>       0.0900
   34 H34       3.3515    -8.4505    -6.5650 H      1 <0>       0.1100
   35 H35       4.8443    -8.2844    -5.6099 H      1 <0>       0.1100
   36 H36       4.3567   -10.4340    -4.4741 H      1 <0>       0.0700
   37 H37       2.8639   -10.6001    -5.4292 H      1 <0>       0.0700
   38 H38       4.2002   -10.5985    -7.5180 H      1 <0>       0.0600
   39 H39       5.6930   -10.4324    -6.5628 H      1 <0>       0.0600
   40 H40       4.7131   -11.9126    -6.4324 H      1 <0>       0.0600
   41 H41       0.4964    -4.5966    -7.3001 H      1 <0>       0.1000
   42 H42       0.7109    -2.8680    -6.9340 H      1 <0>       0.1100
   43 H43       2.9660    -2.9299    -7.9634 H      1 <0>       0.0700
   44 H44       2.7514    -4.6585    -8.3295 H      1 <0>       0.0700
   45 H45       0.9966    -2.3877    -9.3692 H      1 <0>       0.0600
   46 H46       2.2322    -3.2584   -10.3091 H      1 <0>       0.0600
   47 H47       0.7820    -4.1163    -9.7353 H      1 <0>       0.0600
@<TRIPOS>BOND
   1    1    2 1
   2    1   22 1
   3    1   23 1
   4    1   24 1
   5    2    3 1
   6    2   25 1
   7    2   26 1
   8    3    4 1
   9    3   27 1
  10    3   28 1
  11    4    5 2
  12    4    6 1
  13    6    7 1
  14    7    8 1
  15    7   29 1
  16    7   30 1
  17    8    9 1
  18    8   16 1
  19    8   31 1
  20    9   10 1
  21    9   32 1
  22    9   33 1
  23   10   11 1
  24   11   12 2
  25   11   13 1
  26   13   14 1
  27   13   34 1
  28   13   35 1
  29   14   15 1
  30   14   36 1
  31   14   37 1
  32   15   38 1
  33   15   39 1
  34   15   40 1
  35   16   17 1
  36   17   18 2
  37   17   19 1
  38   19   20 1
  39   19   41 1
  40   19   42 1
  41   20   21 1
  42   20   43 1
  43   20   44 1
  44   21   45 1
  45   21   46 1
  46   21   47 1
