@<TRIPOS>MOLECULE
ZINC000030691369
62    64    1     0     0
SMALL
USER_CHARGES
@<TRIPOS>ATOM
1      C1     -0.0187    1.5258    0.0104 C.3      1 ZINC000030691369   -0.1500
2      C2      0.0021   -0.0041    0.0020 C.3      1 ZINC000030691369    0.0600
3      O3      0.6932   -0.4774    1.1597 O.3      1 ZINC000030691369   -0.3800
4      C4      0.7699   -1.9016    1.2491 C.3      1 ZINC000030691369    0.1000
5      C5      1.5151   -2.2870    2.5009 C.ar     1 ZINC000030691369   -0.0200
6      C6      2.8886   -2.4399    2.4638 C.ar     1 ZINC000030691369   -0.2200
7      C7      3.5814   -2.7936    3.6106 C.ar     1 ZINC000030691369    0.1800
8      O8      4.9311   -2.9429    3.5721 O.3      1 ZINC000030691369   -0.2900
9      C9      5.5730   -2.7196    2.3151 C.3      1 ZINC000030691369    0.0300
10     C10     2.8879   -2.9959    4.8069 C.ar     1 ZINC000030691369   -0.1000
11     C11     3.6212   -3.3742    6.0388 C.ar     1 ZINC000030691369   -0.0400
12     C12     4.2870   -4.5968    6.1091 C.ar     1 ZINC000030691369   -0.0900
13     C13     4.9679   -4.9435    7.2583 C.ar     1 ZINC000030691369   -0.1200
14     C14     4.9904   -4.0805    8.3391 C.ar     1 ZINC000030691369   -0.0600
15     C15     5.7357   -4.4649    9.5912 C.3      1 ZINC000030691369   -0.0800
16     C16     7.1819   -3.9747    9.4947 C.3      1 ZINC000030691369    0.0800
17     H17     7.1897   -2.9030    9.2960 H        1 ZINC000030691369    0.0900
18     N18     7.8644   -4.6783    8.4060 N.am     1 ZINC000030691369   -0.6700
19     C19     8.9242   -4.1106    7.7968 C.2      1 ZINC000030691369    0.5600
20     O20     9.3138   -3.0146    8.1508 O.2      1 ZINC000030691369   -0.5300
21     C21     9.6116   -4.8192    6.7003 C.ar     1 ZINC000030691369   -0.1900
22     C22     9.2029   -4.6306    5.3756 C.ar     1 ZINC000030691369    0.1600
23     F23     8.1763   -3.7982    5.0953 F        1 ZINC000030691369   -0.1200
24     C24     9.8528   -5.2980    4.3545 C.ar     1 ZINC000030691369   -0.1700
25     C25    10.9042   -6.1502    4.6392 C.ar     1 ZINC000030691369   -0.0500
26     C26    11.3147   -6.3425    5.9459 C.ar     1 ZINC000030691369   -0.1700
27     C27    10.6795   -5.6790    6.9788 C.ar     1 ZINC000030691369    0.1700
28     F28    11.0823   -5.8679    8.2544 F        1 ZINC000030691369   -0.1100
29     C29     7.8933   -4.2499   10.7944 C.2      1 ZINC000030691369    0.4900
30     O30     8.4777   -5.3074   10.9575 O.co2    1 ZINC000030691369   -0.6900
31     O31     7.8845   -3.4149   11.6829 O.co2    1 ZINC000030691369   -0.6900
32     C32     4.3318   -2.8657    8.2749 C.ar     1 ZINC000030691369   -0.1200
33     C33     3.6521   -2.5061    7.1289 C.ar     1 ZINC000030691369   -0.0900
34     C34     1.4994   -2.8394    4.8359 C.ar     1 ZINC000030691369    0.1700
35     O35     0.8161   -3.0338    5.9938 O.3      1 ZINC000030691369   -0.3000
36     C36    -0.6011   -2.8562    5.9485 C.3      1 ZINC000030691369    0.0300
37     C37     0.8222   -2.4802    3.6815 C.ar     1 ZINC000030691369   -0.2200
38     H38     1.0039    1.9031    0.0027 H        1 ZINC000030691369    0.0600
39     H39    -0.5459    1.8868   -0.8726 H        1 ZINC000030691369    0.0700
40     H40    -0.5289    1.8773    0.9072 H        1 ZINC000030691369    0.0600
41     H41    -1.0205   -0.3814    0.0098 H        1 ZINC000030691369    0.0500
42     H42     0.5123   -0.3556   -0.8948 H        1 ZINC000030691369    0.0500
43     H43    -0.2368   -2.3182    1.2827 H        1 ZINC000030691369    0.0600
44     H44     1.2960   -2.2925    0.3781 H        1 ZINC000030691369    0.0600
45     H45     3.4230   -2.2835    1.5384 H        1 ZINC000030691369    0.1300
46     H46     6.6469   -2.8714    2.4234 H        1 ZINC000030691369    0.1000
47     H47     5.1798   -3.4189    1.5771 H        1 ZINC000030691369    0.0500
48     H48     5.3818   -1.6983    1.9858 H        1 ZINC000030691369    0.0600
49     H49     4.2698   -5.2715    5.2659 H        1 ZINC000030691369    0.1100
50     H50     5.4839   -5.8907    7.3140 H        1 ZINC000030691369    0.1200
51     H51     5.2540   -4.0079   10.4556 H        1 ZINC000030691369    0.0900
52     H52     5.7263   -5.5493    9.7012 H        1 ZINC000030691369    0.0800
53     H53     7.5536   -5.5526    8.1235 H        1 ZINC000030691369    0.3900
54     H54     9.5384   -5.1539    3.3314 H        1 ZINC000030691369    0.1400
55     H55    11.4073   -6.6688    3.8366 H        1 ZINC000030691369    0.1400
56     H56    12.1364   -7.0100    6.1594 H        1 ZINC000030691369    0.1500
57     H57     4.3528   -2.1959    9.1218 H        1 ZINC000030691369    0.1200
58     H58     3.1383   -1.5574    7.0799 H        1 ZINC000030691369    0.1100
59     H59    -1.0323   -3.5563    5.2329 H        1 ZINC000030691369    0.0500
60     H60    -1.0222   -3.0412    6.9367 H        1 ZINC000030691369    0.1000
61     H61    -0.8297   -1.8357    5.6413 H        1 ZINC000030691369    0.0600
62     H62    -0.2508   -2.3588    3.7022 H        1 ZINC000030691369    0.1300
@<TRIPOS>BOND
1     1     2     1
2     1     38    1
3     1     39    1
4     1     40    1
5     2     3     1
6     2     41    1
7     2     42    1
8     3     4     1
9     4     5     1
10    4     43    1
11    4     44    1
12    5     37    ar
13    5     6     ar
14    6     7     ar
15    6     45    1
16    7     8     1
17    7     10    ar
18    8     9     1
19    9     46    1
20    9     47    1
21    9     48    1
22    10    11    1
23    10    34    ar
24    11    33    ar
25    11    12    ar
26    12    13    ar
27    12    49    1
28    13    14    ar
29    13    50    1
30    14    15    1
31    14    32    ar
32    15    16    1
33    15    51    1
34    15    52    1
35    16    17    1
36    16    18    1
37    16    29    1
38    18    19    am
39    18    53    1
40    19    20    2
41    19    21    1
42    21    27    ar
43    21    22    ar
44    22    23    1
45    22    24    ar
46    24    25    ar
47    24    54    1
48    25    26    ar
49    25    55    1
50    26    27    ar
51    26    56    1
52    27    28    1
53    29    30    ar
54    29    31    ar
55    32    33    ar
56    32    57    1
57    33    58    1
58    34    35    1
59    34    37    ar
60    35    36    1
61    36    59    1
62    36    60    1
63    36    61    1
64    37    62    1
@<TRIPOS>SUBSTRUCTURE
1   ZINC000030691369 1     RESIDUE    1   A     ZIN   1
