@<TRIPOS>MOLECULE
ZINC000001543513
  47   48    0    0    0
SMALL
USER_CHARGES
NO_NAME
@<TRIPOS>ATOM
    1 C1       -2.2894     1.1318    -1.7628 C.3    1 <0>       0.0300
    2 O2       -1.5117     0.0904    -1.1689 O.3    1 <0>      -0.3000
    3 C3       -0.6548    -0.5810    -1.9833 C.ar   1 <0>       0.1300
    4 C4       -0.4858    -0.1715    -3.2976 C.ar   1 <0>      -0.2000
    5 C5        0.3822    -0.8489    -4.1284 C.ar   1 <0>      -0.0700
    6 C6        1.0941    -1.9502    -3.6460 C.ar   1 <0>      -0.1000
    7 C7        2.0223    -2.6752    -4.5313 C.2    1 <0>      -0.0700
    8 C8        2.7942    -1.9962    -5.3957 C.2    1 <0>      -0.1400
    9 C9        2.8683    -0.5266    -5.3198 C.ar   1 <0>       0.0300
   10 C10       2.9480     0.1072    -4.0768 C.ar   1 <0>      -0.2100
   11 C11       3.0180     1.4870    -4.0091 C.ar   1 <0>       0.1600
   12 O12       3.0960     2.1047    -2.8000 O.3    1 <0>      -0.3100
   13 C13       3.2234     1.2659    -1.6501 C.3    1 <0>       0.0300
   14 C14       3.0091     2.2438    -5.1767 C.ar   1 <0>       0.0200
   15 O15       3.0781     3.6007    -5.1067 O.3    1 <0>      -0.3100
   16 C16       4.3817     4.1858    -5.1231 C.3    1 <0>       0.0400
   17 C17       2.9303     1.6158    -6.4159 C.ar   1 <0>       0.1400
   18 O18       2.9228     2.3590    -7.5548 O.3    1 <0>      -0.3100
   19 C19       2.8401     1.6490    -8.7922 C.3    1 <0>       0.0300
   20 C20       2.8650     0.2361    -6.4908 C.ar   1 <0>      -0.2400
   21 C21       0.9236    -2.3622    -2.3209 C.ar   1 <0>      -0.0900
   22 C22       0.0557    -1.6752    -1.4936 C.ar   1 <0>       0.1200
   23 O23      -0.1125    -2.0732    -0.2041 O.3    1 <0>      -0.6500
   24 P24       1.1159    -1.6922     0.7643 P.3    1 <0>       2.1700
   25 O25       1.3828    -0.1726     0.6841 O.2    1 <0>      -1.0800
   26 O26       2.3799    -2.4614     0.3197 O.3    1 <0>      -1.0900
   27 O27       0.7489    -2.0934     2.2798 O.3    1 <0>      -0.8900
   28 H28      -1.6293     1.9311    -2.0999 H      1 <0>       0.0600
   29 H29      -2.8412     0.7330    -2.6140 H      1 <0>       0.0500
   30 H30      -2.9909     1.5259    -1.0274 H      1 <0>       0.1000
   31 H31      -1.0355     0.6796    -3.6715 H      1 <0>       0.1300
   32 H32       0.5114    -0.5283    -5.1516 H      1 <0>       0.1200
   33 H33       2.0820    -3.7526    -4.4852 H      1 <0>       0.1300
   34 H34       3.3605    -2.5275    -6.1463 H      1 <0>       0.1300
   35 H35       2.9546    -0.4795    -3.1702 H      1 <0>       0.1500
   36 H36       3.1947     1.8782    -0.7488 H      1 <0>       0.1100
   37 H37       2.4015     0.5502    -1.6295 H      1 <0>       0.0800
   38 H38       4.1712     0.7295    -1.6949 H      1 <0>       0.0500
   39 H39       4.8903     3.9140    -6.0481 H      1 <0>       0.0400
   40 H40       4.2939     5.2705    -5.0619 H      1 <0>       0.0900
   41 H41       4.9553     3.8190    -4.2719 H      1 <0>       0.0400
   42 H42       2.8430     2.3589    -9.6193 H      1 <0>       0.1000
   43 H43       3.6953     0.9796    -8.8849 H      1 <0>       0.0500
   44 H44       1.9188     1.0669    -8.8162 H      1 <0>       0.0600
   45 H45       2.8042    -0.2508    -7.4529 H      1 <0>       0.1300
   46 H46       1.4717    -3.2129    -1.9438 H      1 <0>       0.1500
   47 H47       1.4454    -1.8919     2.9196 H      1 <0>       0.4100
@<TRIPOS>BOND
   1    1    2 1
   2    1   28 1
   3    1   29 1
   4    1   30 1
   5    2    3 1
   6    3   22 ar
   7    3    4 ar
   8    4    5 ar
   9    4   31 1
  10    5    6 ar
  11    5   32 1
  12    6    7 1
  13    6   21 ar
  14    7    8 2
  15    7   33 1
  16    8    9 1
  17    8   34 1
  18    9   20 ar
  19    9   10 ar
  20   10   11 ar
  21   10   35 1
  22   11   12 1
  23   11   14 ar
  24   12   13 1
  25   13   36 1
  26   13   37 1
  27   13   38 1
  28   14   15 1
  29   14   17 ar
  30   15   16 1
  31   16   39 1
  32   16   40 1
  33   16   41 1
  34   17   18 1
  35   17   20 ar
  36   18   19 1
  37   19   42 1
  38   19   43 1
  39   19   44 1
  40   20   45 1
  41   21   22 ar
  42   21   46 1
  43   22   23 1
  44   23   24 1
  45   24   25 2
  46   24   26 1
  47   24   27 1
  48   27   47 1
