@<TRIPOS>MOLECULE
ZINC000059185874
80    85    1     0     0
SMALL
USER_CHARGES
@<TRIPOS>ATOM
1      C1      2.6055   -2.7409    3.4140 C.3      1 ZINC000059185874   -0.1000
2      C2      2.0797   -2.3459    2.0581 C.ar     1 ZINC000059185874   -0.0800
3      C3      2.6446   -2.8807    0.9104 C.ar     1 ZINC000059185874    0.1500
4      N4      3.7041   -3.7882    1.0097 N.am     1 ZINC000059185874   -0.6700
5      C5      4.5548   -3.9467   -0.0237 C.2      1 ZINC000059185874    0.6000
6      O6      4.4580   -3.2349   -1.0062 O.2      1 ZINC000059185874   -0.5000
7      C7      5.5962   -4.9760    0.0358 C.2      1 ZINC000059185874   -0.2800
8      C8      6.5139   -5.2280   -0.9376 C.2      1 ZINC000059185874   -0.0300
9      C9      7.3897   -6.2546   -0.6356 C.2      1 ZINC000059185874   -0.1200
10     C10     7.1744   -6.8216    0.5732 C.2      1 ZINC000059185874   -0.1800
11     C11     7.9948   -7.9647    1.1405 C.3      1 ZINC000059185874   -0.0500
12     C12     8.7834   -8.6169    0.0019 C.3      1 ZINC000059185874   -0.1200
13     C13     9.5162   -7.5267   -0.7852 C.3      1 ZINC000059185874   -0.1200
14     C14     8.4973   -6.7069   -1.5786 C.3      1 ZINC000059185874   -0.0600
15     S15     5.8649   -6.0770    1.3772 S.3      1 ZINC000059185874    0.1800
16     C16     2.1573   -2.5150   -0.3390 C.ar     1 ZINC000059185874   -0.1200
17     C17     1.1106   -1.6187   -0.4412 C.ar     1 ZINC000059185874   -0.1000
18     C18     0.5425   -1.0816    0.6969 C.ar     1 ZINC000059185874   -0.1200
19     C19     1.0209   -1.4469    1.9543 C.ar     1 ZINC000059185874   -0.0100
20     C20     0.4114   -0.8712    3.1779 C.2      1 ZINC000059185874    0.0700
21     C21     0.3750    0.4814    3.3302 C.2      1 ZINC000059185874    0.0600
22     N22    -0.1773    1.0422    4.4404 N.am     1 ZINC000059185874   -0.4800
23     C23    -0.2124    2.4985    4.5953 C.3      1 ZINC000059185874    0.0600
24     C24    -0.6933    0.2407    5.3981 C.2      1 ZINC000059185874    0.4900
25     O25    -1.1946    0.7153    6.4030 O.2      1 ZINC000059185874   -0.5200
26     C26    -0.6383   -1.2131    5.2035 C.2      1 ZINC000059185874    0.3200
27     N27    -1.1577   -2.0706    6.1645 N.pl3    1 ZINC000059185874   -0.6300
28     C28    -1.2076   -3.4452    5.9203 C.ar     1 ZINC000059185874    0.2100
29     C29    -1.0267   -4.3447    6.9637 C.ar     1 ZINC000059185874   -0.1400
30     C30    -1.0766   -5.7028    6.7187 C.ar     1 ZINC000059185874   -0.0400
31     C31    -1.3061   -6.1679    5.4368 C.ar     1 ZINC000059185874   -0.1700
32     C32    -1.3598   -7.6507    5.1734 C.3      1 ZINC000059185874    0.0800
33     H33    -1.5537   -8.1769    6.1081 H        1 ZINC000059185874    0.1700
34     C34    -0.0430   -8.1045    4.6103 C.2      1 ZINC000059185874    0.5000
35     O35     0.9788   -7.6617    5.0906 O.2      1 ZINC000059185874   -0.4700
36     N36     0.0482   -8.9778    3.6008 N.am     1 ZINC000059185874   -0.6100
37     C37     1.3782   -9.3820    3.1384 C.3      1 ZINC000059185874    0.0700
38     C38    -1.1258   -9.5438    2.9411 C.3      1 ZINC000059185874    0.0800
39     C39    -2.3617   -9.3505    3.8219 C.3      1 ZINC000059185874   -0.0200
40     N40    -2.4396   -7.9371    4.2206 N.4      1 ZINC000059185874   -0.3900
41     H41    -2.3389   -7.3501    3.4061 H        1 ZINC000059185874    0.4300
42     C42    -3.7375   -7.6763    4.8574 C.3      1 ZINC000059185874   -0.0500
43     C43    -1.4870   -5.2754    4.3960 C.ar     1 ZINC000059185874   -0.0900
44     C44    -1.4437   -3.9159    4.6347 C.ar     1 ZINC000059185874   -0.1100
45     N45    -0.0960   -1.6938    4.1063 N.2      1 ZINC000059185874   -0.4500
46     H46     2.0082   -3.5620    3.8103 H        1 ZINC000059185874    0.0800
47     H47     3.6443   -3.0583    3.3225 H        1 ZINC000059185874    0.0600
48     H48     2.5445   -1.8880    4.0900 H        1 ZINC000059185874    0.0700
49     H49     3.8268   -4.3035    1.8223 H        1 ZINC000059185874    0.4100
50     H50     6.5545   -4.6748   -1.8642 H        1 ZINC000059185874    0.1500
51     H51     8.6860   -7.5812    1.8910 H        1 ZINC000059185874    0.0900
52     H52     7.3312   -8.7010    1.5940 H        1 ZINC000059185874    0.0800
53     H53     9.5084   -9.3181    0.4153 H        1 ZINC000059185874    0.0800
54     H54     8.0981   -9.1465   -0.6599 H        1 ZINC000059185874    0.0700
55     H55    10.0491   -6.8741   -0.0936 H        1 ZINC000059185874    0.0700
56     H56    10.2261   -7.9881   -1.4718 H        1 ZINC000059185874    0.0700
57     H57     8.0727   -7.3213   -2.3725 H        1 ZINC000059185874    0.0800
58     H58     8.9875   -5.8348   -2.0114 H        1 ZINC000059185874    0.0800
59     H59     2.5982   -2.9323   -1.2323 H        1 ZINC000059185874    0.1500
60     H60     0.7360   -1.3372   -1.4142 H        1 ZINC000059185874    0.1300
61     H61    -0.2752   -0.3811    0.6131 H        1 ZINC000059185874    0.1300
62     H62     0.7895    1.1165    2.5613 H        1 ZINC000059185874    0.1700
63     H63    -1.1352    2.8875    4.1649 H        1 ZINC000059185874    0.0900
64     H64    -0.1701    2.7524    5.6545 H        1 ZINC000059185874    0.1000
65     H65     0.6421    2.9392    4.0817 H        1 ZINC000059185874    0.1000
66     H66    -1.4859   -1.7151    7.0052 H        1 ZINC000059185874    0.4300
67     H67    -0.8470   -3.9821    7.9650 H        1 ZINC000059185874    0.1400
68     H68    -0.9357   -6.4026    7.5292 H        1 ZINC000059185874    0.1400
69     H69     2.1389   -8.8728    3.7301 H        1 ZINC000059185874    0.1000
70     H70     1.4905  -10.4601    3.2526 H        1 ZINC000059185874    0.0800
71     H71     1.4949   -9.1137    2.0883 H        1 ZINC000059185874    0.0700
72     H72    -1.2805   -9.0432    1.9853 H        1 ZINC000059185874    0.1000
73     H73    -0.9666  -10.6083    2.7693 H        1 ZINC000059185874    0.1300
74     H74    -3.2561   -9.6222    3.2611 H        1 ZINC000059185874    0.1600
75     H75    -2.2798   -9.9782    4.7092 H        1 ZINC000059185874    0.1400
76     H76    -3.8429   -8.3081    5.7394 H        1 ZINC000059185874    0.1300
77     H77    -3.7935   -6.6284    5.1523 H        1 ZINC000059185874    0.1300
78     H78    -4.5390   -7.8989    4.1531 H        1 ZINC000059185874    0.1300
79     H79    -1.6665   -5.6420    3.3961 H        1 ZINC000059185874    0.1200
80     H80    -1.5854   -3.2194    3.8215 H        1 ZINC000059185874    0.1500
@<TRIPOS>BOND
1     1     2     1
2     1     46    1
3     1     47    1
4     1     48    1
5     2     19    ar
6     2     3     ar
7     3     4     1
8     3     16    ar
9     4     5     am
10    4     49    1
11    5     6     2
12    5     7     1
13    7     15    1
14    7     8     2
15    8     9     1
16    8     50    1
17    9     14    1
18    9     10    2
19    10    11    1
20    10    15    1
21    11    12    1
22    11    51    1
23    11    52    1
24    12    13    1
25    12    53    1
26    12    54    1
27    13    14    1
28    13    55    1
29    13    56    1
30    14    57    1
31    14    58    1
32    16    17    ar
33    16    59    1
34    17    18    ar
35    17    60    1
36    18    19    ar
37    18    61    1
38    19    20    1
39    20    45    1
40    20    21    2
41    21    22    1
42    21    62    1
43    22    23    1
44    22    24    am
45    23    63    1
46    23    64    1
47    23    65    1
48    24    25    2
49    24    26    1
50    26    27    1
51    26    45    2
52    27    28    1
53    27    66    1
54    28    44    ar
55    28    29    ar
56    29    30    ar
57    29    67    1
58    30    31    ar
59    30    68    1
60    31    32    1
61    31    43    ar
62    32    33    1
63    32    40    1
64    32    34    1
65    34    35    2
66    34    36    am
67    36    37    1
68    36    38    1
69    37    69    1
70    37    70    1
71    37    71    1
72    38    39    1
73    38    72    1
74    38    73    1
75    39    40    1
76    39    74    1
77    39    75    1
78    40    41    1
79    40    42    1
80    42    76    1
81    42    77    1
82    42    78    1
83    43    44    ar
84    43    79    1
85    44    80    1
@<TRIPOS>SUBSTRUCTURE
1   ZINC000059185874 1     RESIDUE    1   A     ZIN   1
