@<TRIPOS>MOLECULE
ZINC000011592578
79    80    1     0     0
SMALL
USER_CHARGES
@<TRIPOS>ATOM
1      C1     -0.1669    1.4911    0.0161 C.3      1 ZINC000011592578   -0.1300
2      C2     -0.0720   -0.0129    0.0071 C.2      1 ZINC000011592578   -0.1000
3      C3      0.1206   -0.6637    1.1276 C.2      1 ZINC000011592578   -0.1700
4      C4      0.1232    0.0784    2.4392 C.3      1 ZINC000011592578   -0.0600
5      C5     -0.8640   -0.5621    3.3807 C.2      1 ZINC000011592578   -0.1100
6      C6     -0.4421   -1.4758    4.2679 C.2      1 ZINC000011592578   -0.1200
7      C7      1.0158   -1.8543    4.3163 C.3      1 ZINC000011592578   -0.1200
8      C8     -1.3967   -2.1129    5.1981 C.2      1 ZINC000011592578    0.4200
9      O9     -0.9941   -2.7455    6.1539 O.2      1 ZINC000011592578   -0.4200
10     C10    -2.8489   -1.9712    4.9521 C.ar     1 ZINC000011592578   -0.1300
11     C11    -3.7727   -2.7636    5.6197 C.ar     1 ZINC000011592578   -0.0700
12     C12    -5.1269   -2.6035    5.3644 C.ar     1 ZINC000011592578   -0.1000
13     C13    -5.5613   -1.6623    4.4516 C.ar     1 ZINC000011592578   -0.1000
14     C14    -4.6499   -0.8635    3.7766 C.ar     1 ZINC000011592578   -0.0700
15     C15    -3.2916   -1.0123    4.0215 C.ar     1 ZINC000011592578   -0.1200
16     C16    -2.2886   -0.1751    3.3243 C.2      1 ZINC000011592578    0.4200
17     O17    -2.6342    0.8148    2.7106 O.2      1 ZINC000011592578   -0.4200
18     C18    -0.1988   -0.7681   -1.2908 C.3      1 ZINC000011592578   -0.0900
19     C19    -1.6782   -1.0060   -1.6000 C.3      1 ZINC000011592578   -0.1100
20     C20    -1.8069   -1.7728   -2.9177 C.3      1 ZINC000011592578   -0.1100
21     C21    -3.2863   -2.0106   -3.2270 C.3      1 ZINC000011592578   -0.0900
22     H22    -3.8157   -1.0578   -3.2251 H        1 ZINC000011592578    0.0700
23     C23    -3.8883   -2.9306   -2.1629 C.3      1 ZINC000011592578   -0.1500
24     C24    -3.4208   -2.6660   -4.6030 C.3      1 ZINC000011592578   -0.1100
25     C25    -4.9018   -2.7902   -4.9662 C.3      1 ZINC000011592578   -0.1200
26     C26    -5.0362   -3.4456   -6.3422 C.3      1 ZINC000011592578   -0.1200
27     C27    -6.5173   -3.5698   -6.7054 C.3      1 ZINC000011592578   -0.0900
28     H28    -6.9902   -2.5897   -6.6427 H        1 ZINC000011592578    0.0700
29     C29    -7.2026   -4.5300   -5.7310 C.3      1 ZINC000011592578   -0.1500
30     C30    -6.6493   -4.1096   -8.1309 C.3      1 ZINC000011592578   -0.1200
31     C31    -8.1238   -4.1164   -8.5392 C.3      1 ZINC000011592578   -0.1200
32     C32    -8.2558   -4.6562   -9.9647 C.3      1 ZINC000011592578   -0.1200
33     C33    -9.7303   -4.6631  -10.3730 C.3      1 ZINC000011592578   -0.1000
34     C34    -9.8516   -5.0841  -11.8389 C.3      1 ZINC000011592578   -0.1500
35     C35   -10.4984   -5.6514   -9.4932 C.3      1 ZINC000011592578   -0.1500
36     H36     0.7209    1.9083    0.4914 H        1 ZINC000011592578    0.0700
37     H37    -0.2364    1.8569   -1.0083 H        1 ZINC000011592578    0.0600
38     H38    -1.0537    1.7959    0.5717 H        1 ZINC000011592578    0.0700
39     H39     0.2776   -1.7321    1.1113 H        1 ZINC000011592578    0.1100
40     H40     1.1206    0.0392    2.8769 H        1 ZINC000011592578    0.0900
41     H41    -0.1585    1.1176    2.2692 H        1 ZINC000011592578    0.0900
42     H42     1.5381   -1.2001    5.0144 H        1 ZINC000011592578    0.0900
43     H43     1.1118   -2.8887    4.6465 H        1 ZINC000011592578    0.0800
44     H44     1.4520   -1.7480    3.3231 H        1 ZINC000011592578    0.0800
45     H45    -3.4389   -3.5015    6.3342 H        1 ZINC000011592578    0.1400
46     H46    -5.8466   -3.2196    5.8829 H        1 ZINC000011592578    0.1400
47     H47    -6.6183   -1.5477    4.2618 H        1 ZINC000011592578    0.1400
48     H48    -4.9954   -0.1296    3.0636 H        1 ZINC000011592578    0.1400
49     H49     0.2516   -0.1865   -2.0951 H        1 ZINC000011592578    0.0700
50     H50     0.3131   -1.7266   -1.2049 H        1 ZINC000011592578    0.0700
51     H51    -2.1286   -1.5877   -0.7957 H        1 ZINC000011592578    0.0600
52     H52    -2.1901   -0.0475   -1.6859 H        1 ZINC000011592578    0.0600
53     H53    -1.3565   -1.1911   -3.7221 H        1 ZINC000011592578    0.0600
54     H54    -1.2950   -2.7313   -2.8318 H        1 ZINC000011592578    0.0600
55     H55    -3.7925   -2.4637   -1.1826 H        1 ZINC000011592578    0.0500
56     H56    -4.9423   -3.1000   -2.3832 H        1 ZINC000011592578    0.0600
57     H57    -3.3589   -3.8834   -2.1648 H        1 ZINC000011592578    0.0500
58     H58    -2.9140   -2.0532   -5.3484 H        1 ZINC000011592578    0.0600
59     H59    -2.9682   -3.6573   -4.5790 H        1 ZINC000011592578    0.0600
60     H60    -5.4086   -3.4031   -4.2208 H        1 ZINC000011592578    0.0700
61     H61    -5.3544   -1.7989   -4.9901 H        1 ZINC000011592578    0.0600
62     H62    -4.5295   -2.8328   -7.0876 H        1 ZINC000011592578    0.0600
63     H63    -4.5837   -4.4369   -6.3182 H        1 ZINC000011592578    0.0600
64     H64    -6.7297   -5.5100   -5.7937 H        1 ZINC000011592578    0.0500
65     H65    -7.1086   -4.1454   -4.7155 H        1 ZINC000011592578    0.0500
66     H66    -8.2577   -4.6184   -5.9898 H        1 ZINC000011592578    0.0500
67     H67    -6.0861   -3.4735   -8.8139 H        1 ZINC000011592578    0.0600
68     H68    -6.2560   -5.1253   -8.1727 H        1 ZINC000011592578    0.0600
69     H69    -8.6869   -4.7525   -7.8563 H        1 ZINC000011592578    0.0700
70     H70    -8.5171   -3.1007   -8.4974 H        1 ZINC000011592578    0.0600
71     H71    -7.6926   -4.0201  -10.6477 H        1 ZINC000011592578    0.0600
72     H72    -7.8625   -5.6719  -10.0065 H        1 ZINC000011592578    0.0600
73     H73   -10.1470   -3.6639  -10.2463 H        1 ZINC000011592578    0.0700
74     H74    -9.4349   -6.0833  -11.9656 H        1 ZINC000011592578    0.0500
75     H75   -10.9021   -5.0890  -12.1298 H        1 ZINC000011592578    0.0500
76     H76    -9.3043   -4.3800  -12.4657 H        1 ZINC000011592578    0.0500
77     H77   -10.4120   -5.3515   -8.4489 H        1 ZINC000011592578    0.0600
78     H78   -11.5489   -5.6563   -9.7841 H        1 ZINC000011592578    0.0500
79     H79   -10.0817   -6.6506   -9.6200 H        1 ZINC000011592578    0.0500
@<TRIPOS>BOND
1     1     2     1
2     1     36    1
3     1     37    1
4     1     38    1
5     2     3     2
6     2     18    1
7     3     4     1
8     3     39    1
9     4     5     1
10    4     40    1
11    4     41    1
12    5     16    1
13    5     6     2
14    6     7     1
15    6     8     1
16    7     42    1
17    7     43    1
18    7     44    1
19    8     9     2
20    8     10    1
21    10    15    ar
22    10    11    ar
23    11    12    ar
24    11    45    1
25    12    13    ar
26    12    46    1
27    13    14    ar
28    13    47    1
29    14    15    ar
30    14    48    1
31    15    16    1
32    16    17    2
33    18    19    1
34    18    49    1
35    18    50    1
36    19    20    1
37    19    51    1
38    19    52    1
39    20    21    1
40    20    53    1
41    20    54    1
42    21    22    1
43    21    23    1
44    21    24    1
45    23    55    1
46    23    56    1
47    23    57    1
48    24    25    1
49    24    58    1
50    24    59    1
51    25    26    1
52    25    60    1
53    25    61    1
54    26    27    1
55    26    62    1
56    26    63    1
57    27    28    1
58    27    29    1
59    27    30    1
60    29    64    1
61    29    65    1
62    29    66    1
63    30    31    1
64    30    67    1
65    30    68    1
66    31    32    1
67    31    69    1
68    31    70    1
69    32    33    1
70    32    71    1
71    32    72    1
72    33    34    1
73    33    35    1
74    33    73    1
75    34    74    1
76    34    75    1
77    34    76    1
78    35    77    1
79    35    78    1
80    35    79    1
@<TRIPOS>SUBSTRUCTURE
1   ZINC000011592578 1     RESIDUE    1   A     ZIN   1
