@<TRIPOS>MOLECULE
ZINC000043128366
75    80    1     0     0
SMALL
USER_CHARGES
@<TRIPOS>ATOM
1      C1      2.5730   -4.4713    5.5104 C.3      1 ZINC000043128366    0.0300
2      O2      2.4343   -4.2050    4.1133 O.3      1 ZINC000043128366   -0.3800
3      C3      2.6063   -2.8301    3.7638 C.3      1 ZINC000043128366    0.0200
4      C4      2.4371   -2.6631    2.2524 C.3      1 ZINC000043128366    0.0600
5      N5      1.0440   -2.9454    1.8814 N.3      1 ZINC000043128366   -0.5300
6      C6      0.1093   -2.2355    2.7657 C.3      1 ZINC000043128366    0.0500
7      C7     -1.3254   -2.4917    2.2982 C.3      1 ZINC000043128366    0.0600
8      N8     -1.5903   -3.9371    2.3080 N.3      1 ZINC000043128366   -0.5300
9      C9     -2.9834   -4.2195    1.9370 C.3      1 ZINC000043128366    0.0900
10     C10    -3.2867   -5.6733    2.1932 C.ar     1 ZINC000043128366   -0.0500
11     C11    -3.0682   -6.6082    1.1968 C.ar     1 ZINC000043128366   -0.1100
12     C12    -3.3440   -7.9405    1.4242 C.ar     1 ZINC000043128366   -0.0900
13     C13    -3.8444   -8.3449    2.6638 C.ar     1 ZINC000043128366   -0.0600
14     C14    -4.1415   -9.7694    2.9147 C.2      1 ZINC000043128366    0.2300
15     C15    -5.2817  -10.2775    3.5198 C.2      1 ZINC000043128366   -0.3300
16     C16    -6.5770   -9.9676    4.1425 C.2      1 ZINC000043128366    0.4900
17     O17    -7.0514   -8.8583    4.2982 O.2      1 ZINC000043128366   -0.4400
18     C18    -7.1987  -11.2455    4.5442 C.ar     1 ZINC000043128366   -0.2000
19     C19    -8.4184  -11.5287    5.1715 C.ar     1 ZINC000043128366    0.2400
20     N20    -9.2789  -10.4932    5.5246 N.am     1 ZINC000043128366   -0.6600
21     C21   -10.1997  -10.6819    6.4905 C.2      1 ZINC000043128366    0.7300
22     O22   -10.2813  -11.7579    7.0507 O.2      1 ZINC000043128366   -0.5700
23     N23   -11.0301   -9.6779    6.8354 N.am     1 ZINC000043128366   -0.5800
24     N24   -11.0082   -8.5035    6.1381 N.3      1 ZINC000043128366   -0.3100
25     C25   -10.4844   -7.4083    6.9673 C.3      1 ZINC000043128366    0.0000
26     C26   -10.4212   -6.1275    6.1309 C.3      1 ZINC000043128366    0.0700
27     O27   -11.7220   -5.8388    5.6114 O.3      1 ZINC000043128366   -0.3800
28     C28   -12.2624   -6.8841    4.7985 C.3      1 ZINC000043128366    0.0700
29     C29   -12.3442   -8.1725    5.6214 C.3      1 ZINC000043128366    0.0000
30     C30    -8.7676  -12.8487    5.4402 C.ar     1 ZINC000043128366   -0.1400
31     C31    -7.9169  -13.8769    5.0914 C.ar     1 ZINC000043128366   -0.0600
32     C32    -6.7072  -13.6094    4.4708 C.ar     1 ZINC000043128366   -0.1100
33     C33    -6.3381  -12.3002    4.1919 C.ar     1 ZINC000043128366    0.0400
34     C34    -5.1268  -11.7338    3.5478 C.2      1 ZINC000043128366    0.1300
35     N35    -3.9728  -12.0138    2.9941 N.2      1 ZINC000043128366   -0.2300
36     N36    -3.3496  -10.8290    2.5898 N.pl3    1 ZINC000043128366   -0.4600
37     C37    -4.0620   -7.3959    3.6650 C.ar     1 ZINC000043128366   -0.0700
38     C38    -3.7769   -6.0677    3.4256 C.ar     1 ZINC000043128366   -0.1000
39     C39    -0.6556   -4.6470    1.4237 C.3      1 ZINC000043128366    0.0500
40     C40     0.7790   -4.3909    1.8912 C.3      1 ZINC000043128366    0.0500
41     H41     3.5701   -4.1783    5.8389 H        1 ZINC000043128366    0.0400
42     H42     1.8262   -3.9027    6.0645 H        1 ZINC000043128366    0.0400
43     H43     2.4284   -5.5360    5.6934 H        1 ZINC000043128366    0.0900
44     H44     1.8602   -2.2274    4.2817 H        1 ZINC000043128366    0.0600
45     H45     3.6041   -2.5030    4.0560 H        1 ZINC000043128366    0.0500
46     H46     2.6884   -1.6409    1.9694 H        1 ZINC000043128366    0.0900
47     H47     3.0989   -3.3567    1.7338 H        1 ZINC000043128366    0.0800
48     H48     0.2290   -2.5972    3.7869 H        1 ZINC000043128366    0.0500
49     H49     0.3175   -1.1661    2.7316 H        1 ZINC000043128366    0.0800
50     H50    -2.0218   -1.9897    2.9698 H        1 ZINC000043128366    0.0800
51     H51    -1.4527   -2.1055    1.2869 H        1 ZINC000043128366    0.0400
52     H52    -3.6514   -3.5984    2.5338 H        1 ZINC000043128366    0.0900
53     H53    -3.1298   -3.9986    0.8797 H        1 ZINC000043128366    0.0500
54     H54    -2.6812   -6.2941    0.2387 H        1 ZINC000043128366    0.1300
55     H55    -3.1737   -8.6691    0.6454 H        1 ZINC000043128366    0.1300
56     H56    -9.2158   -9.6357    5.0756 H        1 ZINC000043128366    0.4300
57     H57   -11.6433   -9.7894    7.5786 H        1 ZINC000043128366    0.4000
58     H58   -11.1420   -7.2525    7.8224 H        1 ZINC000043128366    0.0600
59     H59    -9.4844   -7.6636    7.3180 H        1 ZINC000043128366    0.1000
60     H60   -10.0875   -5.3000    6.7570 H        1 ZINC000043128366    0.1100
61     H61    -9.7222   -6.2656    5.3060 H        1 ZINC000043128366    0.0700
62     H62   -13.2602   -6.6038    4.4610 H        1 ZINC000043128366    0.1100
63     H63   -11.6169   -7.0441    3.9349 H        1 ZINC000043128366    0.0700
64     H64   -12.7018   -8.9857    4.9898 H        1 ZINC000043128366    0.1000
65     H65   -13.0316   -8.0290    6.4550 H        1 ZINC000043128366    0.0600
66     H66    -9.7078  -13.0688    5.9239 H        1 ZINC000043128366    0.1700
67     H67    -8.1956  -14.8984    5.3041 H        1 ZINC000043128366    0.1400
68     H68    -6.0488  -14.4225    4.2029 H        1 ZINC000043128366    0.1400
69     H69    -2.4851  -10.7704    2.1538 H        1 ZINC000043128366    0.4500
70     H70    -4.4491   -7.7017    4.6258 H        1 ZINC000043128366    0.1300
71     H71    -3.9444   -5.3328    4.1991 H        1 ZINC000043128366    0.1300
72     H72    -0.8638   -5.7164    1.4578 H        1 ZINC000043128366    0.0800
73     H73    -0.7753   -4.2853    0.4025 H        1 ZINC000043128366    0.0400
74     H74     1.4755   -4.8928    1.2196 H        1 ZINC000043128366    0.0700
75     H75     0.9064   -4.7771    2.9025 H        1 ZINC000043128366    0.0700
@<TRIPOS>BOND
1     1     2     1
2     1     41    1
3     1     42    1
4     1     43    1
5     2     3     1
6     3     4     1
7     3     44    1
8     3     45    1
9     4     5     1
10    4     46    1
11    4     47    1
12    5     40    1
13    5     6     1
14    6     7     1
15    6     48    1
16    6     49    1
17    7     8     1
18    7     50    1
19    7     51    1
20    8     9     1
21    8     39    1
22    9     10    1
23    9     52    1
24    9     53    1
25    10    38    ar
26    10    11    ar
27    11    12    ar
28    11    54    1
29    12    13    ar
30    12    55    1
31    13    14    1
32    13    37    ar
33    14    36    1
34    14    15    2
35    15    34    1
36    15    16    1
37    16    17    2
38    16    18    1
39    18    33    ar
40    18    19    ar
41    19    20    1
42    19    30    ar
43    20    21    am
44    20    56    1
45    21    22    2
46    21    23    am
47    23    24    1
48    23    57    1
49    24    29    1
50    24    25    1
51    25    26    1
52    25    58    1
53    25    59    1
54    26    27    1
55    26    60    1
56    26    61    1
57    27    28    1
58    28    29    1
59    28    62    1
60    28    63    1
61    29    64    1
62    29    65    1
63    30    31    ar
64    30    66    1
65    31    32    ar
66    31    67    1
67    32    33    ar
68    32    68    1
69    33    34    1
70    34    35    2
71    35    36    1
72    36    69    1
73    37    38    ar
74    37    70    1
75    38    71    1
76    39    40    1
77    39    72    1
78    39    73    1
79    40    74    1
80    40    75    1
@<TRIPOS>SUBSTRUCTURE
1   ZINC000043128366 1     RESIDUE    1   A     ZIN   1
