@<TRIPOS>MOLECULE
ZINC000252517142
68    71    1     0     0
SMALL
USER_CHARGES
@<TRIPOS>ATOM
1      C1     -4.0181   -3.1364   -1.5026 C.3      1 ZINC000252517142   -0.1400
2      C2     -2.5747   -3.3523   -1.0432 C.3      1 ZINC000252517142   -0.0500
3      C3     -2.2862   -4.8534   -0.9767 C.3      1 ZINC000252517142   -0.1600
4      C4     -1.6218   -2.7002   -2.0496 C.3      1 ZINC000252517142   -0.0600
5      C5     -0.2167   -2.7577   -1.5115 C.2      1 ZINC000252517142    0.1600
6      C6      0.0744   -2.9368   -0.1617 C.2      1 ZINC000252517142   -0.2800
7      C7      1.4686   -2.9444   -0.0246 C.2      1 ZINC000252517142    0.0500
8      C8      2.2349   -3.1142    1.2619 C.3      1 ZINC000252517142    0.5600
9      F9      2.4824   -4.4735    1.4814 F        1 ZINC000252517142   -0.1600
10     F10     3.4503   -2.4270    1.1749 F        1 ZINC000252517142   -0.1700
11     F11     1.4832   -2.5996    2.3238 F        1 ZINC000252517142   -0.1500
12     N12     1.9857   -2.7780   -1.2156 N.2      1 ZINC000252517142   -0.2400
13     N13     0.9494   -2.6589   -2.1540 N.pl3    1 ZINC000252517142   -0.2900
14     C14     1.1108   -2.4691   -3.5300 C.ar     1 ZINC000252517142    0.2100
15     C15     0.2899   -1.5707   -4.2069 C.ar     1 ZINC000252517142   -0.1900
16     C16     0.4413   -1.3768   -5.5605 C.ar     1 ZINC000252517142   -0.0100
17     C17     1.4227   -2.0833   -6.2622 C.ar     1 ZINC000252517142   -0.2200
18     C18     1.5879   -1.8779   -7.7112 C.2      1 ZINC000252517142    0.5800
19     N19     0.8768   -0.9223   -8.3418 N.am     1 ZINC000252517142   -0.8400
20     O20     2.3661   -2.5707   -8.3388 O.2      1 ZINC000252517142   -0.5500
21     C21     2.2509   -2.9897   -5.5793 C.ar     1 ZINC000252517142    0.3000
22     N22     3.2290   -3.6959   -6.2678 N.pl3    1 ZINC000252517142   -0.7100
23     C23     4.0010   -4.7356   -5.5827 C.3      1 ZINC000252517142    0.1400
24     H24     4.1653   -4.4422   -4.5458 H        1 ZINC000252517142    0.0900
25     C25     3.2275   -6.0550   -5.6229 C.3      1 ZINC000252517142   -0.1300
26     C26     4.0337   -7.1408   -4.9073 C.3      1 ZINC000252517142   -0.1200
27     C27     5.3827   -7.3189   -5.6069 C.3      1 ZINC000252517142    0.0900
28     H28     5.2183   -7.6122   -6.6438 H        1 ZINC000252517142    0.1000
29     O29     6.1478   -8.3493   -4.9279 O.3      1 ZINC000252517142   -0.3300
30     C30     7.0042   -9.0641   -5.6744 C.2      1 ZINC000252517142    0.4500
31     O31     7.1110   -8.8364   -6.8562 O.2      1 ZINC000252517142   -0.4900
32     C32     7.8325  -10.1508   -5.0386 C.3      1 ZINC000252517142    0.0000
33     N33     8.6825  -10.7789   -6.0589 N.4      1 ZINC000252517142   -0.6200
34     H34     8.1019  -11.1777   -6.7813 H        1 ZINC000252517142    0.4400
35     H35     9.2923  -10.0840   -6.4629 H        1 ZINC000252517142    0.4400
36     H36     9.2370  -11.5064   -5.6332 H        1 ZINC000252517142    0.4500
37     C37     6.1561   -5.9994   -5.5667 C.3      1 ZINC000252517142   -0.1300
38     C38     5.3499   -4.9136   -6.2823 C.3      1 ZINC000252517142   -0.1200
39     C39     2.0916   -3.1722   -4.2137 C.ar     1 ZINC000252517142   -0.1900
40     C40    -0.9919   -3.0766    0.8427 C.2      1 ZINC000252517142    0.4300
41     O41    -0.7710   -3.4330    1.9810 O.2      1 ZINC000252517142   -0.4300
42     C42    -2.3915   -2.7410    0.3495 C.3      1 ZINC000252517142   -0.1500
43     H43    -4.2310   -2.0681   -1.5415 H        1 ZINC000252517142    0.0600
44     H44    -4.1527   -3.5701   -2.4935 H        1 ZINC000252517142    0.0600
45     H45    -4.6988   -3.6171   -0.8000 H        1 ZINC000252517142    0.0700
46     H46    -2.4254   -5.2942   -1.9638 H        1 ZINC000252517142    0.0600
47     H47    -1.2586   -5.0118   -0.6496 H        1 ZINC000252517142    0.0600
48     H48    -2.9692   -5.3237   -0.2692 H        1 ZINC000252517142    0.0700
49     H49    -1.6709   -3.2363   -2.9974 H        1 ZINC000252517142    0.1000
50     H50    -1.9105   -1.6605   -2.2033 H        1 ZINC000252517142    0.1100
51     H51    -0.4692   -1.0240   -3.6671 H        1 ZINC000252517142    0.1400
52     H52    -0.1981   -0.6793   -6.0810 H        1 ZINC000252517142    0.1400
53     H53     0.2562   -0.3699   -7.8413 H        1 ZINC000252517142    0.4000
54     H54     0.9856   -0.7871   -9.2961 H        1 ZINC000252517142    0.4100
55     H55     3.4009   -3.5007   -7.2023 H        1 ZINC000252517142    0.4200
56     H56     2.2664   -5.9282   -5.1245 H        1 ZINC000252517142    0.0800
57     H57     3.0631   -6.3484   -6.6597 H        1 ZINC000252517142    0.0800
58     H58     4.1980   -6.8475   -3.8705 H        1 ZINC000252517142    0.0800
59     H59     3.4826   -8.0808   -4.9360 H        1 ZINC000252517142    0.0800
60     H60     8.4597   -9.7199   -4.2582 H        1 ZINC000252517142    0.1800
61     H61     7.1737  -10.9015   -4.6022 H        1 ZINC000252517142    0.1800
62     H62     6.3205   -5.7061   -4.5299 H        1 ZINC000252517142    0.0800
63     H63     7.1172   -6.1263   -6.0651 H        1 ZINC000252517142    0.0800
64     H64     5.1856   -5.2070   -7.3191 H        1 ZINC000252517142    0.0800
65     H65     5.9010   -3.9736   -6.2536 H        1 ZINC000252517142    0.0900
66     H66     2.7257   -3.8677   -3.6842 H        1 ZINC000252517142    0.1400
67     H67    -2.5104   -1.6590    0.2932 H        1 ZINC000252517142    0.1100
68     H68    -3.1307   -3.1587    1.0330 H        1 ZINC000252517142    0.1100
@<TRIPOS>BOND
1     1     2     1
2     1     43    1
3     1     44    1
4     1     45    1
5     2     42    1
6     2     3     1
7     2     4     1
8     3     46    1
9     3     47    1
10    3     48    1
11    4     5     1
12    4     49    1
13    4     50    1
14    5     13    1
15    5     6     2
16    6     7     1
17    6     40    1
18    7     8     1
19    7     12    2
20    8     9     1
21    8     10    1
22    8     11    1
23    12    13    1
24    13    14    1
25    14    39    ar
26    14    15    ar
27    15    16    ar
28    15    51    1
29    16    17    ar
30    16    52    1
31    17    18    1
32    17    21    ar
33    18    19    am
34    18    20    2
35    19    53    1
36    19    54    1
37    21    22    1
38    21    39    ar
39    22    23    1
40    22    55    1
41    23    24    1
42    23    38    1
43    23    25    1
44    25    26    1
45    25    56    1
46    25    57    1
47    26    27    1
48    26    58    1
49    26    59    1
50    27    28    1
51    27    29    1
52    27    37    1
53    29    30    1
54    30    31    2
55    30    32    1
56    32    33    1
57    32    60    1
58    32    61    1
59    33    34    1
60    33    35    1
61    33    36    1
62    37    38    1
63    37    62    1
64    37    63    1
65    38    64    1
66    38    65    1
67    39    66    1
68    40    41    2
69    40    42    1
70    42    67    1
71    42    68    1
@<TRIPOS>SUBSTRUCTURE
1   ZINC000252517142 1     RESIDUE    1   A     ZIN   1
