@<TRIPOS>MOLECULE
ZINC000008584773
  20   21    0    0    0
SMALL
USER_CHARGES
NO_NAME
@<TRIPOS>ATOM
    1 O1        0.0021    -0.0041     0.0020 O.co2  1 <0>      -0.6500
    2 C2       -0.0145     1.2179     0.0087 C.2    1 <0>       0.5200
    3 O3        1.0355     1.8433     0.0021 O.co2  1 <0>      -0.6700
    4 C4       -1.3076     1.9412     0.0188 C.2    1 <0>       0.1500
    5 C5       -2.4592     1.2243     0.0259 C.2    1 <0>      -0.2900
    6 C6       -3.7134     1.8964     0.0356 C.2    1 <0>       0.4100
    7 O7       -4.7611     1.2733     0.0425 O.2    1 <0>      -0.5200
    8 C8       -3.7047     3.3682     0.0376 C.ar   1 <0>      -0.2100
    9 C9       -4.8922     4.1015     0.0475 C.ar   1 <0>      -0.0300
   10 C10      -4.8443     5.4673     0.0495 C.ar   1 <0>      -0.1800
   11 C11      -3.6247     6.1312     0.0413 C.ar   1 <0>      -0.0600
   12 C12      -2.4406     5.4277     0.0310 C.ar   1 <0>      -0.1800
   13 C13      -2.4647     4.0352     0.0298 C.ar   1 <0>       0.2000
   14 N14      -1.2993     3.3068     0.0262 N.pl3  1 <0>      -0.5900
   15 H15      -2.4241     0.1448     0.0238 H      1 <0>       0.1500
   16 H16      -5.8444     3.5920     0.0532 H      1 <0>       0.1300
   17 H17      -5.7630     6.0352     0.0571 H      1 <0>       0.1200
   18 H18      -3.6044     7.2110     0.0426 H      1 <0>       0.1300
   19 H19      -1.4973     5.9538     0.0240 H      1 <0>       0.1300
   20 H20      -0.4494     3.7744     0.0245 H      1 <0>       0.4200
@<TRIPOS>BOND
   1    1    2 ar
   2    2    3 ar
   3    2    4 1
   4    4   14 1
   5    4    5 2
   6    5    6 1
   7    5   15 1
   8    6    7 2
   9    6    8 1
  10    8   13 ar
  11    8    9 ar
  12    9   10 ar
  13    9   16 1
  14   10   11 ar
  15   10   17 1
  16   11   12 ar
  17   11   18 1
  18   12   13 ar
  19   12   19 1
  20   13   14 1
  21   14   20 1
