@<TRIPOS>MOLECULE
ZINC000001488080
  50   53    0    0    0
SMALL
USER_CHARGES
NO_NAME
@<TRIPOS>ATOM
    1 C1       -0.9200     1.9597     0.1203 C.3    1 <0>      -0.1500
    2 C2       -0.4763     0.4956     0.1007 C.3    1 <0>      -0.1200
    3 C3       -1.7065    -0.4112     0.1724 C.3    1 <0>      -0.0900
    4 C4       -2.5396    -0.2420    -1.0997 C.3    1 <0>      -0.1200
    5 C5       -1.7218    -0.6987    -2.3094 C.3    1 <0>      -0.1500
    6 C6       -1.2591    -1.8688     0.2990 C.3    1 <0>       0.2100
    7 H7       -0.6574    -2.1408    -0.5683 H      1 <0>       0.1100
    8 C8       -0.4385    -2.0354     1.5519 C.ar   1 <0>      -0.1300
    9 C9       -0.9272    -1.5790     2.7624 C.ar   1 <0>      -0.0800
   10 C10      -0.1776    -1.7296     3.9125 C.ar   1 <0>      -0.1200
   11 C11       1.0683    -2.3409     3.8525 C.ar   1 <0>       0.1800
   12 N12       1.8295    -2.4954     5.0148 N.pl3  1 <0>      -0.6300
   13 C13       1.2023    -2.6708     6.2327 C.2    1 <0>       0.3600
   14 N14      -0.0684    -2.8175     6.3918 N.2    1 <0>      -0.5200
   15 C15      -0.5320    -2.9797     7.6470 C.ar   1 <0>       0.1200
   16 C16      -1.8627    -3.1572     8.0805 C.ar   1 <0>      -0.0800
   17 C17      -2.1448    -3.3072     9.4152 C.ar   1 <0>      -0.1000
   18 C18      -1.1282    -3.2864    10.3582 C.ar   1 <0>      -0.1100
   19 C19       0.1787    -3.1145     9.9580 C.ar   1 <0>      -0.0600
   20 C20       0.4833    -2.9612     8.6082 C.ar   1 <0>      -0.1900
   21 S21       2.0246    -2.7332     7.7854 S.3    1 <0>       0.0600
   22 C22       1.5560    -2.7986     2.6350 C.ar   1 <0>      -0.1500
   23 C23       0.7990    -2.6494     1.4896 C.ar   1 <0>      -0.0700
   24 N24      -2.4371    -2.7370     0.3676 N.pl3  1 <0>      -0.3700
   25 C25      -3.1474    -3.0458     1.4664 C.2    1 <0>       0.2500
   26 N26      -4.1197    -3.8454     1.1098 N.2    1 <0>      -0.5500
   27 C27      -4.0629    -4.0687    -0.2025 C.2    1 <0>       0.1900
   28 N28      -3.0523    -3.4072    -0.7023 N.2    1 <0>      -0.3100
   29 H29      -0.0426     2.6046     0.1677 H      1 <0>       0.0600
   30 H30      -1.4846     2.1804    -0.7855 H      1 <0>       0.0600
   31 H31      -1.5489     2.1371     0.9927 H      1 <0>       0.0500
   32 H32       0.0705     0.2940    -0.8205 H      1 <0>       0.0700
   33 H33       0.1695     0.3001     0.9567 H      1 <0>       0.0700
   34 H34      -2.3083    -0.1392     1.0396 H      1 <0>       0.0800
   35 H35      -3.4445    -0.8451    -1.0243 H      1 <0>       0.0600
   36 H36      -2.8110     0.8068    -1.2196 H      1 <0>       0.0700
   37 H37      -2.3389    -0.6455    -3.2063 H      1 <0>       0.0500
   38 H38      -0.8536    -0.0502    -2.4268 H      1 <0>       0.0500
   39 H39      -1.3901    -1.7258    -2.1570 H      1 <0>       0.0600
   40 H40      -1.8960    -1.1038     2.8084 H      1 <0>       0.1300
   41 H41      -0.5596    -1.3723     4.8574 H      1 <0>       0.1400
   42 H42       2.7981    -2.4795     4.9659 H      1 <0>       0.4300
   43 H43      -2.6647    -3.1747     7.3574 H      1 <0>       0.1400
   44 H44      -3.1678    -3.4423     9.7340 H      1 <0>       0.1400
   45 H45      -1.3611    -3.4047    11.4062 H      1 <0>       0.1400
   46 H46       0.9693    -3.0982    10.6936 H      1 <0>       0.1300
   47 H47       2.5243    -3.2743     2.5849 H      1 <0>       0.1300
   48 H48       1.1776    -3.0051     0.5427 H      1 <0>       0.1300
   49 H49      -2.9496    -2.6956     2.4687 H      1 <0>       0.2100
   50 H50      -4.7440    -4.6918    -0.7631 H      1 <0>       0.2200
@<TRIPOS>BOND
   1    1    2 1
   2    1   29 1
   3    1   30 1
   4    1   31 1
   5    2    3 1
   6    2   32 1
   7    2   33 1
   8    3    4 1
   9    3    6 1
  10    3   34 1
  11    4    5 1
  12    4   35 1
  13    4   36 1
  14    5   37 1
  15    5   38 1
  16    5   39 1
  17    6    7 1
  18    6    8 1
  19    6   24 1
  20    8   23 ar
  21    8    9 ar
  22    9   10 ar
  23    9   40 1
  24   10   11 ar
  25   10   41 1
  26   11   12 1
  27   11   22 ar
  28   12   13 1
  29   12   42 1
  30   13   21 1
  31   13   14 2
  32   14   15 1
  33   15   20 ar
  34   15   16 ar
  35   16   17 ar
  36   16   43 1
  37   17   18 ar
  38   17   44 1
  39   18   19 ar
  40   18   45 1
  41   19   20 ar
  42   19   46 1
  43   20   21 1
  44   22   23 ar
  45   22   47 1
  46   23   48 1
  47   24   28 1
  48   24   25 1
  49   25   26 2
  50   25   49 1
  51   26   27 1
  52   27   28 2
  53   27   50 1
