@<TRIPOS>MOLECULE
ZINC000013985502
42    44    1     0     0
SMALL
USER_CHARGES
@<TRIPOS>ATOM
1      O1      0.0027   -0.0045    0.0003 O.2      1 ZINC000013985502   -0.5700
2      C2     -0.0142    1.2113    0.0030 C.2      1 ZINC000013985502    0.7100
3      N3      1.1435    1.9014    0.0014 N.am     1 ZINC000013985502   -0.6800
4      C4      2.3638    1.2214    0.0917 C.ar     1 ZINC000013985502    0.1900
5      C5      2.5134   -0.0218   -0.5074 C.ar     1 ZINC000013985502   -0.1200
6      C6      3.7191   -0.6902   -0.4169 C.ar     1 ZINC000013985502   -0.0800
7      C7      4.7763   -0.1227    0.2698 C.ar     1 ZINC000013985502   -0.1300
8      C8      4.6312    1.1157    0.8681 C.ar     1 ZINC000013985502   -0.0700
9      C9      3.4299    1.7921    0.7765 C.ar     1 ZINC000013985502   -0.1200
10     Br10    3.2321    3.4856    1.5942 Br       1 ZINC000013985502   -0.0500
11     N11    -1.1907    1.8688    0.0019 N.am     1 ZINC000013985502   -0.7300
12     C12    -2.4491    1.1187   -0.0025 C.3      1 ZINC000013985502    0.1500
13     H13    -2.3422    0.1985    0.5719 H        1 ZINC000013985502    0.1000
14     C14    -2.8782    0.7992   -1.4529 C.3      1 ZINC000013985502   -0.1400
15     C15    -4.4145    0.9956   -1.4109 C.3      1 ZINC000013985502    0.0400
16     N16    -4.5835    2.1609   -0.5055 N.3      1 ZINC000013985502   -0.4600
17     C17    -5.8734    2.2080    0.0104 C.ar     1 ZINC000013985502    0.3300
18     C18    -6.9583    2.3097   -0.8542 C.ar     1 ZINC000013985502   -0.1800
19     C19    -8.2366    2.3551   -0.3272 C.ar     1 ZINC000013985502    0.0000
20     C20    -8.3873    2.2971    1.0518 C.ar     1 ZINC000013985502   -0.2700
21     C21    -9.7609    2.3429    1.6700 C.3      1 ZINC000013985502    0.5200
22     F22   -10.2583    1.0416    1.7980 F        1 ZINC000013985502   -0.1700
23     F23    -9.6841    2.9392    2.9332 F        1 ZINC000013985502   -0.1700
24     F24   -10.6154    3.0905    0.8526 F        1 ZINC000013985502   -0.1800
25     C25    -7.2659    2.1965    1.8510 C.ar     1 ZINC000013985502    0.1900
26     N26    -6.0588    2.1501    1.3204 N.ar     1 ZINC000013985502   -0.5200
27     C27    -3.5870    1.9805    0.5755 C.3      1 ZINC000013985502    0.0300
28     H28     1.1311    2.8692   -0.0624 H        1 ZINC000013985502    0.4100
29     H29     1.6879   -0.4662   -1.0435 H        1 ZINC000013985502    0.1500
30     H30     3.8358   -1.6574   -0.8830 H        1 ZINC000013985502    0.1300
31     H31     5.7174   -0.6478    0.3396 H        1 ZINC000013985502    0.1300
32     H32     5.4589    1.5564    1.4039 H        1 ZINC000013985502    0.1400
33     H33    -1.2042    2.8387    0.0040 H        1 ZINC000013985502    0.4000
34     H34    -2.4192    1.4967   -2.1535 H        1 ZINC000013985502    0.0900
35     H35    -2.6279   -0.2297   -1.7114 H        1 ZINC000013985502    0.0900
36     H36    -4.8008    1.2215   -2.4048 H        1 ZINC000013985502    0.1000
37     H37    -4.9040    0.1135   -0.9980 H        1 ZINC000013985502    0.0600
38     H38    -6.8047    2.3530   -1.9223 H        1 ZINC000013985502    0.1500
39     H39    -9.0979    2.4343   -0.9739 H        1 ZINC000013985502    0.1500
40     H40    -7.3785    2.1511    2.9241 H        1 ZINC000013985502    0.1700
41     H41    -4.0466    1.4724    1.4232 H        1 ZINC000013985502    0.1000
42     H42    -3.1972    2.9496    0.8868 H        1 ZINC000013985502    0.0900
@<TRIPOS>BOND
1     1     2     2
2     2     3     am
3     2     11    am
4     3     4     1
5     3     28    1
6     4     9     ar
7     4     5     ar
8     5     6     ar
9     5     29    1
10    6     7     ar
11    6     30    1
12    7     8     ar
13    7     31    1
14    8     9     ar
15    8     32    1
16    9     10    1
17    11    12    1
18    11    33    1
19    12    13    1
20    12    27    1
21    12    14    1
22    14    15    1
23    14    34    1
24    14    35    1
25    15    16    1
26    15    36    1
27    15    37    1
28    16    17    1
29    16    27    1
30    17    26    ar
31    17    18    ar
32    18    19    ar
33    18    38    1
34    19    20    ar
35    19    39    1
36    20    21    1
37    20    25    ar
38    21    22    1
39    21    23    1
40    21    24    1
41    25    26    ar
42    25    40    1
43    27    41    1
44    27    42    1
@<TRIPOS>SUBSTRUCTURE
1   ZINC000013985502 1     RESIDUE    1   A     ZIN   1
