@<TRIPOS>MOLECULE
ZINC000034001955
67    70    1     0     0
SMALL
USER_CHARGES
@<TRIPOS>ATOM
1      C1     -1.1935    1.3975    0.8402 C.3      1 ZINC000034001955   -0.1800
2      C2     -1.3236   -0.1210    0.9756 C.3      1 ZINC000034001955    0.1200
3      H3     -1.0087   -0.5997    0.0483 H        1 ZINC000034001955    0.1400
4      C4     -2.7806   -0.4882    1.2756 C.3      1 ZINC000034001955   -0.0300
5      N5     -3.1594    0.0491    2.5885 N.4      1 ZINC000034001955   -0.3800
6      H6     -2.9920    1.0440    2.6045 H        1 ZINC000034001955    0.4200
7      C7     -4.5854   -0.2095    2.8286 C.3      1 ZINC000034001955    0.0400
8      C8     -5.4106    0.5592    1.8291 C.ar     1 ZINC000034001955   -0.1700
9      C9     -5.8264    1.8452    2.1201 C.ar     1 ZINC000034001955   -0.0600
10     C10    -6.5832    2.5511    1.2043 C.ar     1 ZINC000034001955   -0.1500
11     C11    -6.9246    1.9702   -0.0053 C.ar     1 ZINC000034001955    0.1400
12     F12    -7.6640    2.6596   -0.9015 F        1 ZINC000034001955   -0.1200
13     C13    -6.5072    0.6824   -0.2959 C.ar     1 ZINC000034001955   -0.1500
14     C14    -5.7464   -0.0199    0.6195 C.ar     1 ZINC000034001955   -0.0700
15     C15    -2.3646   -0.5961    3.6412 C.3      1 ZINC000034001955    0.0100
16     H16    -2.7053   -0.2506    4.6172 H        1 ZINC000034001955    0.1500
17     C17    -2.5333   -2.1140    3.5498 C.3      1 ZINC000034001955   -0.1800
18     C18    -0.8870   -0.2342    3.4584 C.3      1 ZINC000034001955    0.0800
19     N19    -0.4815   -0.5922    2.0859 N.am     1 ZINC000034001955   -0.6200
20     C20     0.6239   -1.3295    1.8599 C.2      1 ZINC000034001955    0.5800
21     O21     0.8897   -1.6965    0.7317 O.2      1 ZINC000034001955   -0.4900
22     C22     1.5118   -1.6915    2.9822 C.ar     1 ZINC000034001955   -0.1500
23     C23     1.8820   -3.0286    3.1809 C.ar     1 ZINC000034001955    0.0100
24     Cl24    1.2927   -4.2554    2.1033 Cl       1 ZINC000034001955   -0.0400
25     C25     2.7096   -3.3755    4.2240 C.ar     1 ZINC000034001955   -0.1000
26     C26     3.1872   -2.3975    5.0929 C.ar     1 ZINC000034001955    0.1100
27     C27     2.8179   -1.0550    4.8966 C.ar     1 ZINC000034001955   -0.0600
28     C28     1.9878   -0.7032    3.8422 C.ar     1 ZINC000034001955   -0.0300
29     C29     3.4841   -0.2930    5.9722 C.2      1 ZINC000034001955   -0.2700
30     C30     3.4119    1.1490    6.2024 C.2      1 ZINC000034001955    0.4300
31     O31     2.7486    1.8499    5.4633 O.2      1 ZINC000034001955   -0.4400
32     C32     4.1523    1.7601    7.3441 C.2      1 ZINC000034001955    0.4800
33     O33     4.8261    1.0621    8.0736 O.2      1 ZINC000034001955   -0.5200
34     N34     4.0730    3.0871    7.5657 N.am     1 ZINC000034001955   -0.5900
35     C35     4.6970    3.6695    8.7564 C.3      1 ZINC000034001955    0.0800
36     C36     3.3629    3.9472    6.6159 C.3      1 ZINC000034001955    0.0700
37     C37     4.1886   -1.2188    6.7173 C.2      1 ZINC000034001955    0.1800
38     N38     4.0104   -2.4474    6.1973 N.pl3    1 ZINC000034001955   -0.4600
39     C39     4.6098   -3.6722    6.7330 C.3      1 ZINC000034001955    0.0600
40     H40    -0.1550    1.6562    0.6339 H        1 ZINC000034001955    0.0900
41     H41    -1.8239    1.7446    0.0215 H        1 ZINC000034001955    0.0900
42     H42    -1.5090    1.8734    1.7686 H        1 ZINC000034001955    0.0500
43     H43    -3.4279   -0.0632    0.5084 H        1 ZINC000034001955    0.1400
44     H44    -2.8881   -1.5729    1.2820 H        1 ZINC000034001955    0.1400
45     H45    -4.7845   -1.2758    2.7207 H        1 ZINC000034001955    0.1400
46     H46    -4.8475    0.1087    3.8376 H        1 ZINC000034001955    0.1400
47     H47    -5.5600    2.2981    3.0637 H        1 ZINC000034001955    0.1400
48     H48    -6.9085    3.5554    1.4321 H        1 ZINC000034001955    0.1500
49     H49    -6.7731    0.2282   -1.2389 H        1 ZINC000034001955    0.1500
50     H50    -5.4204   -1.0243    0.3930 H        1 ZINC000034001955    0.1400
51     H51    -2.1923   -2.4594    2.5739 H        1 ZINC000034001955    0.0800
52     H52    -1.9433   -2.5929    4.3313 H        1 ZINC000034001955    0.1100
53     H53    -3.5846   -2.3712    3.6793 H        1 ZINC000034001955    0.0800
54     H54    -0.7502    0.8361    3.6126 H        1 ZINC000034001955    0.1000
55     H55    -0.2823   -0.7906    4.1745 H        1 ZINC000034001955    0.1300
56     H56     2.9891   -4.4085    4.3694 H        1 ZINC000034001955    0.1500
57     H57     1.7055    0.3286    3.6935 H        1 ZINC000034001955    0.1500
58     H58     5.7238    3.9537    8.5263 H        1 ZINC000034001955    0.0700
59     H59     4.1364    4.5516    9.0657 H        1 ZINC000034001955    0.0800
60     H60     4.6950    2.9364    9.5630 H        1 ZINC000034001955    0.0800
61     H61     2.2965    3.9348    6.8414 H        1 ZINC000034001955    0.0600
62     H62     3.7396    4.9668    6.6972 H        1 ZINC000034001955    0.0700
63     H63     3.5242    3.5800    5.6023 H        1 ZINC000034001955    0.0900
64     H64     4.7908   -0.9914    7.5845 H        1 ZINC000034001955    0.2100
65     H65     3.9389   -4.1126    7.4705 H        1 ZINC000034001955    0.0900
66     H66     4.7737   -4.3814    5.9217 H        1 ZINC000034001955    0.0900
67     H67     5.5628   -3.4338    7.2052 H        1 ZINC000034001955    0.1000
@<TRIPOS>BOND
1     1     2     1
2     1     40    1
3     1     41    1
4     1     42    1
5     2     3     1
6     2     19    1
7     2     4     1
8     4     5     1
9     4     43    1
10    4     44    1
11    5     6     1
12    5     7     1
13    5     15    1
14    7     8     1
15    7     45    1
16    7     46    1
17    8     14    ar
18    8     9     ar
19    9     10    ar
20    9     47    1
21    10    11    ar
22    10    48    1
23    11    12    1
24    11    13    ar
25    13    14    ar
26    13    49    1
27    14    50    1
28    15    16    1
29    15    17    1
30    15    18    1
31    17    51    1
32    17    52    1
33    17    53    1
34    18    19    1
35    18    54    1
36    18    55    1
37    19    20    am
38    20    21    2
39    20    22    1
40    22    28    ar
41    22    23    ar
42    23    24    1
43    23    25    ar
44    25    26    ar
45    25    56    1
46    26    38    1
47    26    27    ar
48    27    28    ar
49    27    29    1
50    28    57    1
51    29    30    1
52    29    37    2
53    30    31    2
54    30    32    1
55    32    33    2
56    32    34    am
57    34    35    1
58    34    36    1
59    35    58    1
60    35    59    1
61    35    60    1
62    36    61    1
63    36    62    1
64    36    63    1
65    37    38    1
66    37    64    1
67    38    39    1
68    39    65    1
69    39    66    1
70    39    67    1
@<TRIPOS>SUBSTRUCTURE
1   ZINC000034001955 1     RESIDUE    1   A     ZIN   1
