@<TRIPOS>MOLECULE
ZINC000029396913
47    50    1     0     0
SMALL
USER_CHARGES
@<TRIPOS>ATOM
1      C1     -0.2315    1.6842   -0.2193 C.3      1 ZINC000029396913   -0.1500
2      C2     -0.1301    0.1585   -0.1644 C.3      1 ZINC000029396913   -0.1500
3      C3      0.5880   -0.3502   -1.4160 C.3      1 ZINC000029396913    0.1200
4      N4      0.6851   -1.8111   -1.3634 N.pl3    1 ZINC000029396913   -0.5400
5      C5     -0.3228   -2.5927   -1.9063 C.2      1 ZINC000029396913    0.3400
6      N6     -0.3450   -3.8899   -1.9122 N.2      1 ZINC000029396913   -0.5000
7      C7     -1.3946   -4.4709   -2.4778 C.2      1 ZINC000029396913    0.1300
8      C8     -1.5414   -5.9450   -2.5498 C.ar     1 ZINC000029396913    0.0000
9      C9     -2.7386   -6.5479   -2.1691 C.ar     1 ZINC000029396913   -0.0800
10     C10    -2.8703   -7.9201   -2.2378 C.ar     1 ZINC000029396913   -0.1100
11     C11    -1.8158   -8.6980   -2.6840 C.ar     1 ZINC000029396913   -0.0200
12     Cl12   -1.9889  -10.4232   -2.7683 Cl       1 ZINC000029396913   -0.0500
13     C13    -0.6237   -8.1050   -3.0637 C.ar     1 ZINC000029396913   -0.1100
14     C14    -0.4833   -6.7326   -3.0043 C.ar     1 ZINC000029396913    0.0000
15     Cl15    1.0116   -5.9898   -3.4812 Cl       1 ZINC000029396913   -0.0400
16     C16    -2.3165   -3.6316   -2.9811 C.2      1 ZINC000029396913   -0.2300
17     C17    -3.5946   -4.0341   -3.6706 C.3      1 ZINC000029396913   -0.0700
18     S18    -1.7765   -1.9799   -2.6890 S.3      1 ZINC000029396913    0.0700
19     C19     1.7900   -2.4145   -0.7679 C.ar     1 ZINC000029396913    0.1800
20     C20     2.9351   -2.7181   -1.5340 C.ar     1 ZINC000029396913   -0.0900
21     C21     2.9956   -2.4236   -2.9065 C.ar     1 ZINC000029396913   -0.0500
22     C22     4.1372   -2.7456   -3.5860 C.ar     1 ZINC000029396913   -0.1700
23     C23     5.1980   -3.3483   -2.9151 C.ar     1 ZINC000029396913    0.1300
24     N24     5.1377   -3.6220   -1.6341 N.ar     1 ZINC000029396913   -0.4700
25     C25     4.0500   -3.3321   -0.9118 C.ar     1 ZINC000029396913    0.1300
26     C26     3.9924   -3.6286    0.4603 C.ar     1 ZINC000029396913   -0.0800
27     C27     2.8749   -3.3257    1.1778 C.ar     1 ZINC000029396913   -0.0900
28     C28     1.7779   -2.7163    0.5786 C.ar     1 ZINC000029396913   -0.1000
29     H29     0.7694    2.1135   -0.2637 H        1 ZINC000029396913    0.0600
30     H30    -0.7932    1.9793   -1.1056 H        1 ZINC000029396913    0.0600
31     H31    -0.7431    2.0466    0.6724 H        1 ZINC000029396913    0.0600
32     H32     0.4315   -0.1366    0.7220 H        1 ZINC000029396913    0.0700
33     H33    -1.1310   -0.2708   -0.1200 H        1 ZINC000029396913    0.0700
34     H34     0.0264   -0.0551   -2.3023 H        1 ZINC000029396913    0.0800
35     H35     1.5889    0.0791   -1.4604 H        1 ZINC000029396913    0.0900
36     H36    -3.5621   -5.9423   -1.8204 H        1 ZINC000029396913    0.1400
37     H37    -3.7978   -8.3879   -1.9425 H        1 ZINC000029396913    0.1400
38     H38     0.1961   -8.7164   -3.4108 H        1 ZINC000029396913    0.1500
39     H39    -4.4091   -4.0487   -2.9463 H        1 ZINC000029396913    0.0800
40     H40    -3.8229   -3.3178   -4.4598 H        1 ZINC000029396913    0.0700
41     H41    -3.4763   -5.0271   -4.1043 H        1 ZINC000029396913    0.0800
42     H42     2.1629   -1.9561   -3.4109 H        1 ZINC000029396913    0.1300
43     H43     4.2161   -2.5330   -4.6419 H        1 ZINC000029396913    0.1400
44     H44     6.0940   -3.5973   -3.4643 H        1 ZINC000029396913    0.1600
45     H45     4.8350   -4.0976    0.9467 H        1 ZINC000029396913    0.1400
46     H46     2.8420   -3.5587    2.2319 H        1 ZINC000029396913    0.1400
47     H47     0.9042   -2.4865    1.1705 H        1 ZINC000029396913    0.1300
@<TRIPOS>BOND
1     1     2     1
2     1     29    1
3     1     30    1
4     1     31    1
5     2     3     1
6     2     32    1
7     2     33    1
8     3     4     1
9     3     34    1
10    3     35    1
11    4     5     1
12    4     19    1
13    5     18    1
14    5     6     2
15    6     7     1
16    7     8     1
17    7     16    2
18    8     14    ar
19    8     9     ar
20    9     10    ar
21    9     36    1
22    10    11    ar
23    10    37    1
24    11    12    1
25    11    13    ar
26    13    14    ar
27    13    38    1
28    14    15    1
29    16    17    1
30    16    18    1
31    17    39    1
32    17    40    1
33    17    41    1
34    19    28    ar
35    19    20    ar
36    20    25    ar
37    20    21    ar
38    21    22    ar
39    21    42    1
40    22    23    ar
41    22    43    1
42    23    24    ar
43    23    44    1
44    24    25    ar
45    25    26    ar
46    26    27    ar
47    26    45    1
48    27    28    ar
49    27    46    1
50    28    47    1
@<TRIPOS>SUBSTRUCTURE
1   ZINC000029396913 1     RESIDUE    1   A     ZIN   1
