@<TRIPOS>MOLECULE
ZINC000038897728
49    52    1     0     0
SMALL
USER_CHARGES
@<TRIPOS>ATOM
1      O1     -0.0173    1.4248    0.0099 O.3      1 ZINC000038897728   -0.5700
2      C2      0.0021   -0.0041    0.0020 C.3      1 ZINC000038897728    0.0900
3      C3     -1.4333   -0.5336    0.0129 C.3      1 ZINC000038897728    0.1000
4      H4     -1.9703   -0.1110    0.8621 H        1 ZINC000038897728    0.0800
5      O5     -2.0889   -0.1583   -1.2001 O.3      1 ZINC000038897728   -0.3400
6      C6     -3.4509   -0.5831   -1.2828 C.3      1 ZINC000038897728    0.1400
7      H7     -4.0143   -0.1613   -0.4505 H        1 ZINC000038897728    0.0800
8      C8     -4.0466   -0.1105   -2.5839 C.ar     1 ZINC000038897728   -0.0800
9      C9     -3.2983   -0.1614   -3.7449 C.ar     1 ZINC000038897728   -0.0600
10     C10    -3.8438    0.2714   -4.9389 C.ar     1 ZINC000038897728   -0.1500
11     C11    -5.1402    0.7560   -4.9716 C.ar     1 ZINC000038897728    0.1200
12     F12    -5.6746    1.1788   -6.1382 F        1 ZINC000038897728   -0.1300
13     C13    -5.8890    0.8065   -3.8078 C.ar     1 ZINC000038897728   -0.1200
14     C14    -7.3005    1.3332   -3.8419 C.3      1 ZINC000038897728   -0.0100
15     C15    -7.2745    2.8400   -3.8458 C.2      1 ZINC000038897728   -0.1500
16     C16    -7.2417    3.5795   -4.9365 C.2      1 ZINC000038897728   -0.1100
17     C17    -7.2213    5.0144   -4.7027 C.ar     1 ZINC000038897728   -0.0700
18     C18    -7.1864    6.0726   -5.6359 C.ar     1 ZINC000038897728   -0.0800
19     C19    -7.1717    7.3661   -5.2120 C.ar     1 ZINC000038897728   -0.1200
20     C20    -7.1908    7.6657   -3.8568 C.ar     1 ZINC000038897728   -0.1000
21     C21    -7.2254    6.6545   -2.9256 C.ar     1 ZINC000038897728   -0.0800
22     C22    -7.2409    5.3189   -3.3387 C.ar     1 ZINC000038897728   -0.1400
23     S23    -7.2914    3.8319   -2.4005 S.3      1 ZINC000038897728    0.0900
24     C24    -5.3433    0.3684   -2.6163 C.ar     1 ZINC000038897728   -0.0500
25     C25    -3.5121   -2.1114   -1.2183 C.3      1 ZINC000038897728    0.1000
26     H26    -2.9830   -2.5335   -2.0727 H        1 ZINC000038897728    0.0700
27     O27    -4.8763   -2.5362   -1.2440 O.3      1 ZINC000038897728   -0.5500
28     C28    -2.8509   -2.5868    0.0790 C.3      1 ZINC000038897728    0.0400
29     H29    -3.4093   -2.2053    0.9339 H        1 ZINC000038897728    0.0800
30     O30    -2.8398   -4.0154    0.1143 O.3      1 ZINC000038897728   -0.5600
31     C31    -1.4135   -2.0600    0.1297 C.3      1 ZINC000038897728    0.0500
32     H32    -0.8419   -2.4810   -0.6974 H        1 ZINC000038897728    0.0800
33     O33    -0.8098   -2.4378    1.3686 O.3      1 ZINC000038897728   -0.5500
34     H34     0.8606    1.8301    0.0037 H        1 ZINC000038897728    0.3800
35     H35     0.5123   -0.3556   -0.8948 H        1 ZINC000038897728    0.0500
36     H36     0.5293   -0.3651    0.8851 H        1 ZINC000038897728    0.0700
37     H37    -2.2868   -0.5391   -3.7190 H        1 ZINC000038897728    0.1400
38     H38    -3.2588    0.2319   -5.8458 H        1 ZINC000038897728    0.1400
39     H39    -7.7999    0.9761   -4.7426 H        1 ZINC000038897728    0.1000
40     H40    -7.8409    0.9814   -2.9631 H        1 ZINC000038897728    0.0900
41     H41    -7.2306    3.1520   -5.9283 H        1 ZINC000038897728    0.1500
42     H42    -7.1709    5.8546   -6.6936 H        1 ZINC000038897728    0.1300
43     H43    -7.1447    8.1665   -5.9367 H        1 ZINC000038897728    0.1300
44     H44    -7.1782    8.6958   -3.5328 H        1 ZINC000038897728    0.1300
45     H45    -7.2398    6.8926   -1.8723 H        1 ZINC000038897728    0.1300
46     H46    -5.9271    0.4077   -1.7085 H        1 ZINC000038897728    0.1300
47     H47    -4.9902   -3.4957   -1.2060 H        1 ZINC000038897728    0.3900
48     H48    -2.4346   -4.3860    0.9102 H        1 ZINC000038897728    0.3800
49     H49    -0.7681   -3.3935    1.5105 H        1 ZINC000038897728    0.3800
@<TRIPOS>BOND
1     1     2     1
2     1     34    1
3     2     3     1
4     2     35    1
5     2     36    1
6     3     4     1
7     3     31    1
8     3     5     1
9     5     6     1
10    6     7     1
11    6     8     1
12    6     25    1
13    8     24    ar
14    8     9     ar
15    9     10    ar
16    9     37    1
17    10    11    ar
18    10    38    1
19    11    12    1
20    11    13    ar
21    13    14    1
22    13    24    ar
23    14    15    1
24    14    39    1
25    14    40    1
26    15    23    1
27    15    16    2
28    16    17    1
29    16    41    1
30    17    22    ar
31    17    18    ar
32    18    19    ar
33    18    42    1
34    19    20    ar
35    19    43    1
36    20    21    ar
37    20    44    1
38    21    22    ar
39    21    45    1
40    22    23    1
41    24    46    1
42    25    26    1
43    25    27    1
44    25    28    1
45    27    47    1
46    28    29    1
47    28    30    1
48    28    31    1
49    30    48    1
50    31    32    1
51    31    33    1
52    33    49    1
@<TRIPOS>SUBSTRUCTURE
1   ZINC000038897728 1     RESIDUE    1   A     ZIN   1
