@<TRIPOS>MOLECULE
ZINC000003776953
  42   43    0    0    0
SMALL
USER_CHARGES
NO_NAME
@<TRIPOS>ATOM
    1 C1       -0.0173     1.4248     0.0099 C.3    1 <0>       0.0300
    2 O2        0.0021    -0.0041     0.0020 O.3    1 <0>      -0.3800
    3 C3       -1.2953    -0.6030     0.0112 C.3    1 <0>       0.0500
    4 C4       -1.1538    -2.1264     0.0017 C.3    1 <0>       0.0700
    5 H5       -0.5173    -2.4552     0.8232 H      1 <0>       0.1300
    6 C6       -2.5380    -2.7980     0.0886 C.3    1 <0>       0.0700
    7 N7       -2.6337    -3.5663    -1.1621 N.am   1 <0>      -0.5700
    8 C8       -3.7234    -4.3571    -1.5514 C.ar   1 <0>       0.1400
    9 C9       -4.8377    -4.4573    -0.7293 C.ar   1 <0>      -0.1100
   10 C10      -5.9112    -5.2362    -1.1137 C.ar   1 <0>      -0.1200
   11 C11      -5.8763    -5.9188    -2.3208 C.ar   1 <0>       0.1100
   12 O12      -6.9335    -6.6860    -2.6986 O.3    1 <0>      -0.3100
   13 C13      -6.8297    -7.3608    -3.9539 C.3    1 <0>       0.0700
   14 C14      -8.1048    -8.1680    -4.2060 C.3    1 <0>      -0.1600
   15 C15      -7.9936    -8.8905    -5.5500 C.3    1 <0>       0.0800
   16 H16      -7.7753    -8.1663    -6.3349 H      1 <0>       0.1500
   17 O17      -6.9416    -9.8556    -5.4865 O.3    1 <0>      -0.5300
   18 C18      -9.3151    -9.5963    -5.8605 C.3    1 <0>       0.4200
   19 F19     -10.3450    -8.6515    -5.9227 F      1 <0>      -0.1800
   20 F20      -9.2135   -10.2570    -7.0895 F      1 <0>      -0.1700
   21 F21      -9.5952   -10.5258    -4.8531 F      1 <0>      -0.1800
   22 C22      -4.7635    -5.8187    -3.1429 C.ar   1 <0>      -0.1800
   23 C23      -3.6915    -5.0359    -2.7621 C.ar   1 <0>      -0.1100
   24 C24      -1.5096    -3.3863    -1.8689 C.2    1 <0>       0.6400
   25 O25      -1.3156    -3.9060    -2.9500 O.2    1 <0>      -0.5000
   26 O26      -0.6171    -2.5816    -1.2741 O.3    1 <0>      -0.3000
   27 H27       1.0053     1.8021     0.0021 H      1 <0>       0.0900
   28 H28      -0.5445     1.7859    -0.8732 H      1 <0>       0.0400
   29 H29      -0.5275     1.7763     0.9067 H      1 <0>       0.0500
   30 H30      -1.8320    -0.2936     0.9080 H      1 <0>       0.0800
   31 H31      -1.8490    -0.2840    -0.8718 H      1 <0>       0.0600
   32 H32      -2.5875    -3.4627     0.9510 H      1 <0>       0.1100
   33 H33      -3.3258    -2.0464     0.1375 H      1 <0>       0.1000
   34 H34      -4.8647    -3.9265     0.2109 H      1 <0>       0.1300
   35 H35      -6.7780    -5.3143    -0.4742 H      1 <0>       0.1400
   36 H36      -6.6999    -6.6283    -4.7505 H      1 <0>       0.0700
   37 H37      -5.9719    -8.0330    -3.9352 H      1 <0>       0.0800
   38 H38      -8.2345    -8.9005    -3.4093 H      1 <0>       0.0900
   39 H39      -8.9626    -7.4957    -4.2247 H      1 <0>       0.1000
   40 H40      -7.0696   -10.5328    -4.8082 H      1 <0>       0.3900
   41 H41      -4.7369    -6.3504    -4.0826 H      1 <0>       0.1400
   42 H42      -2.8253    -4.9578    -3.4024 H      1 <0>       0.1600
@<TRIPOS>BOND
   1    1    2 1
   2    1   27 1
   3    1   28 1
   4    1   29 1
   5    2    3 1
   6    3    4 1
   7    3   30 1
   8    3   31 1
   9    4    5 1
  10    4   26 1
  11    4    6 1
  12    6    7 1
  13    6   32 1
  14    6   33 1
  15    7    8 1
  16    7   24 am
  17    8   23 ar
  18    8    9 ar
  19    9   10 ar
  20    9   34 1
  21   10   11 ar
  22   10   35 1
  23   11   12 1
  24   11   22 ar
  25   12   13 1
  26   13   14 1
  27   13   36 1
  28   13   37 1
  29   14   15 1
  30   14   38 1
  31   14   39 1
  32   15   16 1
  33   15   17 1
  34   15   18 1
  35   17   40 1
  36   18   19 1
  37   18   20 1
  38   18   21 1
  39   22   23 ar
  40   22   41 1
  41   23   42 1
  42   24   25 2
  43   24   26 1
