@<TRIPOS>MOLECULE
ZINC000001551031
64    68    1     0     0
SMALL
USER_CHARGES
@<TRIPOS>ATOM
1      O1     -0.2157   -0.9314   -0.5304 O.co2    1 ZINC000001551031   -0.6800
2      C2     -0.1176    0.2699   -0.7140 C.2      1 ZINC000001551031    0.5000
3      O3      0.9774    0.7695   -0.9085 O.co2    1 ZINC000001551031   -0.7000
4      C4     -1.3506    1.1364   -0.7067 C.3      1 ZINC000001551031   -0.1600
5      C5     -2.5647    0.2804   -0.4533 C.ar     1 ZINC000001551031   -0.0200
6      C6     -3.2441   -0.2865   -1.5170 C.ar     1 ZINC000001551031   -0.1000
7      C7     -4.3654   -1.0677   -1.3033 C.ar     1 ZINC000001551031   -0.1300
8      C8     -4.8136   -1.2840   -0.0079 C.ar     1 ZINC000001551031    0.0800
9      O9     -5.9321   -1.9992    0.2266 O.3      1 ZINC000001551031   -0.3200
10     C10    -7.1227   -1.3649    0.6185 C.3      1 ZINC000001551031    0.1200
11     C11    -7.1071   -0.7911    2.0108 C.ar     1 ZINC000001551031   -0.1000
12     C12    -8.3519   -0.3947    2.5004 C.ar     1 ZINC000001551031   -0.1200
13     C13    -8.4870    0.1494    3.7581 C.ar     1 ZINC000001551031   -0.1200
14     C14    -7.3754    0.3129    4.5651 C.ar     1 ZINC000001551031   -0.1200
15     C15    -6.1394   -0.0733    4.0996 C.ar     1 ZINC000001551031   -0.1100
16     C16    -5.9969   -0.6288    2.8194 C.ar     1 ZINC000001551031   -0.0200
17     C17    -4.6243   -1.0168    2.4183 C.2      1 ZINC000001551031   -0.0400
18     C18    -3.8303   -1.6385    3.2986 C.2      1 ZINC000001551031   -0.1200
19     C19    -4.3875   -2.1018    4.6199 C.3      1 ZINC000001551031    0.0800
20     N20    -4.0827   -3.5265    4.8074 N.3      1 ZINC000001551031   -0.5300
21     C21    -4.3739   -4.2918    3.5885 C.3      1 ZINC000001551031    0.0600
22     C22    -3.9102   -5.7389    3.7701 C.3      1 ZINC000001551031   -0.1100
23     C23    -4.6368   -6.3560    4.9684 C.3      1 ZINC000001551031   -0.0800
24     C24    -4.1328   -7.7831    5.1924 C.3      1 ZINC000001551031   -0.0800
25     C25    -4.9334   -8.4317    6.2921 C.ar     1 ZINC000001551031   -0.0700
26     C26    -4.5194   -8.3204    7.6063 C.ar     1 ZINC000001551031   -0.1200
27     C27    -5.2538   -8.9154    8.6151 C.ar     1 ZINC000001551031   -0.1200
28     C28    -6.4024   -9.6213    8.3097 C.ar     1 ZINC000001551031   -0.1300
29     C29    -6.8169   -9.7319    6.9956 C.ar     1 ZINC000001551031   -0.1200
30     C30    -6.0848   -9.1333    5.9873 C.ar     1 ZINC000001551031   -0.1200
31     C31    -4.3561   -5.5125    6.2151 C.3      1 ZINC000001551031   -0.1100
32     C32    -4.8069   -4.0720    5.9626 C.3      1 ZINC000001551031    0.0600
33     C33    -4.1195   -0.7272    1.0566 C.ar     1 ZINC000001551031   -0.0800
34     C34    -2.9945    0.0582    0.8428 C.ar     1 ZINC000001551031   -0.0800
35     H35    -1.2636    1.8856    0.0802 H        1 ZINC000001551031    0.0700
36     H36    -1.4513    1.6331   -1.6718 H        1 ZINC000001551031    0.0700
37     H37    -2.8954   -0.1170   -2.5249 H        1 ZINC000001551031    0.1200
38     H38    -4.8891   -1.5065   -2.1397 H        1 ZINC000001551031    0.1200
39     H39    -7.3296   -0.5575   -0.0839 H        1 ZINC000001551031    0.0600
40     H40    -7.9353   -2.0884    0.5538 H        1 ZINC000001551031    0.1100
41     H41    -9.2275   -0.5168    1.8801 H        1 ZINC000001551031    0.1200
42     H42    -9.4616    0.4484    4.1149 H        1 ZINC000001551031    0.1200
43     H43    -7.4767    0.7402    5.5517 H        1 ZINC000001551031    0.1200
44     H44    -5.2692    0.0532    4.7267 H        1 ZINC000001551031    0.1300
45     H45    -2.7903   -1.8081    3.0618 H        1 ZINC000001551031    0.1300
46     H46    -3.9364   -1.5244    5.4269 H        1 ZINC000001551031    0.0800
47     H47    -5.4678   -1.9570    4.6295 H        1 ZINC000001551031    0.0500
48     H48    -5.4469   -4.2756    3.3971 H        1 ZINC000001551031    0.0300
49     H49    -3.8479   -3.8451    2.7448 H        1 ZINC000001551031    0.0800
50     H50    -4.1407   -6.3105    2.8710 H        1 ZINC000001551031    0.0700
51     H51    -2.8349   -5.7569    3.9478 H        1 ZINC000001551031    0.0700
52     H52    -5.7092   -6.3747    4.7740 H        1 ZINC000001551031    0.0700
53     H53    -4.2467   -8.3572    4.2729 H        1 ZINC000001551031    0.0700
54     H54    -3.0807   -7.7565    5.4762 H        1 ZINC000001551031    0.0700
55     H55    -3.6220   -7.7689    7.8449 H        1 ZINC000001551031    0.1200
56     H56    -4.9299   -8.8290    9.6418 H        1 ZINC000001551031    0.1200
57     H57    -6.9757  -10.0868    9.0977 H        1 ZINC000001551031    0.1200
58     H58    -7.7141  -10.2837    6.7569 H        1 ZINC000001551031    0.1200
59     H59    -6.4086   -9.2196    4.9606 H        1 ZINC000001551031    0.1200
60     H60    -4.9051   -5.9223    7.0629 H        1 ZINC000001551031    0.0700
61     H61    -3.2879   -5.5269    6.4313 H        1 ZINC000001551031    0.0700
62     H62    -4.5953   -3.4656    6.8433 H        1 ZINC000001551031    0.0700
63     H63    -5.8778   -4.0568    5.7601 H        1 ZINC000001551031    0.0300
64     H64    -2.4643    0.4930    1.6771 H        1 ZINC000001551031    0.1200
@<TRIPOS>BOND
1     1     2     ar
2     2     3     ar
3     2     4     1
4     4     5     1
5     4     35    1
6     4     36    1
7     5     34    ar
8     5     6     ar
9     6     7     ar
10    6     37    1
11    7     8     ar
12    7     38    1
13    8     33    ar
14    8     9     1
15    9     10    1
16    10    11    1
17    10    39    1
18    10    40    1
19    11    16    ar
20    11    12    ar
21    12    13    ar
22    12    41    1
23    13    14    ar
24    13    42    1
25    14    15    ar
26    14    43    1
27    15    16    ar
28    15    44    1
29    16    17    1
30    17    18    2
31    17    33    1
32    18    19    1
33    18    45    1
34    19    20    1
35    19    46    1
36    19    47    1
37    20    32    1
38    20    21    1
39    21    22    1
40    21    48    1
41    21    49    1
42    22    23    1
43    22    50    1
44    22    51    1
45    23    24    1
46    23    31    1
47    23    52    1
48    24    25    1
49    24    53    1
50    24    54    1
51    25    30    ar
52    25    26    ar
53    26    27    ar
54    26    55    1
55    27    28    ar
56    27    56    1
57    28    29    ar
58    28    57    1
59    29    30    ar
60    29    58    1
61    30    59    1
62    31    32    1
63    31    60    1
64    31    61    1
65    32    62    1
66    32    63    1
67    33    34    ar
68    34    64    1
@<TRIPOS>SUBSTRUCTURE
1   ZINC000001551031 1     RESIDUE    1   A     ZIN   1
