@<TRIPOS>MOLECULE
ZINC000003820043
63    68    1     0     0
SMALL
USER_CHARGES
@<TRIPOS>ATOM
1      C1     -6.6027    5.9993   -6.2535 C.3      1 ZINC000003820043   -0.1300
2      C2     -7.3890    5.9247   -4.9431 C.3      1 ZINC000003820043   -0.1300
3      C3     -7.7419    4.4920   -4.5384 C.3      1 ZINC000003820043    0.0700
4      O4     -6.5669    3.6803   -4.5865 O.3      1 ZINC000003820043   -0.3000
5      C5     -6.7079    2.3697   -4.2529 C.ar     1 ZINC000003820043    0.1300
6      C6     -7.9591    1.8786   -3.8923 C.ar     1 ZINC000003820043   -0.1700
7      C7     -8.1162    0.5518   -3.5523 C.ar     1 ZINC000003820043   -0.0700
8      C8     -7.0220   -0.3005   -3.5691 C.ar     1 ZINC000003820043    0.0200
9      C9     -5.7555    0.1875   -3.9321 C.ar     1 ZINC000003820043    0.0900
10     C10    -5.6098    1.5327   -4.2796 C.ar     1 ZINC000003820043   -0.1000
11     N11    -4.8908   -0.8577   -3.8588 N.2      1 ZINC000003820043   -0.4800
12     C12    -5.5266   -1.9288   -3.4841 C.2      1 ZINC000003820043    0.2800
13     N13    -6.8464   -1.6459   -3.2903 N.pl3    1 ZINC000003820043   -0.4400
14     C14    -7.8349   -2.5436   -2.8866 C.ar     1 ZINC000003820043    0.3700
15     C15    -9.0499   -2.5807   -3.5817 C.ar     1 ZINC000003820043   -0.1700
16     C16   -10.0252   -3.4530   -3.1985 C.ar     1 ZINC000003820043   -0.0300
17     C17    -9.7706   -4.2982   -2.0999 C.ar     1 ZINC000003820043   -0.0900
18     C18   -10.7313   -5.2200   -1.6534 C.ar     1 ZINC000003820043   -0.1000
19     C19   -10.4580   -6.0247   -0.5892 C.ar     1 ZINC000003820043   -0.0900
20     C20    -9.2340   -5.9497    0.0693 C.ar     1 ZINC000003820043   -0.1000
21     C21    -8.2663   -5.0582   -0.3392 C.ar     1 ZINC000003820043    0.1100
22     N22    -7.0438   -4.9927    0.3297 N.3      1 ZINC000003820043   -0.4900
23     C23    -6.2670   -3.8255   -0.1069 C.3      1 ZINC000003820043    0.0700
24     C24    -5.0031   -3.7037    0.7473 C.3      1 ZINC000003820043   -0.1500
25     C25    -4.1689   -4.9793    0.6006 C.3      1 ZINC000003820043    0.0200
26     N26    -2.9833   -4.8925    1.4636 N.4      1 ZINC000003820043   -0.6400
27     H27    -3.2735   -4.7896    2.4244 H        1 ZINC000003820043    0.4300
28     H28    -2.4342   -5.7334    1.3663 H        1 ZINC000003820043    0.4400
29     H29    -2.4278   -4.0949    1.1928 H        1 ZINC000003820043    0.4400
30     C30    -5.0168   -6.1848    1.0157 C.3      1 ZINC000003820043   -0.1400
31     C31    -6.2803   -6.2347    0.1537 C.3      1 ZINC000003820043    0.0600
32     C32    -8.5214   -4.2109   -1.4399 C.ar     1 ZINC000003820043    0.1200
33     N33    -7.6017   -3.3396   -1.8646 N.ar     1 ZINC000003820043   -0.4900
34     C34    -6.7802    6.7637   -3.8038 C.3      1 ZINC000003820043    0.0500
35     O35    -7.6444    7.8188   -4.2713 O.3      1 ZINC000003820043   -0.3700
36     C36    -8.5783    6.9012   -4.8749 C.3      1 ZINC000003820043    0.0500
37     H37    -6.2028    7.0053   -6.3805 H        1 ZINC000003820043    0.0700
38     H38    -5.7818    5.2827   -6.2259 H        1 ZINC000003820043    0.0700
39     H39    -7.2634    5.7629   -7.0876 H        1 ZINC000003820043    0.0600
40     H40    -8.1442    4.4893   -3.5253 H        1 ZINC000003820043    0.0700
41     H41    -8.4874    4.0933   -5.2264 H        1 ZINC000003820043    0.0700
42     H42    -8.8121    2.5409   -3.8783 H        1 ZINC000003820043    0.1400
43     H43    -9.0896    0.1767   -3.2730 H        1 ZINC000003820043    0.1300
44     H44    -4.6409    1.9182   -4.5606 H        1 ZINC000003820043    0.1400
45     H45    -5.0752   -2.9003   -3.3466 H        1 ZINC000003820043    0.2100
46     H46    -9.2143   -1.9194   -4.4196 H        1 ZINC000003820043    0.1500
47     H47   -10.9683   -3.4949   -3.7230 H        1 ZINC000003820043    0.1600
48     H48   -11.6861   -5.2905   -2.1532 H        1 ZINC000003820043    0.1400
49     H49   -11.2018   -6.7310   -0.2512 H        1 ZINC000003820043    0.1400
50     H50    -9.0406   -6.5982    0.9111 H        1 ZINC000003820043    0.1400
51     H51    -5.9877   -3.9459   -1.1536 H        1 ZINC000003820043    0.0900
52     H52    -6.8702   -2.9247    0.0065 H        1 ZINC000003820043    0.1000
53     H53    -4.4190   -2.8464    0.4128 H        1 ZINC000003820043    0.1000
54     H54    -5.2818   -3.5693    1.7925 H        1 ZINC000003820043    0.0900
55     H55    -3.8563   -5.0927   -0.4375 H        1 ZINC000003820043    0.1400
56     H56    -4.4425   -7.1001    0.8729 H        1 ZINC000003820043    0.1000
57     H57    -5.2957   -6.0895    2.0651 H        1 ZINC000003820043    0.1000
58     H58    -6.8932   -7.0837    0.4564 H        1 ZINC000003820043    0.1000
59     H59    -6.0010   -6.3438   -0.8942 H        1 ZINC000003820043    0.0500
60     H60    -7.0284    6.3996   -2.8068 H        1 ZINC000003820043    0.0800
61     H61    -5.7183    6.9747   -3.9304 H        1 ZINC000003820043    0.1000
62     H62    -8.9426    7.2213   -5.8511 H        1 ZINC000003820043    0.1000
63     H63    -9.3756    6.5791   -4.2051 H        1 ZINC000003820043    0.0800
@<TRIPOS>BOND
1     1     2     1
2     1     37    1
3     1     38    1
4     1     39    1
5     2     36    1
6     2     3     1
7     2     34    1
8     3     4     1
9     3     40    1
10    3     41    1
11    4     5     1
12    5     10    ar
13    5     6     ar
14    6     7     ar
15    6     42    1
16    7     8     ar
17    7     43    1
18    8     13    1
19    8     9     ar
20    9     10    ar
21    9     11    1
22    10    44    1
23    11    12    2
24    12    13    1
25    12    45    1
26    13    14    1
27    14    33    ar
28    14    15    ar
29    15    16    ar
30    15    46    1
31    16    17    ar
32    16    47    1
33    17    32    ar
34    17    18    ar
35    18    19    ar
36    18    48    1
37    19    20    ar
38    19    49    1
39    20    21    ar
40    20    50    1
41    21    22    1
42    21    32    ar
43    22    31    1
44    22    23    1
45    23    24    1
46    23    51    1
47    23    52    1
48    24    25    1
49    24    53    1
50    24    54    1
51    25    26    1
52    25    30    1
53    25    55    1
54    26    27    1
55    26    28    1
56    26    29    1
57    30    31    1
58    30    56    1
59    30    57    1
60    31    58    1
61    31    59    1
62    32    33    ar
63    34    35    1
64    34    60    1
65    34    61    1
66    35    36    1
67    36    62    1
68    36    63    1
@<TRIPOS>SUBSTRUCTURE
1   ZINC000003820043 1     RESIDUE    1   A     ZIN   1
