@<TRIPOS>MOLECULE
ZINC000008569065
  38   40    0    0    0
SMALL
USER_CHARGES
NO_NAME
@<TRIPOS>ATOM
    1 C1       -0.0184     1.5028     0.0103 C.3    1 <0>      -0.1000
    2 C2        0.0021    -0.0041     0.0020 C.2    1 <0>       0.0700
    3 C3        0.0081    -0.8009    -1.0836 C.2    1 <0>       0.0300
    4 C4       -0.0046    -0.3419    -2.5190 C.3    1 <0>      -0.0500
    5 C5        1.4265    -0.0474    -2.9729 C.3    1 <0>      -0.1700
    6 C6        1.4139     0.4115    -4.4083 C.2    1 <0>       0.4300
    7 O7        0.3626     0.4949    -5.0097 O.2    1 <0>      -0.4700
    8 C8        2.6293     0.7458    -5.0561 C.2    1 <0>      -0.2900
    9 C9        3.8964     0.6979    -4.5149 C.2    1 <0>       0.1400
   10 N10       4.7970     1.0894    -5.4365 N.pl3  1 <0>      -0.4600
   11 C11       6.2425     1.1617    -5.2101 C.3    1 <0>       0.0600
   12 C12       4.1715     1.4129    -6.6236 C.ar   1 <0>       0.0700
   13 C13       4.6423     1.8614    -7.8533 C.ar   1 <0>      -0.1200
   14 C14       3.7572     2.1065    -8.8809 C.ar   1 <0>      -0.1000
   15 C15       2.3959     1.9106    -8.7030 C.ar   1 <0>      -0.1300
   16 C16       1.9102     1.4671    -7.4916 C.ar   1 <0>      -0.0700
   17 C17       2.7938     1.2092    -6.4480 C.ar   1 <0>      -0.0600
   18 N18       0.0272    -2.0745    -0.6635 N.pl3  1 <0>      -0.4700
   19 H19       0.0356    -2.8555    -1.2387 H      1 <0>       0.4600
   20 C20       0.0333    -2.0972     0.6413 C.cat  1 <0>       0.3000
   21 N21       0.0241    -0.8258     1.0965 N.pl3  1 <0>      -0.5100
   22 H22       1.0042     1.8801     0.0026 H      1 <0>       0.1000
   23 H23      -0.5455     1.8639    -0.8728 H      1 <0>       0.1100
   24 H24      -0.5286     1.8543     0.9071 H      1 <0>       0.0900
   25 H25      -0.4311    -1.1243    -3.1468 H      1 <0>       0.1000
   26 H26      -0.6068     0.5624    -2.6060 H      1 <0>       0.1200
   27 H27       1.8531     0.7349    -2.3451 H      1 <0>       0.1000
   28 H28       2.0287    -0.9518    -2.8859 H      1 <0>       0.1000
   29 H29       4.1310     0.3928    -3.5058 H      1 <0>       0.1800
   30 H30       6.6993     0.2070    -5.4707 H      1 <0>       0.0800
   31 H31       6.6686     1.9498    -5.8309 H      1 <0>       0.0900
   32 H32       6.4353     1.3821    -4.1601 H      1 <0>       0.0900
   33 H33       5.7004     2.0176    -8.0026 H      1 <0>       0.1200
   34 H34       4.1273     2.4549    -9.8338 H      1 <0>       0.1300
   35 H35       1.7134     2.1066    -9.5168 H      1 <0>       0.1300
   36 H36       0.8497     1.3157    -7.3547 H      1 <0>       0.1300
   37 H37       0.0476    -2.9856     1.2553 H      1 <0>       0.2700
   38 H38       0.0261    -0.5471     2.0256 H      1 <0>       0.4600
@<TRIPOS>BOND
   1    1    2 1
   2    1   22 1
   3    1   23 1
   4    1   24 1
   5    2   21 1
   6    2    3 2
   7    3    4 1
   8    3   18 1
   9    4    5 1
  10    4   25 1
  11    4   26 1
  12    5    6 1
  13    5   27 1
  14    5   28 1
  15    6    7 2
  16    6    8 1
  17    8   17 1
  18    8    9 2
  19    9   10 1
  20    9   29 1
  21   10   11 1
  22   10   12 1
  23   11   30 1
  24   11   31 1
  25   11   32 1
  26   12   17 ar
  27   12   13 ar
  28   13   14 ar
  29   13   33 1
  30   14   15 ar
  31   14   34 1
  32   15   16 ar
  33   15   35 1
  34   16   17 ar
  35   16   36 1
  36   18   19 1
  37   18   20 ar
  38   20   21 ar
  39   20   37 1
  40   21   38 1
