@<TRIPOS>MOLECULE
ZINC000001714738
49    50    1     0     0
SMALL
USER_CHARGES
@<TRIPOS>ATOM
1      C1      0.0144    1.4480    0.0105 C.3      1 ZINC000001714738   -0.0500
2      N2      0.0231   -0.0209    0.0044 N.4      1 ZINC000001714738   -0.3900
3      H3     -0.9261   -0.3630    0.0095 H        1 ZINC000001714738    0.4300
4      C4      0.7103   -0.5014   -1.2018 C.3      1 ZINC000001714738   -0.0500
5      C5      0.7268   -0.5114    1.1969 C.3      1 ZINC000001714738   -0.0100
6      C6     -0.0572   -0.1166    2.4501 C.3      1 ZINC000001714738   -0.1300
7      C7      0.6756   -0.6275    3.6922 C.3      1 ZINC000001714738   -0.1100
8      S8     -0.2539   -0.1594    5.1780 S.3      1 ZINC000001714738   -0.1100
9      C9      0.7263   -0.8218    6.4838 C.ar     1 ZINC000001714738   -0.1300
10     C10     1.9017   -1.5004    6.1963 C.ar     1 ZINC000001714738   -0.1100
11     C11     2.6692   -2.0187    7.2227 C.ar     1 ZINC000001714738   -0.1200
12     C12     2.2691   -1.8636    8.5370 C.ar     1 ZINC000001714738   -0.0900
13     C13     1.0991   -1.1887    8.8333 C.ar     1 ZINC000001714738   -0.1100
14     C14     0.3257   -0.6604    7.8111 C.ar     1 ZINC000001714738    0.1800
15     N15    -0.8593    0.0239    8.1088 N.am     1 ZINC000001714738   -0.6700
16     C16    -1.0160    0.6074    9.3135 C.2      1 ZINC000001714738    0.5500
17     O17    -0.0916    0.6270   10.1052 O.2      1 ZINC000001714738   -0.5200
18     C18    -2.2980    1.2178    9.6700 C.2      1 ZINC000001714738   -0.2300
19     C19    -2.4547    1.8016   10.8751 C.2      1 ZINC000001714738    0.0100
20     C20    -3.7438    2.4153   11.2335 C.ar     1 ZINC000001714738   -0.0900
21     C21    -4.8100    2.3898   10.3290 C.ar     1 ZINC000001714738   -0.1000
22     C22    -6.0145    2.9664   10.6723 C.ar     1 ZINC000001714738   -0.1200
23     C23    -6.1699    3.5694   11.9083 C.ar     1 ZINC000001714738   -0.1000
24     C24    -5.1193    3.5992   12.8088 C.ar     1 ZINC000001714738   -0.1200
25     C25    -3.9103    3.0218   12.4825 C.ar     1 ZINC000001714738   -0.0900
26     H26     1.0398    1.8175    0.0050 H        1 ZINC000001714738    0.1200
27     H27    -0.5077    1.8120   -0.8744 H        1 ZINC000001714738    0.1300
28     H28    -0.4955    1.8046    0.9055 H        1 ZINC000001714738    0.1200
29     H29     1.7357   -0.1319   -1.2074 H        1 ZINC000001714738    0.1200
30     H30     0.7168   -1.5914   -1.2064 H        1 ZINC000001714738    0.1200
31     H31     0.1882   -0.1375   -2.0867 H        1 ZINC000001714738    0.1300
32     H32     0.8112   -1.5971    1.1482 H        1 ZINC000001714738    0.1300
33     H33     1.7230   -0.0710    1.2378 H        1 ZINC000001714738    0.1300
34     H34    -0.1416    0.9690    2.4989 H        1 ZINC000001714738    0.1000
35     H35    -1.0534   -0.5570    2.4092 H        1 ZINC000001714738    0.1000
36     H36     0.7601   -1.7131    3.6434 H        1 ZINC000001714738    0.1000
37     H37     1.6719   -0.1871    3.7331 H        1 ZINC000001714738    0.1000
38     H38     2.2169   -1.6241    5.1707 H        1 ZINC000001714738    0.1200
39     H39     3.5839   -2.5468    6.9971 H        1 ZINC000001714738    0.1300
40     H40     2.8722   -2.2712    9.3349 H        1 ZINC000001714738    0.1300
41     H41     0.7897   -1.0699    9.8612 H        1 ZINC000001714738    0.1600
42     H42    -1.5673    0.0778    7.4480 H        1 ZINC000001714738    0.4100
43     H43    -3.1182    1.2004    8.9675 H        1 ZINC000001714738    0.1300
44     H44    -1.6345    1.8190   11.5775 H        1 ZINC000001714738    0.1400
45     H45    -4.6901    1.9200    9.3640 H        1 ZINC000001714738    0.1300
46     H46    -6.8388    2.9479    9.9747 H        1 ZINC000001714738    0.1300
47     H47    -7.1158    4.0194   12.1714 H        1 ZINC000001714738    0.1300
48     H48    -5.2480    4.0722   13.7712 H        1 ZINC000001714738    0.1300
49     H49    -3.0915    3.0454   13.1864 H        1 ZINC000001714738    0.1300
@<TRIPOS>BOND
1     1     2     1
2     1     26    1
3     1     27    1
4     1     28    1
5     2     3     1
6     2     4     1
7     2     5     1
8     4     29    1
9     4     30    1
10    4     31    1
11    5     6     1
12    5     32    1
13    5     33    1
14    6     7     1
15    6     34    1
16    6     35    1
17    7     8     1
18    7     36    1
19    7     37    1
20    8     9     1
21    9     14    ar
22    9     10    ar
23    10    11    ar
24    10    38    1
25    11    12    ar
26    11    39    1
27    12    13    ar
28    12    40    1
29    13    14    ar
30    13    41    1
31    14    15    1
32    15    16    am
33    15    42    1
34    16    17    2
35    16    18    1
36    18    19    2
37    18    43    1
38    19    20    1
39    19    44    1
40    20    25    ar
41    20    21    ar
42    21    22    ar
43    21    45    1
44    22    23    ar
45    22    46    1
46    23    24    ar
47    23    47    1
48    24    25    ar
49    24    48    1
50    25    49    1
@<TRIPOS>SUBSTRUCTURE
1   ZINC000001714738 1     RESIDUE    1   A     ZIN   1
