@<TRIPOS>MOLECULE
ZINC000004216433
65    65    1     0     0
SMALL
USER_CHARGES
@<TRIPOS>ATOM
1      C1     -4.1242   -0.8629   -0.7134 C.3      1 ZINC000004216433   -0.1700
2      C2     -2.8049   -1.5603   -0.5033 C.2      1 ZINC000004216433    0.5100
3      O3     -2.1692   -1.3628    0.5104 O.2      1 ZINC000004216433   -0.5600
4      N4     -2.3315   -2.4036   -1.4421 N.am     1 ZINC000004216433   -0.7000
5      C5     -1.0490   -3.0816   -1.2379 C.3      1 ZINC000004216433    0.1300
6      H6     -0.3681   -2.4181   -0.7047 H        1 ZINC000004216433    0.1200
7      C7     -1.2695   -4.3534   -0.4165 C.3      1 ZINC000004216433    0.0700
8      O8     -2.0676   -5.2719   -1.1657 O.3      1 ZINC000004216433   -0.5500
9      C9     -0.4538   -3.4436   -2.5742 C.2      1 ZINC000004216433    0.5400
10     O10    -1.0429   -3.1629   -3.5965 O.2      1 ZINC000004216433   -0.5400
11     N11     0.7332   -4.0793   -2.6333 N.am     1 ZINC000004216433   -0.6700
12     C12     1.2644   -4.5202   -3.9255 C.3      1 ZINC000004216433    0.1600
13     H13     1.0120   -3.7869   -4.6914 H        1 ZINC000004216433    0.1200
14     C14     2.7854   -4.6567   -3.8317 C.3      1 ZINC000004216433   -0.1900
15     C15     3.3984   -3.2994   -3.6014 C.2      1 ZINC000004216433    0.4900
16     O16     2.6974   -2.3021   -3.6244 O.co2    1 ZINC000004216433   -0.6800
17     O17     4.5953   -3.1986   -3.3921 O.co2    1 ZINC000004216433   -0.7000
18     C18     0.6618   -5.8530   -4.2880 C.2      1 ZINC000004216433    0.5000
19     O19    -0.1332   -6.3825   -3.5406 O.2      1 ZINC000004216433   -0.5300
20     N20     1.0063   -6.4566   -5.4427 N.am     1 ZINC000004216433   -0.7300
21     C21     0.4205   -7.7523   -5.7951 C.3      1 ZINC000004216433    0.1300
22     C22     0.9753   -8.2128   -7.1446 C.3      1 ZINC000004216433   -0.1400
23     C23     0.3635   -9.5660   -7.5127 C.3      1 ZINC000004216433   -0.1000
24     C24     0.9184  -10.0265   -8.8621 C.3      1 ZINC000004216433   -0.1000
25     C25     0.3066  -11.3796   -9.2302 C.3      1 ZINC000004216433    0.0800
26     H26    -0.7806  -11.3043   -9.2101 H        1 ZINC000004216433    0.0900
27     N27     0.7450  -12.3946   -8.2629 N.3      1 ZINC000004216433   -0.8200
28     C28     0.7573  -11.7754  -10.6127 C.2      1 ZINC000004216433    0.4900
29     O29     1.6629  -12.5702  -10.7509 O.2      1 ZINC000004216433   -0.5400
30     N30     0.1540  -11.2460  -11.6954 N.am     1 ZINC000004216433   -0.5800
31     C31    -0.9496  -10.2689  -11.6723 C.3      1 ZINC000004216433    0.1000
32     C32    -1.6707  -10.4528  -13.0309 C.3      1 ZINC000004216433   -0.1300
33     C33    -0.4769  -10.7319  -13.9819 C.3      1 ZINC000004216433   -0.1100
34     C34     0.4918  -11.5427  -13.0952 C.3      1 ZINC000004216433    0.0600
35     H35     0.3637  -12.6084  -13.2845 H        1 ZINC000004216433    0.0600
36     C36     1.9139  -11.1379  -13.3867 C.2      1 ZINC000004216433    0.5000
37     O37     2.4213  -10.2118  -12.7772 O.co2    1 ZINC000004216433   -0.6800
38     O38     2.5570  -11.7366  -14.2320 O.co2    1 ZINC000004216433   -0.7000
39     H39    -3.9563    0.0869   -1.2211 H        1 ZINC000004216433    0.0900
40     H40    -4.7741   -1.4908   -1.3229 H        1 ZINC000004216433    0.0800
41     H41    -4.5964   -0.6804    0.2519 H        1 ZINC000004216433    0.0900
42     H42    -2.8400   -2.5616   -2.2529 H        1 ZINC000004216433    0.4100
43     H43    -0.3065   -4.8105   -0.1889 H        1 ZINC000004216433    0.0600
44     H44    -1.7808   -4.1017    0.5127 H        1 ZINC000004216433    0.0600
45     H45    -2.2479   -6.1029   -0.7051 H        1 ZINC000004216433    0.3800
46     H46     1.2357   -4.2449   -1.8203 H        1 ZINC000004216433    0.4000
47     H47     3.0406   -5.3161   -3.0021 H        1 ZINC000004216433    0.0700
48     H48     3.1705   -5.0764   -4.7611 H        1 ZINC000004216433    0.0800
49     H49     1.6421   -6.0332   -6.0405 H        1 ZINC000004216433    0.4000
50     H50     0.6729   -8.4856   -5.0292 H        1 ZINC000004216433    0.0600
51     H51    -0.6631   -7.6551   -5.8619 H        1 ZINC000004216433    0.0600
52     H52     0.7229   -7.4795   -7.9106 H        1 ZINC000004216433    0.0700
53     H53     2.0589   -8.3101   -7.0778 H        1 ZINC000004216433    0.0700
54     H54     0.6160  -10.2993   -6.7467 H        1 ZINC000004216433    0.0800
55     H55    -0.7201   -9.4687   -7.5794 H        1 ZINC000004216433    0.0600
56     H56     0.6659   -9.2932   -9.6281 H        1 ZINC000004216433    0.0700
57     H57     2.0020  -10.1237   -8.7953 H        1 ZINC000004216433    0.0700
58     H58     0.3036  -13.2833   -8.4462 H        1 ZINC000004216433    0.3400
59     H59     1.7501  -12.4834   -8.2625 H        1 ZINC000004216433    0.3500
60     H60    -1.6305  -10.4851  -10.8491 H        1 ZINC000004216433    0.0700
61     H61    -0.5574   -9.2556  -11.5852 H        1 ZINC000004216433    0.0700
62     H62    -2.3522  -11.3029  -12.9996 H        1 ZINC000004216433    0.0700
63     H63    -2.1965   -9.5430  -13.3206 H        1 ZINC000004216433    0.0800
64     H64    -0.7983  -11.3186  -14.8425 H        1 ZINC000004216433    0.0700
65     H65    -0.0123   -9.7992  -14.3016 H        1 ZINC000004216433    0.0700
@<TRIPOS>BOND
1     1     2     1
2     1     39    1
3     1     40    1
4     1     41    1
5     2     3     2
6     2     4     am
7     4     5     1
8     4     42    1
9     5     6     1
10    5     7     1
11    5     9     1
12    7     8     1
13    7     43    1
14    7     44    1
15    8     45    1
16    9     10    2
17    9     11    am
18    11    12    1
19    11    46    1
20    12    13    1
21    12    14    1
22    12    18    1
23    14    15    1
24    14    47    1
25    14    48    1
26    15    16    ar
27    15    17    ar
28    18    19    2
29    18    20    am
30    20    21    1
31    20    49    1
32    21    22    1
33    21    50    1
34    21    51    1
35    22    23    1
36    22    52    1
37    22    53    1
38    23    24    1
39    23    54    1
40    23    55    1
41    24    25    1
42    24    56    1
43    24    57    1
44    25    26    1
45    25    27    1
46    25    28    1
47    27    58    1
48    27    59    1
49    28    29    2
50    28    30    am
51    30    34    1
52    30    31    1
53    31    32    1
54    31    60    1
55    31    61    1
56    32    33    1
57    32    62    1
58    32    63    1
59    33    34    1
60    33    64    1
61    33    65    1
62    34    35    1
63    34    36    1
64    36    37    ar
65    36    38    ar
@<TRIPOS>SUBSTRUCTURE
1   ZINC000004216433 1     RESIDUE    1   A     ZIN   1
