@<TRIPOS>MOLECULE
ZINC000004213419
44    46    1     0     0
SMALL
USER_CHARGES
@<TRIPOS>ATOM
1      C1     -1.1430   -1.2150   -0.1620 C.3      1 ZINC000004213419   -0.2100
2      C2      0.1748   -1.6830    0.4586 C.3      1 ZINC000004213419   -0.1000
3      H3     -0.0240   -2.4792    1.1761 H        1 ZINC000004213419    0.1200
4      C4      1.0990   -2.2075   -0.6421 C.3      1 ZINC000004213419   -0.1300
5      C5      2.4169   -2.6756   -0.0216 C.3      1 ZINC000004213419   -0.1300
6      C6      3.0896   -1.5017    0.6927 C.3      1 ZINC000004213419   -0.1400
7      C7      2.1654   -0.9772    1.7935 C.3      1 ZINC000004213419   -0.1400
8      C8      0.8475   -0.5091    1.1729 C.3      1 ZINC000004213419    0.1500
9      C9     -0.0628    0.0075    2.2571 C.2      1 ZINC000004213419   -0.2600
10     C10    -1.2568   -0.5008    2.5656 C.2      1 ZINC000004213419   -0.0800
11     C11    -1.9139    0.1408    3.6013 C.2      1 ZINC000004213419   -0.1400
12     C12    -1.2535    1.1701    4.1339 C.2      1 ZINC000004213419   -0.1700
13     S13     0.2901    1.3681    3.3144 S.3      1 ZINC000004213419    0.1100
14     N14     1.1155    0.5639    0.2060 N.4      1 ZINC000004213419   -0.3700
15     H15     1.3447    0.1589   -0.6893 H        1 ZINC000004213419    0.4200
16     C16     2.2441    1.3751    0.6779 C.3      1 ZINC000004213419   -0.0300
17     C17     2.5795    2.4443   -0.3642 C.3      1 ZINC000004213419   -0.1400
18     C18     1.3575    3.3422   -0.5777 C.3      1 ZINC000004213419   -0.1400
19     C19     0.1668    2.4757   -0.9979 C.3      1 ZINC000004213419   -0.1400
20     C20    -0.0786    1.4064    0.0690 C.3      1 ZINC000004213419   -0.0500
21     H21    -0.9739   -0.2966   -0.7242 H        1 ZINC000004213419    0.0700
22     H22    -1.5234   -1.9862   -0.8317 H        1 ZINC000004213419    0.0900
23     H23    -1.8706   -1.0286    0.6279 H        1 ZINC000004213419    0.0900
24     H24     0.6198   -3.0439   -1.1510 H        1 ZINC000004213419    0.1000
25     H25     1.2978   -1.4114   -1.3596 H        1 ZINC000004213419    0.0600
26     H26     2.2181   -3.4717    0.6959 H        1 ZINC000004213419    0.0800
27     H27     3.0753   -3.0492   -0.8058 H        1 ZINC000004213419    0.0800
28     H28     4.0284   -1.8351    1.1349 H        1 ZINC000004213419    0.1000
29     H29     3.2884   -0.7055   -0.0247 H        1 ZINC000004213419    0.0600
30     H30     1.9666   -1.7733    2.5110 H        1 ZINC000004213419    0.1100
31     H31     2.6446   -0.1408    2.3024 H        1 ZINC000004213419    0.0900
32     H32    -1.6790   -1.3484    2.0464 H        1 ZINC000004213419    0.1600
33     H33    -2.8877   -0.1684    3.9514 H        1 ZINC000004213419    0.1600
34     H34    -1.6105    1.7854    4.9465 H        1 ZINC000004213419    0.1800
35     H35     1.9768    1.8564    1.6186 H        1 ZINC000004213419    0.1200
36     H36     3.1121    0.7341    0.8325 H        1 ZINC000004213419    0.1400
37     H37     3.4166    3.0466   -0.0112 H        1 ZINC000004213419    0.1100
38     H38     2.8472    1.9640   -1.3053 H        1 ZINC000004213419    0.0900
39     H39     1.1205    3.8621    0.3505 H        1 ZINC000004213419    0.0800
40     H40     1.5725    4.0703   -1.3599 H        1 ZINC000004213419    0.1000
41     H41    -0.7207    3.1005   -1.0978 H        1 ZINC000004213419    0.1100
42     H42     0.3844    1.9961   -1.9522 H        1 ZINC000004213419    0.0900
43     H43    -0.9258    0.7872   -0.2260 H        1 ZINC000004213419    0.1600
44     H44    -0.2963    1.8881    1.0222 H        1 ZINC000004213419    0.1300
@<TRIPOS>BOND
1     1     2     1
2     1     21    1
3     1     22    1
4     1     23    1
5     2     3     1
6     2     8     1
7     2     4     1
8     4     5     1
9     4     24    1
10    4     25    1
11    5     6     1
12    5     26    1
13    5     27    1
14    6     7     1
15    6     28    1
16    6     29    1
17    7     8     1
18    7     30    1
19    7     31    1
20    8     9     1
21    8     14    1
22    9     13    1
23    9     10    2
24    10    11    1
25    10    32    1
26    11    12    2
27    11    33    1
28    12    13    1
29    12    34    1
30    14    15    1
31    14    20    1
32    14    16    1
33    16    17    1
34    16    35    1
35    16    36    1
36    17    18    1
37    17    37    1
38    17    38    1
39    18    19    1
40    18    39    1
41    18    40    1
42    19    20    1
43    19    41    1
44    19    42    1
45    20    43    1
46    20    44    1
@<TRIPOS>SUBSTRUCTURE
1   ZINC000004213419 1     RESIDUE    1   A     ZIN   1
