@<TRIPOS>MOLECULE
ZINC000102930548
55    59    1     0     0
SMALL
USER_CHARGES
@<TRIPOS>ATOM
1      O1      3.9577   -1.5113    5.8679 O.3      1 ZINC000102930548   -0.5700
2      C2      3.6297   -2.6515    6.6645 C.3      1 ZINC000102930548    0.1000
3      H3      4.5215   -3.2607    6.8114 H        1 ZINC000102930548    0.0600
4      C4      3.0985   -2.1890    8.0227 C.3      1 ZINC000102930548   -0.1500
5      C5      2.7473   -3.4097    8.8755 C.3      1 ZINC000102930548   -0.1300
6      C6      1.6755   -4.2378    8.1638 C.3      1 ZINC000102930548    0.1600
7      H7      1.4253   -5.1075    8.7713 H        1 ZINC000102930548    0.1000
8      N8      0.4769   -3.4189    7.9662 N.pl3    1 ZINC000102930548   -0.6900
9      C9     -0.7634   -4.0252    7.8368 C.ar     1 ZINC000102930548    0.5800
10     N10    -0.8406   -5.3476    7.9005 N.ar     1 ZINC000102930548   -0.5500
11     C11    -2.0001   -5.9737    7.7832 C.ar     1 ZINC000102930548    0.2500
12     C12    -3.1545   -5.2158    7.5893 C.ar     1 ZINC000102930548   -0.0800
13     N13    -4.4712   -5.5106    7.4325 N.2      1 ZINC000102930548   -0.5000
14     C14    -5.1504   -4.4011    7.2811 C.2      1 ZINC000102930548    0.5400
15     N15    -6.5163   -4.3262    7.0978 N.pl3    1 ZINC000102930548   -0.6500
16     C16    -7.2970   -5.4892    7.1613 C.ar     1 ZINC000102930548    0.0700
17     C17    -7.4426   -6.2923    6.0364 C.ar     1 ZINC000102930548    0.1800
18     F18    -6.8314   -5.9536    4.8801 F        1 ZINC000102930548   -0.1100
19     C19    -8.2134   -7.4391    6.1019 C.ar     1 ZINC000102930548   -0.2000
20     C20    -8.8401   -7.7868    7.2866 C.ar     1 ZINC000102930548    0.1800
21     F21    -9.5924   -8.9074    7.3477 F        1 ZINC000102930548   -0.1200
22     C22    -8.6969   -6.9886    8.4088 C.ar     1 ZINC000102930548   -0.2000
23     C23    -7.9222   -5.8440    8.3508 C.ar     1 ZINC000102930548    0.1700
24     F24    -7.7824   -5.0658    9.4463 F        1 ZINC000102930548   -0.1100
25     N25    -4.3036   -3.3269    7.3325 N.pl3    1 ZINC000102930548   -0.4900
26     C26    -4.6823   -1.9175    7.2039 C.3      1 ZINC000102930548    0.1100
27     H27    -5.7488   -1.8274    6.9977 H        1 ZINC000102930548    0.1100
28     C28    -4.3109   -1.1373    8.4884 C.3      1 ZINC000102930548   -0.1600
29     C29    -2.9578   -0.4911    8.0960 C.3      1 ZINC000102930548    0.0400
30     O30    -3.1385   -0.1496    6.7048 O.3      1 ZINC000102930548   -0.3700
31     C31    -3.8588   -1.2369    6.0934 C.3      1 ZINC000102930548    0.0500
32     C32    -3.0317   -3.8134    7.5271 C.ar     1 ZINC000102930548    0.3300
33     N33    -1.8324   -3.2647    7.6590 N.ar     1 ZINC000102930548   -0.5700
34     C34     2.2067   -4.7003    6.8055 C.3      1 ZINC000102930548   -0.1300
35     C35     2.5579   -3.4795    5.9527 C.3      1 ZINC000102930548   -0.1100
36     H36     4.6327   -0.9396    6.2587 H        1 ZINC000102930548    0.3800
37     H37     3.8620   -1.5991    8.5297 H        1 ZINC000102930548    0.0700
38     H38     2.2067   -1.5797    7.8757 H        1 ZINC000102930548    0.0700
39     H39     3.6390   -4.0190    9.0225 H        1 ZINC000102930548    0.0800
40     H40     2.3688   -3.0802    9.8431 H        1 ZINC000102930548    0.0700
41     H41     0.5509   -2.4526    7.9260 H        1 ZINC000102930548    0.4100
42     H42    -2.0516   -7.0511    7.8362 H        1 ZINC000102930548    0.1800
43     H43    -6.9362   -3.4690    6.9251 H        1 ZINC000102930548    0.4200
44     H44    -8.3269   -8.0635    5.2280 H        1 ZINC000102930548    0.1600
45     H45    -9.1868   -7.2622    9.3316 H        1 ZINC000102930548    0.1600
46     H46    -5.0570   -0.3739    8.7092 H        1 ZINC000102930548    0.1000
47     H47    -4.1879   -1.8149    9.3333 H        1 ZINC000102930548    0.0900
48     H48    -2.7733    0.4039    8.6901 H        1 ZINC000102930548    0.0900
49     H49    -2.1430   -1.2056    8.2131 H        1 ZINC000102930548    0.0900
50     H50    -3.1567   -1.9508    5.6626 H        1 ZINC000102930548    0.0700
51     H51    -4.5222   -0.8527    5.3185 H        1 ZINC000102930548    0.1000
52     H52     3.0985   -5.3095    6.9525 H        1 ZINC000102930548    0.0700
53     H53     1.4432   -5.2902    6.2985 H        1 ZINC000102930548    0.0800
54     H54     1.6661   -2.8702    5.8058 H        1 ZINC000102930548    0.0700
55     H55     2.9364   -3.8090    4.9851 H        1 ZINC000102930548    0.0700
@<TRIPOS>BOND
1     1     2     1
2     1     36    1
3     2     3     1
4     2     35    1
5     2     4     1
6     4     5     1
7     4     37    1
8     4     38    1
9     5     6     1
10    5     39    1
11    5     40    1
12    6     7     1
13    6     8     1
14    6     34    1
15    8     9     1
16    8     41    1
17    9     33    ar
18    9     10    ar
19    10    11    ar
20    11    12    ar
21    11    42    1
22    12    32    ar
23    12    13    1
24    13    14    2
25    14    15    1
26    14    25    1
27    15    16    1
28    15    43    1
29    16    23    ar
30    16    17    ar
31    17    18    1
32    17    19    ar
33    19    20    ar
34    19    44    1
35    20    21    1
36    20    22    ar
37    22    23    ar
38    22    45    1
39    23    24    1
40    25    26    1
41    25    32    1
42    26    27    1
43    26    31    1
44    26    28    1
45    28    29    1
46    28    46    1
47    28    47    1
48    29    30    1
49    29    48    1
50    29    49    1
51    30    31    1
52    31    50    1
53    31    51    1
54    32    33    ar
55    34    35    1
56    34    52    1
57    34    53    1
58    35    54    1
59    35    55    1
@<TRIPOS>SUBSTRUCTURE
1   ZINC000102930548 1     RESIDUE    1   A     ZIN   1
