@<TRIPOS>MOLECULE
ZINC000242522171
  45   46    0    0    0
SMALL
USER_CHARGES
NO_NAME
@<TRIPOS>ATOM
    1 C1       -0.0187     1.5258     0.0104 C.3    1 <0>      -0.1500
    2 C2        0.0021    -0.0041     0.0020 C.3    1 <0>      -0.1200
    3 C3        0.7182    -0.4975    -1.2568 C.3    1 <0>      -0.1200
    4 C4        0.7390    -2.0273    -1.2652 C.3    1 <0>      -0.1300
    5 C5        1.4551    -2.5207    -2.5240 C.3    1 <0>       0.1500
    6 N6        1.4750    -3.9856    -2.5321 N.pl3  1 <0>      -0.7300
    7 C7        2.0701    -4.6598    -3.5733 C.2    1 <0>       0.6400
    8 N8        2.6166    -3.9948    -4.5531 N.2    1 <0>      -0.7900
    9 N9        2.0888    -6.0346    -3.5809 N.pl3  1 <0>      -0.6200
   10 N10       2.6948    -6.7211    -4.6412 N.2    1 <0>      -0.2400
   11 C11       2.7124    -8.0196    -4.6483 C.2    1 <0>       0.1400
   12 C12       3.3494    -8.7411    -5.7627 C.2    1 <0>      -0.1500
   13 C13       3.4404   -10.0898    -5.9110 C.2    1 <0>       0.1100
   14 N14       4.0989   -10.3818    -7.0688 N.pl3  1 <0>      -0.5800
   15 C15       4.4614    -9.2186    -7.7179 C.ar   1 <0>       0.0600
   16 C16       5.1358    -8.9645    -8.9077 C.ar   1 <0>      -0.0900
   17 C17       5.3583    -7.6659    -9.3095 C.ar   1 <0>      -0.1800
   18 C18       4.9136    -6.5988    -8.5346 C.ar   1 <0>       0.1100
   19 O19       5.1412    -5.3223    -8.9444 O.3    1 <0>      -0.3100
   20 C20       5.8416    -5.1523   -10.1784 C.3    1 <0>       0.0300
   21 C21       4.2411    -6.8323    -7.3502 C.ar   1 <0>      -0.1000
   22 C22       4.0068    -8.1425    -6.9378 C.ar   1 <0>      -0.0400
   23 H23       1.0039     1.9031     0.0027 H      1 <0>       0.0500
   24 H24      -0.5459     1.8868    -0.8726 H      1 <0>       0.0500
   25 H25      -0.5289     1.8773     0.9072 H      1 <0>       0.0500
   26 H26       0.5293    -0.3651     0.8851 H      1 <0>       0.0600
   27 H27      -1.0205    -0.3814     0.0098 H      1 <0>       0.0600
   28 H28       0.1910    -0.1364    -2.1398 H      1 <0>       0.0700
   29 H29       1.7408    -0.1202    -1.2645 H      1 <0>       0.0700
   30 H30       1.2661    -2.3884    -0.3821 H      1 <0>       0.0700
   31 H31      -0.2836    -2.4046    -1.2575 H      1 <0>       0.0700
   32 H32       0.9279    -2.1597    -3.4071 H      1 <0>       0.0700
   33 H33       2.4777    -2.1435    -2.5317 H      1 <0>       0.0700
   34 H34       1.0685    -4.4802    -1.8033 H      1 <0>       0.4000
   35 H35       3.0362    -4.4702    -5.2872 H      1 <0>       0.3500
   36 H36       1.6823    -6.5292    -2.8521 H      1 <0>       0.3700
   37 H37       2.2599    -8.5702    -3.8369 H      1 <0>       0.1200
   38 H38       3.0501   -10.8193    -5.2168 H      1 <0>       0.1800
   39 H39       4.2862   -11.2778    -7.3898 H      1 <0>       0.4200
   40 H40       5.4853    -9.7854    -9.5162 H      1 <0>       0.1300
   41 H41       5.8827    -7.4741   -10.2339 H      1 <0>       0.1300
   42 H42       5.9561    -4.0887   -10.3876 H      1 <0>       0.1000
   43 H43       6.8253    -5.6161   -10.1047 H      1 <0>       0.0500
   44 H44       5.2777    -5.6224   -10.9840 H      1 <0>       0.0500
   45 H45       3.8959    -6.0040    -6.7493 H      1 <0>       0.1400
@<TRIPOS>BOND
   1    1    2 1
   2    1   23 1
   3    1   24 1
   4    1   25 1
   5    2    3 1
   6    2   26 1
   7    2   27 1
   8    3    4 1
   9    3   28 1
  10    3   29 1
  11    4    5 1
  12    4   30 1
  13    4   31 1
  14    5    6 1
  15    5   32 1
  16    5   33 1
  17    6    7 1
  18    6   34 1
  19    7    8 2
  20    7    9 1
  21    8   35 1
  22    9   10 1
  23    9   36 1
  24   10   11 2
  25   11   12 1
  26   11   37 1
  27   12   22 1
  28   12   13 2
  29   13   14 1
  30   13   38 1
  31   14   15 1
  32   14   39 1
  33   15   22 ar
  34   15   16 ar
  35   16   17 ar
  36   16   40 1
  37   17   18 ar
  38   17   41 1
  39   18   19 1
  40   18   21 ar
  41   19   20 1
  42   20   42 1
  43   20   43 1
  44   20   44 1
  45   21   22 ar
  46   21   45 1
