@<TRIPOS>MOLECULE
ZINC000001891934
59    63    1     0     0
SMALL
USER_CHARGES
@<TRIPOS>ATOM
1      O1      0.0021   -0.0041    0.0020 O.co2    1 ZINC000001891934   -0.6900
2      C2     -0.0145    1.2187    0.0087 C.2      1 ZINC000001891934    0.5200
3      O3      1.0361    1.8445    0.0021 O.co2    1 ZINC000001891934   -0.6900
4      C4     -1.3021    1.9390    0.0188 C.ar     1 ZINC000001891934   -0.1300
5      C5     -1.3249    3.3360    0.0206 C.ar     1 ZINC000001891934   -0.0900
6      C6     -2.5323    4.0025    0.0295 C.ar     1 ZINC000001891934   -0.1300
7      C7     -3.7192    3.2911    0.0366 C.ar     1 ZINC000001891934   -0.1000
8      C8     -5.0344    4.0268    0.0458 C.3      1 ZINC000001891934   -0.0700
9      C9     -5.4889    4.2770   -1.3935 C.3      1 ZINC000001891934    0.0700
10     O10    -6.7360    4.9746   -1.3848 O.3      1 ZINC000001891934   -0.3800
11     C11    -7.2518    5.2595   -2.6867 C.3      1 ZINC000001891934    0.1000
12     C12    -8.5621    5.9928   -2.5585 C.ar     1 ZINC000001891934   -0.0700
13     C13    -9.7503    5.2683   -2.4915 C.ar     1 ZINC000001891934   -0.1000
14     C14   -10.9509    5.8997   -2.3759 C.ar     1 ZINC000001891934   -0.1000
15     C15   -10.9964    7.3028   -2.3226 C.ar     1 ZINC000001891934   -0.0800
16     C16   -12.2180    7.9884   -2.2029 C.ar     1 ZINC000001891934   -0.0600
17     C17   -12.2267    9.3473   -2.1536 C.ar     1 ZINC000001891934   -0.1900
18     C18   -11.0353   10.0768   -2.2204 C.ar     1 ZINC000001891934    0.1300
19     O19   -11.0764   11.4341   -2.1687 O.3      1 ZINC000001891934   -0.3100
20     C20   -12.3648   12.0399   -2.0466 C.3      1 ZINC000001891934    0.1100
21     C21   -12.2133   13.5387   -2.0049 C.ar     1 ZINC000001891934    0.1600
22     C22   -10.9386   14.0938   -2.0901 C.ar     1 ZINC000001891934   -0.1500
23     C23   -10.7821   15.4504   -2.0544 C.ar     1 ZINC000001891934   -0.0600
24     C24   -11.9344   16.2487   -1.9308 C.ar     1 ZINC000001891934   -0.1000
25     C25   -11.8522   17.6500   -1.8878 C.ar     1 ZINC000001891934   -0.1000
26     C26   -12.9903   18.3873   -1.7679 C.ar     1 ZINC000001891934   -0.1200
27     C27   -14.2371   17.7700   -1.6871 C.ar     1 ZINC000001891934   -0.1000
28     C28   -14.3536   16.4148   -1.7256 C.ar     1 ZINC000001891934   -0.0900
29     C29   -13.2012   15.6188   -1.8488 C.ar     1 ZINC000001891934    0.1300
30     N30   -13.2851   14.2857   -1.8947 N.ar     1 ZINC000001891934   -0.4700
31     C31    -9.8312    9.4430   -2.3364 C.ar     1 ZINC000001891934   -0.1400
32     C32    -9.7874    8.0401   -2.3903 C.ar     1 ZINC000001891934   -0.0200
33     C33    -8.5668    7.3530   -2.5043 C.ar     1 ZINC000001891934   -0.0900
34     C34    -3.7043    1.9073    0.0348 C.ar     1 ZINC000001891934   -0.1300
35     C35    -2.5045    1.2273    0.0206 C.ar     1 ZINC000001891934   -0.0900
36     H36    -0.3994    3.8925    0.0154 H        1 ZINC000001891934    0.1300
37     H37    -2.5515    5.0824    0.0313 H        1 ZINC000001891934    0.1100
38     H38    -5.7826    3.4269    0.5640 H        1 ZINC000001891934    0.0800
39     H39    -4.9137    4.9804    0.5597 H        1 ZINC000001891934    0.0800
40     H40    -4.7407    4.8768   -1.9117 H        1 ZINC000001891934    0.0500
41     H41    -5.6096    3.3234   -1.9074 H        1 ZINC000001891934    0.0500
42     H42    -6.5401    5.8797   -3.2317 H        1 ZINC000001891934    0.0600
43     H43    -7.4091    4.3263   -3.2274 H        1 ZINC000001891934    0.0600
44     H44    -9.7185    4.1895   -2.5322 H        1 ZINC000001891934    0.1300
45     H45   -11.8638    5.3248   -2.3258 H        1 ZINC000001891934    0.1300
46     H46   -13.1458    7.4381   -2.1506 H        1 ZINC000001891934    0.1300
47     H47   -13.1669    9.8707   -2.0620 H        1 ZINC000001891934    0.1300
48     H48   -12.9801   11.7606   -2.9019 H        1 ZINC000001891934    0.0900
49     H49   -12.8420   11.6973   -1.1285 H        1 ZINC000001891934    0.0900
50     H50   -10.0749   13.4523   -2.1840 H        1 ZINC000001891934    0.1500
51     H51    -9.8012   15.8979   -2.1189 H        1 ZINC000001891934    0.1400
52     H52   -10.8916   18.1398   -1.9492 H        1 ZINC000001891934    0.1300
53     H53   -12.9260   19.4649   -1.7346 H        1 ZINC000001891934    0.1300
54     H54   -15.1253   18.3770   -1.5920 H        1 ZINC000001891934    0.1300
55     H55   -15.3275   15.9525   -1.6615 H        1 ZINC000001891934    0.1400
56     H56    -8.9179   10.0173   -2.3870 H        1 ZINC000001891934    0.1400
57     H57    -7.6376    7.9013   -2.5523 H        1 ZINC000001891934    0.1300
58     H58    -4.6345    1.3585    0.0404 H        1 ZINC000001891934    0.1100
59     H59    -2.4943    0.1474    0.0192 H        1 ZINC000001891934    0.1300
@<TRIPOS>BOND
1     1     2     ar
2     2     3     ar
3     2     4     1
4     4     35    ar
5     4     5     ar
6     5     6     ar
7     5     36    1
8     6     7     ar
9     6     37    1
10    7     8     1
11    7     34    ar
12    8     9     1
13    8     38    1
14    8     39    1
15    9     10    1
16    9     40    1
17    9     41    1
18    10    11    1
19    11    12    1
20    11    42    1
21    11    43    1
22    12    33    ar
23    12    13    ar
24    13    14    ar
25    13    44    1
26    14    15    ar
27    14    45    1
28    15    32    ar
29    15    16    ar
30    16    17    ar
31    16    46    1
32    17    18    ar
33    17    47    1
34    18    19    1
35    18    31    ar
36    19    20    1
37    20    21    1
38    20    48    1
39    20    49    1
40    21    30    ar
41    21    22    ar
42    22    23    ar
43    22    50    1
44    23    24    ar
45    23    51    1
46    24    29    ar
47    24    25    ar
48    25    26    ar
49    25    52    1
50    26    27    ar
51    26    53    1
52    27    28    ar
53    27    54    1
54    28    29    ar
55    28    55    1
56    29    30    ar
57    31    32    ar
58    31    56    1
59    32    33    ar
60    33    57    1
61    34    35    ar
62    34    58    1
63    35    59    1
@<TRIPOS>SUBSTRUCTURE
1   ZINC000001891934 1     RESIDUE    1   A     ZIN   1
