@<TRIPOS>MOLECULE
ZINC000001551732
32    33    1     0     0
SMALL
USER_CHARGES
@<TRIPOS>ATOM
1      C1     -0.0184    1.5028    0.0103 C.3      1 ZINC000001551732   -0.1100
2      C2      0.0021   -0.0041    0.0020 C.ar     1 ZINC000001551732   -0.1200
3      C3      0.0058   -0.6872   -1.2001 C.ar     1 ZINC000001551732   -0.0900
4      C4      0.0249   -2.0683   -1.2113 C.ar     1 ZINC000001551732   -0.1700
5      C5      0.0405   -2.7708   -0.0132 C.ar     1 ZINC000001551732    0.1700
6      N6      0.0604   -4.1673   -0.0209 N.3      1 ZINC000001551732   -0.4900
7      C7     -1.1658   -4.7082   -0.6238 C.3      1 ZINC000001551732    0.0800
8      C8     -1.1407   -6.2362   -0.5412 C.3      1 ZINC000001551732    0.0600
9      N9      0.0516   -6.7422   -1.2356 N.3      1 ZINC000001551732   -0.6900
10     C10     1.2778   -6.2013   -0.6327 C.3      1 ZINC000001551732    0.0600
11     C11     1.2526   -4.6733   -0.7153 C.3      1 ZINC000001551732    0.0600
12     C12     0.0368   -2.0812    1.1929 C.ar     1 ZINC000001551732   -0.6300
13     S13     0.0571   -2.9674    2.7157 S.o2     1 ZINC000001551732    2.7000
14     O14     1.4547   -3.1585    3.0711 O.co2    1 ZINC000001551732   -1.0700
15     O15    -0.6462   -2.1458    3.6885 O.co2    1 ZINC000001551732   -1.0800
16     O16    -0.6226   -4.2307    2.4748 O.co2    1 ZINC000001551732   -1.0400
17     C17     0.0229   -0.7004    1.1968 C.ar     1 ZINC000001551732   -0.0300
18     H18     1.0042    1.8801    0.0026 H        1 ZINC000001551732    0.0700
19     H19    -0.5455    1.8639   -0.8728 H        1 ZINC000001551732    0.0600
20     H20    -0.5286    1.8543    0.9071 H        1 ZINC000001551732    0.0700
21     H21    -0.0067   -0.1404   -2.1313 H        1 ZINC000001551732    0.1200
22     H22     0.0274   -2.6013   -2.1506 H        1 ZINC000001551732    0.1200
23     H23    -2.0340   -4.3291   -0.0846 H        1 ZINC000001551732    0.0800
24     H24    -1.2235   -4.4013   -1.6681 H        1 ZINC000001551732    0.0300
25     H25    -1.1104   -6.5435    0.5041 H        1 ZINC000001551732    0.0600
26     H26    -2.0358   -6.6408   -1.0138 H        1 ZINC000001551732    0.0700
27     H27     0.0659   -7.7511   -1.2412 H        1 ZINC000001551732    0.3400
28     H28     1.3355   -6.5082    0.4116 H        1 ZINC000001551732    0.0500
29     H29     2.1460   -6.5804   -1.1720 H        1 ZINC000001551732    0.0800
30     H30     1.2224   -4.3660   -1.7606 H        1 ZINC000001551732    0.0400
31     H31     2.1477   -4.2688   -0.2428 H        1 ZINC000001551732    0.0800
32     H32     0.0203   -0.1637    2.1340 H        1 ZINC000001551732    0.1300
@<TRIPOS>BOND
1     1     2     1
2     1     18    1
3     1     19    1
4     1     20    1
5     2     17    ar
6     2     3     ar
7     3     4     ar
8     3     21    1
9     4     5     ar
10    4     22    1
11    5     6     1
12    5     12    ar
13    6     11    1
14    6     7     1
15    7     8     1
16    7     23    1
17    7     24    1
18    8     9     1
19    8     25    1
20    8     26    1
21    9     10    1
22    9     27    1
23    10    11    1
24    10    28    1
25    10    29    1
26    11    30    1
27    11    31    1
28    12    13    1
29    12    17    ar
30    13    14    ar
31    13    15    ar
32    13    16    ar
33    17    32    1
@<TRIPOS>SUBSTRUCTURE
1   ZINC000001551732 1     RESIDUE    1   A     ZIN   1
