@<TRIPOS>MOLECULE
ZINC000063933734
69    73    1     0     0
SMALL
USER_CHARGES
@<TRIPOS>ATOM
1      C1     -3.7500   -5.4288    7.7838 C.3      1 ZINC000063933734    0.0800
2      N2     -2.7905   -4.6421    7.0049 N.am     1 ZINC000063933734   -0.7100
3      C3     -1.9026   -5.2635    6.2037 C.2      1 ZINC000063933734    0.5700
4      O4     -1.8979   -6.4762    6.1274 O.2      1 ZINC000063933734   -0.5300
5      C5     -0.9321   -4.4678    5.4158 C.ar     1 ZINC000063933734    0.1100
6      C6     -0.0225   -5.1152    4.5868 C.ar     1 ZINC000063933734   -0.1900
7      C7      0.8832   -4.3526    3.8529 C.ar     1 ZINC000063933734    0.1600
8      O8      1.7868   -4.9457    3.0320 O.3      1 ZINC000063933734   -0.2400
9      C9      1.8471   -6.3039    3.0243 C.ar     1 ZINC000063933734    0.0900
10     C10     0.8689   -7.0374    2.3693 C.ar     1 ZINC000063933734   -0.1200
11     C11     0.9287   -8.4177    2.3605 C.ar     1 ZINC000063933734   -0.0700
12     C12     1.9673   -9.0714    3.0076 C.ar     1 ZINC000063933734    0.1400
13     N13     2.0281  -10.4725    2.9989 N.am     1 ZINC000063933734   -0.6700
14     C14     1.6082  -11.1585    1.9174 C.2      1 ZINC000063933734    0.7200
15     O15     1.1052  -10.5684    0.9807 O.2      1 ZINC000063933734   -0.5300
16     N16     1.7457  -12.4986    1.8742 N.am     1 ZINC000063933734   -0.6600
17     C17     1.3111  -13.2084    0.7552 C.2      1 ZINC000063933734    0.3200
18     C18     0.7389  -12.6804   -0.3612 C.2      1 ZINC000063933734   -0.2500
19     C19     0.4552  -13.7326   -1.2366 C.2      1 ZINC000063933734    0.1100
20     C20    -0.1830  -13.6000   -2.5953 C.3      1 ZINC000063933734    0.0100
21     C21     0.8404  -13.0439   -3.5874 C.3      1 ZINC000063933734   -0.1400
22     C22    -0.6601  -14.9737   -3.0710 C.3      1 ZINC000063933734   -0.1400
23     C23    -1.3773  -12.6477   -2.5071 C.3      1 ZINC000063933734   -0.1400
24     N24     0.8381  -14.8522   -0.6775 N.2      1 ZINC000063933734   -0.2700
25     N25     1.3869  -14.5555    0.5767 N.pl3    1 ZINC000063933734   -0.3400
26     C26     1.9118  -15.4811    1.4884 C.ar     1 ZINC000063933734    0.1600
27     C27     3.0082  -15.1272    2.2823 C.ar     1 ZINC000063933734   -0.1300
28     C28     3.5387  -16.0047    3.1749 C.ar     1 ZINC000063933734   -0.0600
29     C29     2.9848  -17.2899    3.3109 C.ar     1 ZINC000063933734    0.1200
30     N30     3.4909  -18.1678    4.1831 N.ar     1 ZINC000063933734   -0.4700
31     C31     2.9809  -19.3678    4.3168 C.ar     1 ZINC000063933734    0.1400
32     C32     1.8896  -19.7895    3.5601 C.ar     1 ZINC000063933734   -0.1700
33     C33     1.3235  -18.9428    2.6504 C.ar     1 ZINC000063933734   -0.0500
34     C34     1.8737  -17.6542    2.5097 C.ar     1 ZINC000063933734   -0.0800
35     C35     1.3404  -16.7295    1.5992 C.ar     1 ZINC000063933734   -0.0800
36     C36     2.9483   -8.3365    3.6646 C.ar     1 ZINC000063933734    0.0900
37     F37     3.9605   -8.9716    4.2947 F        1 ZINC000063933734   -0.1300
38     C38     2.8902   -6.9554    3.6671 C.ar     1 ZINC000063933734   -0.1300
39     C39     0.8384   -2.9673    3.9817 C.ar     1 ZINC000063933734   -0.1700
40     C40    -0.0960   -2.3961    4.8272 C.ar     1 ZINC000063933734    0.1400
41     N41    -0.9426   -3.1424    5.5038 N.ar     1 ZINC000063933734   -0.4800
42     H42    -3.2115   -6.0969    8.4559 H        1 ZINC000063933734    0.0600
43     H43    -4.3812   -4.7582    8.3670 H        1 ZINC000063933734    0.0800
44     H44    -4.3714   -6.0166    7.1081 H        1 ZINC000063933734    0.0600
45     H45    -2.7943   -3.6741    7.0658 H        1 ZINC000063933734    0.4100
46     H46    -0.0181   -6.1927    4.5134 H        1 ZINC000063933734    0.1500
47     H47     0.0598   -6.5291    1.8659 H        1 ZINC000063933734    0.1500
48     H48     0.1665   -8.9878    1.8502 H        1 ZINC000063933734    0.1600
49     H49     2.3725  -10.9479    3.7711 H        1 ZINC000063933734    0.4200
50     H50     2.1469  -12.9693    2.6214 H        1 ZINC000063933734    0.4100
51     H51     0.5388  -11.6340   -0.5389 H        1 ZINC000063933734    0.1800
52     H52     1.6913  -13.7223   -3.6503 H        1 ZINC000063933734    0.0600
53     H53     0.3788  -12.9480   -4.5702 H        1 ZINC000063933734    0.0700
54     H54     1.1803  -12.0652   -3.2486 H        1 ZINC000063933734    0.0600
55     H55    -1.3892  -15.3699   -2.3642 H        1 ZINC000063933734    0.0600
56     H56    -1.1217  -14.8778   -4.0537 H        1 ZINC000063933734    0.0600
57     H57     0.1908  -15.6521   -3.1338 H        1 ZINC000063933734    0.0600
58     H58    -1.0374  -11.6691   -2.1683 H        1 ZINC000063933734    0.0600
59     H59    -1.8389  -12.5519   -3.4899 H        1 ZINC000063933734    0.0700
60     H60    -2.1064  -13.0439   -1.8003 H        1 ZINC000063933734    0.0600
61     H61     3.4399  -14.1421    2.1843 H        1 ZINC000063933734    0.1300
62     H62     4.3856  -15.7148    3.7791 H        1 ZINC000063933734    0.1500
63     H63     3.4184  -20.0480    5.0325 H        1 ZINC000063933734    0.1600
64     H64     1.4921  -20.7849    3.6926 H        1 ZINC000063933734    0.1400
65     H65     0.4774  -19.2530    2.0551 H        1 ZINC000063933734    0.1400
66     H66     0.4912  -16.9958    0.9873 H        1 ZINC000063933734    0.1400
67     H67     3.6515   -6.3837    4.1769 H        1 ZINC000063933734    0.1500
68     H68     1.5259   -2.3451    3.4280 H        1 ZINC000063933734    0.1500
69     H69    -0.1340   -1.3217    4.9300 H        1 ZINC000063933734    0.1800
@<TRIPOS>BOND
1     1     2     1
2     1     42    1
3     1     43    1
4     1     44    1
5     2     3     am
6     2     45    1
7     3     4     2
8     3     5     1
9     5     41    ar
10    5     6     ar
11    6     7     ar
12    6     46    1
13    7     8     1
14    7     39    ar
15    8     9     1
16    9     38    ar
17    9     10    ar
18    10    11    ar
19    10    47    1
20    11    12    ar
21    11    48    1
22    12    13    1
23    12    36    ar
24    13    14    am
25    13    49    1
26    14    15    2
27    14    16    am
28    16    17    1
29    16    50    1
30    17    25    1
31    17    18    2
32    18    19    1
33    18    51    1
34    19    20    1
35    19    24    2
36    20    21    1
37    20    22    1
38    20    23    1
39    21    52    1
40    21    53    1
41    21    54    1
42    22    55    1
43    22    56    1
44    22    57    1
45    23    58    1
46    23    59    1
47    23    60    1
48    24    25    1
49    25    26    1
50    26    35    ar
51    26    27    ar
52    27    28    ar
53    27    61    1
54    28    29    ar
55    28    62    1
56    29    34    ar
57    29    30    ar
58    30    31    ar
59    31    32    ar
60    31    63    1
61    32    33    ar
62    32    64    1
63    33    34    ar
64    33    65    1
65    34    35    ar
66    35    66    1
67    36    37    1
68    36    38    ar
69    38    67    1
70    39    40    ar
71    39    68    1
72    40    41    ar
73    40    69    1
@<TRIPOS>SUBSTRUCTURE
1   ZINC000063933734 1     RESIDUE    1   A     ZIN   1
