@<TRIPOS>MOLECULE
ZINC000001545856
  29   28    0    0    0
SMALL
USER_CHARGES
NO_NAME
@<TRIPOS>ATOM
    1 C1       -0.0187     1.5258     0.0104 C.3    1 <0>      -0.1300
    2 C2        0.0021    -0.0041     0.0020 C.3    1 <0>      -0.0900
    3 C3        0.7421    -0.5109     1.2415 C.3    1 <0>      -0.1400
    4 C4       -1.4333    -0.5336     0.0129 C.3    1 <0>      -0.1400
    5 C5        0.7074    -0.4901    -1.2379 C.2    1 <0>       0.5200
    6 O6        1.1500     0.3085    -2.0362 O.2    1 <0>      -0.5500
    7 N7        0.8465    -1.8122    -1.4596 N.am   1 <0>      -0.7200
    8 C8        1.5322    -2.2846    -2.6649 C.3    1 <0>       0.1100
    9 C9        1.5530    -3.8145    -2.6733 C.3    1 <0>      -0.1000
   10 C10       2.2691    -4.3079    -3.9321 C.3    1 <0>      -0.1800
   11 C11       2.2895    -5.8147    -3.9404 C.2    1 <0>       0.4900
   12 O12       1.7787    -6.4364    -3.0244 O.co2  1 <0>      -0.7000
   13 O13       2.8169    -6.4122    -4.8631 O.co2  1 <0>      -0.7100
   14 H14       1.0039     1.9031     0.0027 H      1 <0>       0.0600
   15 H15      -0.5459     1.8868    -0.8726 H      1 <0>       0.0600
   16 H16      -0.5289     1.8773     0.9072 H      1 <0>       0.0600
   17 H17       0.2319    -0.1594     2.1383 H      1 <0>       0.0700
   18 H18       0.7568    -1.6008     1.2356 H      1 <0>       0.0600
   19 H19       1.7647    -0.1336     1.2338 H      1 <0>       0.0600
   20 H20      -1.9605    -0.1726    -0.8702 H      1 <0>       0.0600
   21 H21      -1.4185    -1.6235     0.0069 H      1 <0>       0.0600
   22 H22      -1.9435    -0.1821     0.9097 H      1 <0>       0.0700
   23 H23       0.4926    -2.4509    -0.8211 H      1 <0>       0.4000
   24 H24       1.0050    -1.9236    -3.5480 H      1 <0>       0.0600
   25 H25       2.5548    -1.9074    -2.6726 H      1 <0>       0.0600
   26 H26       2.0801    -4.1755    -1.7903 H      1 <0>       0.0700
   27 H27       0.5304    -4.1918    -2.6656 H      1 <0>       0.0700
   28 H28       1.7419    -3.9468    -4.8152 H      1 <0>       0.0600
   29 H29       3.2917    -3.9306    -3.9399 H      1 <0>       0.0600
@<TRIPOS>BOND
   1    1    2 1
   2    1   14 1
   3    1   15 1
   4    1   16 1
   5    2    3 1
   6    2    4 1
   7    2    5 1
   8    3   17 1
   9    3   18 1
  10    3   19 1
  11    4   20 1
  12    4   21 1
  13    4   22 1
  14    5    6 2
  15    5    7 am
  16    7    8 1
  17    7   23 1
  18    8    9 1
  19    8   24 1
  20    8   25 1
  21    9   10 1
  22    9   26 1
  23    9   27 1
  24   10   11 1
  25   10   28 1
  26   10   29 1
  27   11   12 ar
  28   11   13 ar
