@<TRIPOS>MOLECULE
ZINC000011680687
56    56    1     0     0
SMALL
USER_CHARGES
@<TRIPOS>ATOM
1      O1      0.0021   -0.0041    0.0020 O.co2    1 ZINC000011680687   -0.7000
2      C2     -0.0145    1.2150    0.0087 C.2      1 ZINC000011680687    0.4900
3      O3      1.0330    1.8389    0.0021 O.co2    1 ZINC000011680687   -0.7100
4      C4     -1.3296    1.9507    0.0190 C.3      1 ZINC000011680687   -0.1800
5      C5     -2.4790    0.9408    0.0189 C.3      1 ZINC000011680687   -0.0900
6      C6     -3.8142    1.6877    0.0293 C.3      1 ZINC000011680687   -0.1200
7      C7     -4.9635    0.6777    0.0293 C.3      1 ZINC000011680687   -0.1200
8      C8     -6.2988    1.4246    0.0397 C.3      1 ZINC000011680687   -0.1200
9      C9     -7.4481    0.4147    0.0396 C.3      1 ZINC000011680687   -0.1200
10     C10    -8.7834    1.1616    0.0500 C.3      1 ZINC000011680687   -0.1200
11     C11    -9.9327    0.1517    0.0500 C.3      1 ZINC000011680687   -0.1200
12     C12   -11.2679    0.8986    0.0604 C.3      1 ZINC000011680687   -0.1200
13     C13   -12.4173   -0.1114    0.0603 C.3      1 ZINC000011680687   -0.1200
14     C14   -13.7525    0.6356    0.0707 C.3      1 ZINC000011680687   -0.1200
15     C15   -14.9018   -0.3744    0.0707 C.3      1 ZINC000011680687   -0.1200
16     C16   -16.2371    0.3725    0.0811 C.3      1 ZINC000011680687   -0.1100
17     C17   -17.3864   -0.6374    0.0810 C.3      1 ZINC000011680687   -0.0900
18     C18   -18.7016    0.0983    0.0913 C.ar     1 ZINC000011680687   -0.0600
19     C19   -19.2962    0.4341    1.2932 C.ar     1 ZINC000011680687   -0.1100
20     C20   -20.5025    1.1089    1.3029 C.ar     1 ZINC000011680687   -0.0800
21     C21   -21.1146    1.4480    0.1101 C.ar     1 ZINC000011680687   -0.1100
22     I22   -22.9426    2.4714    0.1243 I        1 ZINC000011680687   -0.0500
23     C23   -20.5195    1.1119   -1.0922 C.ar     1 ZINC000011680687   -0.0800
24     C24   -19.3104    0.4421   -1.1013 C.ar     1 ZINC000011680687   -0.1100
25     H25    -1.3917    2.5717    0.9126 H        1 ZINC000011680687    0.0500
26     H26    -1.4001    2.5813   -0.8673 H        1 ZINC000011680687    0.0500
27     H27    -2.4169    0.3198   -0.8748 H        1 ZINC000011680687    0.0600
28     H28    -2.4085    0.3101    0.9052 H        1 ZINC000011680687    0.0600
29     H29    -3.8762    2.3086    0.9230 H        1 ZINC000011680687    0.0500
30     H30    -3.8847    2.3183   -0.8569 H        1 ZINC000011680687    0.0500
31     H31    -4.9015    0.0568   -0.8644 H        1 ZINC000011680687    0.0600
32     H32    -4.8931    0.0471    0.9155 H        1 ZINC000011680687    0.0600
33     H33    -6.3608    2.0456    0.9333 H        1 ZINC000011680687    0.0600
34     H34    -6.3692    2.0553   -0.8466 H        1 ZINC000011680687    0.0600
35     H35    -7.3861   -0.2063   -0.8540 H        1 ZINC000011680687    0.0600
36     H36    -7.3777   -0.2159    0.9259 H        1 ZINC000011680687    0.0600
37     H37    -8.8454    1.7826    0.9437 H        1 ZINC000011680687    0.0600
38     H38    -8.8538    1.7923   -0.8362 H        1 ZINC000011680687    0.0600
39     H39    -9.8707   -0.4693   -0.8437 H        1 ZINC000011680687    0.0600
40     H40    -9.8622   -0.4790    0.9362 H        1 ZINC000011680687    0.0600
41     H41   -11.3300    1.5196    0.9540 H        1 ZINC000011680687    0.0600
42     H42   -11.3384    1.5292   -0.8259 H        1 ZINC000011680687    0.0600
43     H43   -12.3552   -0.7323   -0.8333 H        1 ZINC000011680687    0.0600
44     H44   -12.3468   -0.7420    0.9466 H        1 ZINC000011680687    0.0600
45     H45   -13.8145    1.2565    0.9644 H        1 ZINC000011680687    0.0600
46     H46   -13.8230    1.2662   -0.8155 H        1 ZINC000011680687    0.0600
47     H47   -14.8398   -0.9954   -0.8230 H        1 ZINC000011680687    0.0600
48     H48   -14.8314   -1.0050    0.9569 H        1 ZINC000011680687    0.0600
49     H49   -16.2991    0.9935    0.9748 H        1 ZINC000011680687    0.0600
50     H50   -16.3075    1.0032   -0.8052 H        1 ZINC000011680687    0.0600
51     H51   -17.3244   -1.2584   -0.8126 H        1 ZINC000011680687    0.0800
52     H52   -17.3159   -1.2681    0.9673 H        1 ZINC000011680687    0.0800
53     H53   -18.8184    0.1689    2.2247 H        1 ZINC000011680687    0.1300
54     H54   -20.9672    1.3709    2.2420 H        1 ZINC000011680687    0.1300
55     H55   -20.9974    1.3763   -2.0239 H        1 ZINC000011680687    0.1300
56     H56   -18.8456    0.1796   -2.0401 H        1 ZINC000011680687    0.1300
@<TRIPOS>BOND
1     1     2     ar
2     2     3     ar
3     2     4     1
4     4     5     1
5     4     25    1
6     4     26    1
7     5     6     1
8     5     27    1
9     5     28    1
10    6     7     1
11    6     29    1
12    6     30    1
13    7     8     1
14    7     31    1
15    7     32    1
16    8     9     1
17    8     33    1
18    8     34    1
19    9     10    1
20    9     35    1
21    9     36    1
22    10    11    1
23    10    37    1
24    10    38    1
25    11    12    1
26    11    39    1
27    11    40    1
28    12    13    1
29    12    41    1
30    12    42    1
31    13    14    1
32    13    43    1
33    13    44    1
34    14    15    1
35    14    45    1
36    14    46    1
37    15    16    1
38    15    47    1
39    15    48    1
40    16    17    1
41    16    49    1
42    16    50    1
43    17    18    1
44    17    51    1
45    17    52    1
46    18    24    ar
47    18    19    ar
48    19    20    ar
49    19    53    1
50    20    21    ar
51    20    54    1
52    21    22    1
53    21    23    ar
54    23    24    ar
55    23    55    1
56    24    56    1
@<TRIPOS>SUBSTRUCTURE
1   ZINC000011680687 1     RESIDUE    1   A     ZIN   1
