@<TRIPOS>MOLECULE
ZINC000000276765
29    30    1     0     0
SMALL
USER_CHARGES
@<TRIPOS>ATOM
1      C1     -0.0187    1.5258    0.0104 C.3      1 ZINC000000276765   -0.1500
2      C2      0.0021   -0.0041    0.0020 C.3      1 ZINC000000276765    0.0500
3      O3      0.6709   -0.4649   -1.1737 O.3      1 ZINC000000276765   -0.3100
4      C4      0.7766   -1.8080   -1.3359 C.ar     1 ZINC000000276765    0.1500
5      C5      0.2397   -2.6662   -0.3813 C.ar     1 ZINC000000276765   -0.2100
6      C6      0.3440   -4.0288   -0.5416 C.ar     1 ZINC000000276765   -0.0500
7      C7      0.9916   -4.5514   -1.6677 C.ar     1 ZINC000000276765   -0.1100
8      C8      1.1055   -6.0105   -1.8444 C.2      1 ZINC000000276765   -0.0600
9      C9     -0.0088   -6.7642   -2.0326 C.2      1 ZINC000000276765   -0.1400
10     C10     0.1103   -8.2134   -2.2082 C.2      1 ZINC000000276765    0.3900
11     O11    -0.8878   -8.8875   -2.3767 O.2      1 ZINC000000276765   -0.4100
12     C12     1.4391   -8.8590   -2.1816 C.2      1 ZINC000000276765   -0.1400
13     C13     2.5445   -8.1244   -1.9965 C.2      1 ZINC000000276765   -0.1400
14     C14     2.4405   -6.6630   -1.8235 C.2      1 ZINC000000276765    0.4000
15     O15     3.4413   -5.9969   -1.6558 O.2      1 ZINC000000276765   -0.4000
16     C16     1.5303   -3.6838   -2.6256 C.ar     1 ZINC000000276765   -0.0400
17     C17     1.4164   -2.3227   -2.4592 C.ar     1 ZINC000000276765   -0.1500
18     H18     1.0039    1.9031    0.0027 H        1 ZINC000000276765    0.0700
19     H19    -0.5459    1.8868   -0.8726 H        1 ZINC000000276765    0.0700
20     H20    -0.5289    1.8773    0.9072 H        1 ZINC000000276765    0.0800
21     H21     0.5293   -0.3651    0.8851 H        1 ZINC000000276765    0.0600
22     H22    -1.0205   -0.3814    0.0098 H        1 ZINC000000276765    0.0600
23     H23    -0.2593   -2.2621    0.4871 H        1 ZINC000000276765    0.1300
24     H24    -0.0727   -4.6942    0.2001 H        1 ZINC000000276765    0.1300
25     H25    -0.9815   -6.2953   -2.0525 H        1 ZINC000000276765    0.1600
26     H26     1.5198   -9.9281   -2.3117 H        1 ZINC000000276765    0.1600
27     H27     3.5128   -8.6022   -1.9782 H        1 ZINC000000276765    0.1600
28     H28     2.0307   -4.0824   -3.4958 H        1 ZINC000000276765    0.1300
29     H29     1.8316   -1.6527   -3.1975 H        1 ZINC000000276765    0.1400
@<TRIPOS>BOND
1     1     2     1
2     1     18    1
3     1     19    1
4     1     20    1
5     2     3     1
6     2     21    1
7     2     22    1
8     3     4     1
9     4     17    ar
10    4     5     ar
11    5     6     ar
12    5     23    1
13    6     7     ar
14    6     24    1
15    7     8     1
16    7     16    ar
17    8     14    1
18    8     9     2
19    9     10    1
20    9     25    1
21    10    11    2
22    10    12    1
23    12    13    2
24    12    26    1
25    13    14    1
26    13    27    1
27    14    15    2
28    16    17    ar
29    16    28    1
30    17    29    1
@<TRIPOS>SUBSTRUCTURE
1   ZINC000000276765 1     RESIDUE    1   A     ZIN   1
