@<TRIPOS>MOLECULE
ZINC000003792990
52    54    1     0     0
SMALL
USER_CHARGES
@<TRIPOS>ATOM
1      C1      0.6439    1.6878   -0.0210 C.3      1 ZINC000003792990    0.0600
2      O2      0.4186    0.2560    0.0660 O.3      1 ZINC000003792990   -0.3700
3      C3      1.0593   -0.4050    1.0485 C.2      1 ZINC000003792990    0.6500
4      O4      1.7868    0.1981    1.8124 O.2      1 ZINC000003792990   -0.5700
5      N5      0.8938   -1.7356    1.1848 N.am     1 ZINC000003792990   -0.5900
6      C6      0.0218   -2.4790    0.2645 C.3      1 ZINC000003792990    0.1000
7      C7      0.8319   -3.6191   -0.3648 C.3      1 ZINC000003792990    0.0900
8      N8      1.5205   -4.3527    0.7064 N.am     1 ZINC000003792990   -0.6100
9      C9      1.3557   -5.6835    0.8421 C.2      1 ZINC000003792990    0.5100
10     O10     1.9976   -6.2926    1.6714 O.2      1 ZINC000003792990   -0.4700
11     C11     0.3736   -6.4146   -0.0366 C.3      1 ZINC000003792990   -0.1000
12     C12     0.3801   -7.8802    0.3140 C.ar     1 ZINC000003792990   -0.0500
13     C13     1.2505   -8.7403   -0.3288 C.ar     1 ZINC000003792990   -0.0800
14     C14     1.2575  -10.0850   -0.0081 C.ar     1 ZINC000003792990   -0.1000
15     C15     0.3933  -10.5704    0.9564 C.ar     1 ZINC000003792990   -0.0300
16     Cl16    0.4020  -12.2589    1.3599 Cl       1 ZINC000003792990   -0.0500
17     C17    -0.4788   -9.7087    1.6004 C.ar     1 ZINC000003792990   -0.0300
18     Cl18   -1.5642  -10.3164    2.8113 Cl       1 ZINC000003792990   -0.0500
19     C19    -0.4805   -8.3627    1.2823 C.ar     1 ZINC000003792990   -0.0900
20     C20     2.3925   -3.6094    1.6267 C.3      1 ZINC000003792990    0.1400
21     H21     3.2382   -3.1969    1.0764 H        1 ZINC000003792990    0.0800
22     C22     2.9016   -4.5480    2.7225 C.3      1 ZINC000003792990    0.0600
23     N23     3.8985   -5.4664    2.1564 N.3      1 ZINC000003792990   -0.4700
24     C24     5.1733   -4.7588    1.8723 C.3      1 ZINC000003792990    0.0200
25     C25     6.2097   -5.9086    1.8058 C.3      1 ZINC000003792990   -0.1200
26     C26     5.7268   -6.8738    2.9127 C.3      1 ZINC000003792990   -0.1300
27     C27     4.2379   -6.5382    3.1175 C.3      1 ZINC000003792990    0.0500
28     C28     1.5868   -2.4701    2.2525 C.3      1 ZINC000003792990    0.1200
29     H29     1.7047    1.8795   -0.1824 H        1 ZINC000003792990    0.0600
30     H30     0.0701    2.0960   -0.8530 H        1 ZINC000003792990    0.1100
31     H31     0.3259    2.1627    0.9072 H        1 ZINC000003792990    0.0600
32     H32    -0.8239   -2.8914    0.8148 H        1 ZINC000003792990    0.0800
33     H33    -0.3384   -1.8110   -0.5179 H        1 ZINC000003792990    0.1100
34     H34     0.1615   -4.2935   -0.8976 H        1 ZINC000003792990    0.1000
35     H35     1.5665   -3.2073   -1.0568 H        1 ZINC000003792990    0.0800
36     H36    -0.6258   -6.0082    0.1190 H        1 ZINC000003792990    0.1000
37     H37     0.6580   -6.2896   -1.0814 H        1 ZINC000003792990    0.1000
38     H38     1.9253   -8.3616   -1.0823 H        1 ZINC000003792990    0.1400
39     H39     1.9376  -10.7566   -0.5110 H        1 ZINC000003792990    0.1400
40     H40    -1.1601   -7.6901    1.7844 H        1 ZINC000003792990    0.1400
41     H41     3.3588   -3.9617    3.5196 H        1 ZINC000003792990    0.0300
42     H42     2.0671   -5.1214    3.1262 H        1 ZINC000003792990    0.1000
43     H43     5.1180   -4.2350    0.9180 H        1 ZINC000003792990    0.0700
44     H44     5.4173   -4.0671    2.6785 H        1 ZINC000003792990    0.0400
45     H45     6.1835   -6.3956    0.8310 H        1 ZINC000003792990    0.0700
46     H46     7.2109   -5.5386    2.0265 H        1 ZINC000003792990    0.0700
47     H47     5.8403   -7.9083    2.5886 H        1 ZINC000003792990    0.0700
48     H48     6.2835   -6.7018    3.8339 H        1 ZINC000003792990    0.0600
49     H49     4.0727   -6.1890    4.1367 H        1 ZINC000003792990    0.0300
50     H50     3.6280   -7.4200    2.9208 H        1 ZINC000003792990    0.0800
51     H51     2.2583   -1.7966    2.7850 H        1 ZINC000003792990    0.1100
52     H52     0.8510   -2.8796    2.9446 H        1 ZINC000003792990    0.0800
@<TRIPOS>BOND
1     1     2     1
2     1     29    1
3     1     30    1
4     1     31    1
5     2     3     1
6     3     4     2
7     3     5     am
8     5     28    1
9     5     6     1
10    6     7     1
11    6     32    1
12    6     33    1
13    7     8     1
14    7     34    1
15    7     35    1
16    8     9     am
17    8     20    1
18    9     10    2
19    9     11    1
20    11    12    1
21    11    36    1
22    11    37    1
23    12    19    ar
24    12    13    ar
25    13    14    ar
26    13    38    1
27    14    15    ar
28    14    39    1
29    15    16    1
30    15    17    ar
31    17    18    1
32    17    19    ar
33    19    40    1
34    20    21    1
35    20    22    1
36    20    28    1
37    22    23    1
38    22    41    1
39    22    42    1
40    23    27    1
41    23    24    1
42    24    25    1
43    24    43    1
44    24    44    1
45    25    26    1
46    25    45    1
47    25    46    1
48    26    27    1
49    26    47    1
50    26    48    1
51    27    49    1
52    27    50    1
53    28    51    1
54    28    52    1
@<TRIPOS>SUBSTRUCTURE
1   ZINC000003792990 1     RESIDUE    1   A     ZIN   1
