@<TRIPOS>MOLECULE
ZINC000015965745
47    50    1     0     0
SMALL
USER_CHARGES
@<TRIPOS>ATOM
1      C1     -0.2383    0.9419   -0.4804 C.2      1 ZINC000015965745    0.0900
2      C2      0.9991    1.4539   -0.3875 C.2      1 ZINC000015965745   -0.2100
3      C3      1.3600    2.9136   -0.2870 C.3      1 ZINC000015965745   -0.0600
4      C4      1.6790    3.4573   -1.6811 C.3      1 ZINC000015965745   -0.0100
5      N5      2.0308    4.8801   -1.5832 N.4      1 ZINC000015965745   -0.4400
6      H6      1.2544    5.3924   -1.1920 H        1 ZINC000015965745    0.4400
7      H7      2.8383    4.9868   -0.9877 H        1 ZINC000015965745    0.4400
8      C8      2.3223    5.3769   -2.8570 C.ar     1 ZINC000015965745   -0.0600
9      C9      3.6172    5.3218   -3.3392 C.ar     1 ZINC000015965745   -0.0500
10     C10     3.9087    5.8115   -4.5971 C.ar     1 ZINC000015965745   -0.1400
11     C11     2.8993    6.3600   -5.3783 C.ar     1 ZINC000015965745    0.1900
12     N12     3.1907    6.8561   -6.6518 N.pl3    1 ZINC000015965745   -0.6500
13     C13     4.2295    6.3009   -7.3943 C.ar     1 ZINC000015965745    0.2900
14     C14     4.5745    4.9573   -7.2489 C.ar     1 ZINC000015965745   -0.1900
15     C15     5.6093    4.4459   -8.0034 C.ar     1 ZINC000015965745    0.1700
16     N16     6.2692    5.2103   -8.8534 N.ar     1 ZINC000015965745   -0.4700
17     H17     6.9924    4.8234   -9.3712 H        1 ZINC000015965745    0.4600
18     C18     5.9731    6.4859   -9.0197 C.ar     1 ZINC000015965745    0.1700
19     C19     4.9484    7.0725   -8.3073 C.ar     1 ZINC000015965745   -0.1800
20     C20     1.5996    6.4137   -4.8908 C.ar     1 ZINC000015965745   -0.1200
21     C21     1.3141    5.9170   -3.6343 C.ar     1 ZINC000015965745   -0.0500
22     C22     1.9321    0.3247   -0.4017 C.ar     1 ZINC000015965745   -0.1000
23     C23     3.3220    0.2136   -0.3359 C.ar     1 ZINC000015965745   -0.0900
24     C24     3.9065   -1.0211   -0.3745 C.ar     1 ZINC000015965745   -0.1300
25     C25     3.1292   -2.1661   -0.4792 C.ar     1 ZINC000015965745   -0.0900
26     C26     1.7556   -2.0794   -0.5456 C.ar     1 ZINC000015965745   -0.1200
27     C27     1.1395   -0.8331   -0.5074 C.ar     1 ZINC000015965745    0.0900
28     N28    -0.1742   -0.4230   -0.5531 N.pl3    1 ZINC000015965745   -0.5900
29     H29    -1.1497    1.5212   -0.4916 H        1 ZINC000015965745    0.1700
30     H30     0.5213    3.4670    0.1356 H        1 ZINC000015965745    0.0900
31     H31     2.2323    3.0288    0.3563 H        1 ZINC000015965745    0.0900
32     H32     2.5177    2.9039   -2.1037 H        1 ZINC000015965745    0.1300
33     H33     0.8067    3.3421   -2.3244 H        1 ZINC000015965745    0.1300
34     H34     4.4015    4.8956   -2.7313 H        1 ZINC000015965745    0.1600
35     H35     4.9203    5.7686   -4.9730 H        1 ZINC000015965745    0.1500
36     H36     2.6692    7.5872   -7.0185 H        1 ZINC000015965745    0.4400
37     H37     4.0389    4.3264   -6.5550 H        1 ZINC000015965745    0.1800
38     H38     5.8836    3.4067   -7.8972 H        1 ZINC000015965745    0.2100
39     H39     6.5381    7.0767   -9.7254 H        1 ZINC000015965745    0.2200
40     H40     4.7112    8.1166   -8.4483 H        1 ZINC000015965745    0.1900
41     H41     0.8126    6.8398   -5.4954 H        1 ZINC000015965745    0.1600
42     H42     0.3038    5.9582   -3.2548 H        1 ZINC000015965745    0.1600
43     H43     3.9333    1.1003   -0.2550 H        1 ZINC000015965745    0.1200
44     H44     4.9819   -1.1066   -0.3236 H        1 ZINC000015965745    0.1300
45     H45     3.6057   -3.1348   -0.5094 H        1 ZINC000015965745    0.1300
46     H46     1.1594   -2.9762   -0.6273 H        1 ZINC000015965745    0.1300
47     H47    -0.9401   -1.0137   -0.6259 H        1 ZINC000015965745    0.4200
@<TRIPOS>BOND
1     1     28    1
2     1     2     2
3     1     29    1
4     2     3     1
5     2     22    1
6     3     4     1
7     3     30    1
8     3     31    1
9     4     5     1
10    4     32    1
11    4     33    1
12    5     6     1
13    5     7     1
14    5     8     1
15    8     21    ar
16    8     9     ar
17    9     10    ar
18    9     34    1
19    10    11    ar
20    10    35    1
21    11    12    1
22    11    20    ar
23    12    13    1
24    12    36    1
25    13    19    ar
26    13    14    ar
27    14    15    ar
28    14    37    1
29    15    16    ar
30    15    38    1
31    16    17    1
32    16    18    ar
33    18    19    ar
34    18    39    1
35    19    40    1
36    20    21    ar
37    20    41    1
38    21    42    1
39    22    27    ar
40    22    23    ar
41    23    24    ar
42    23    43    1
43    24    25    ar
44    24    44    1
45    25    26    ar
46    25    45    1
47    26    27    ar
48    26    46    1
49    27    28    1
50    28    47    1
@<TRIPOS>SUBSTRUCTURE
1   ZINC000015965745 1     RESIDUE    1   A     ZIN   1
