@<TRIPOS>MOLECULE
ZINC000000840834
  45   49    0    0    0
SMALL
USER_CHARGES
NO_NAME
@<TRIPOS>ATOM
    1 C1        0.9146    -0.9890     0.7355 C.3    1 <0>      -0.1700
    2 C2        0.0021    -0.0041     0.0020 C.3    1 <0>      -0.1700
    3 C3       -1.4333    -0.5336     0.0129 C.3    1 <0>       0.1800
    4 O4       -2.0722    -0.1645     1.2366 O.3    1 <0>      -0.5400
    5 C5       -2.2082     0.0516    -1.1760 C.3    1 <0>      -0.1900
    6 C6       -1.3072     0.0925    -2.3810 C.2    1 <0>       0.4900
    7 O7       -1.0549     1.1573    -2.8934 O.2    1 <0>      -0.4500
    8 O8       -0.7782    -1.0256    -2.8995 O.3    1 <0>      -0.3700
    9 C9        0.1233    -1.7864    -2.0489 C.3    1 <0>       0.1100
   10 C10      -0.6936    -2.6342    -1.1016 C.2    1 <0>      -0.2400
   11 C11      -1.4204    -2.0361    -0.1191 C.2    1 <0>       0.0500
   12 C12      -2.1620    -2.8259     0.7642 C.2    1 <0>      -0.1500
   13 C13      -2.1543    -4.1995     0.6258 C.2    1 <0>       0.2000
   14 C14      -2.8485    -5.2415     1.4187 C.ar   1 <0>       0.1700
   15 C15      -2.5185    -6.4962     0.8790 C.ar   1 <0>      -0.1600
   16 C16      -3.0255    -7.6350     1.4226 C.ar   1 <0>      -0.0200
   17 C17      -3.8863    -7.5160     2.5322 C.ar   1 <0>      -0.0900
   18 C18      -4.4495    -8.6470     3.1428 C.ar   1 <0>      -0.1000
   19 C19      -5.2777    -8.4925     4.2128 C.ar   1 <0>      -0.1000
   20 C20      -5.5737    -7.2250     4.7113 C.ar   1 <0>      -0.1000
   21 C21      -5.0451    -6.1066     4.1453 C.ar   1 <0>      -0.0900
   22 C22      -4.1855    -6.2242     3.0365 C.ar   1 <0>       0.1400
   23 N23      -3.6562    -5.1434     2.4631 N.ar   1 <0>      -0.4300
   24 C24      -1.5943    -6.2409    -0.2837 C.3    1 <0>       0.1400
   25 N25      -1.4238    -4.7846    -0.3691 N.am   1 <0>      -0.5000
   26 C26      -0.7036    -4.0322    -1.2280 C.2    1 <0>       0.5500
   27 O27      -0.0600    -4.5683    -2.1154 O.2    1 <0>      -0.5300
   28 H28       1.9372    -0.6118     0.7277 H      1 <0>       0.0700
   29 H29       0.5761    -1.1000     1.7656 H      1 <0>       0.0700
   30 H30       0.8807    -1.9571     0.2356 H      1 <0>       0.0700
   31 H31       0.0360     0.9640     0.5019 H      1 <0>       0.0900
   32 H32       0.3406     0.1069    -1.0281 H      1 <0>       0.0800
   33 H33      -2.1208     0.7902     1.3825 H      1 <0>       0.3900
   34 H34      -3.0745    -0.5744    -1.3899 H      1 <0>       0.1200
   35 H35      -2.5386     1.0617    -0.9337 H      1 <0>       0.1200
   36 H36       0.7507    -2.4298    -2.6657 H      1 <0>       0.1300
   37 H37       0.7504    -1.1019    -1.4776 H      1 <0>       0.1100
   38 H38      -2.7383    -2.3636     1.5519 H      1 <0>       0.1700
   39 H39      -2.7752    -8.6035     1.0157 H      1 <0>       0.1500
   40 H40      -4.2276    -9.6345     2.7661 H      1 <0>       0.1400
   41 H41      -5.7112    -9.3638     4.6812 H      1 <0>       0.1300
   42 H42      -6.2334    -7.1291     5.5610 H      1 <0>       0.1400
   43 H43      -5.2844    -5.1321     4.5446 H      1 <0>       0.1400
   44 H44      -0.6313    -6.7203    -0.1079 H      1 <0>       0.1200
   45 H45      -2.0384    -6.6198    -1.2042 H      1 <0>       0.1200
@<TRIPOS>BOND
   1    1    2 1
   2    1   28 1
   3    1   29 1
   4    1   30 1
   5    2    3 1
   6    2   31 1
   7    2   32 1
   8    3   11 1
   9    3    4 1
  10    3    5 1
  11    4   33 1
  12    5    6 1
  13    5   34 1
  14    5   35 1
  15    6    7 2
  16    6    8 1
  17    8    9 1
  18    9   10 1
  19    9   36 1
  20    9   37 1
  21   10   26 1
  22   10   11 2
  23   11   12 1
  24   12   13 2
  25   12   38 1
  26   13   25 1
  27   13   14 1
  28   14   23 ar
  29   14   15 ar
  30   15   16 ar
  31   15   24 1
  32   16   17 ar
  33   16   39 1
  34   17   22 ar
  35   17   18 ar
  36   18   19 ar
  37   18   40 1
  38   19   20 ar
  39   19   41 1
  40   20   21 ar
  41   20   42 1
  42   21   22 ar
  43   21   43 1
  44   22   23 ar
  45   24   25 1
  46   24   44 1
  47   24   45 1
  48   25   26 am
  49   26   27 2
