@<TRIPOS>MOLECULE
ZINC000003936852
35    37    1     0     0
SMALL
USER_CHARGES
@<TRIPOS>ATOM
1      N1     -0.0178    1.4648    0.0101 N.3      1 ZINC000003936852   -0.8500
2      C2      0.0021   -0.0041    0.0020 C.3      1 ZINC000003936852    0.1300
3      C3     -1.4117   -0.5257    0.0127 C.2      1 ZINC000003936852    0.0200
4      C4     -1.9956   -1.2221   -0.9569 C.2      1 ZINC000003936852    0.0000
5      N5     -3.2917   -1.5077   -0.5559 N.am     1 ZINC000003936852   -0.5600
6      C6     -3.4772   -0.9732    0.6672 C.2      1 ZINC000003936852    0.4600
7      S7     -4.9158   -1.0545    1.5918 S.2      1 ZINC000003936852   -0.6200
8      N8     -2.3313   -0.3690    1.0384 N.am     1 ZINC000003936852   -0.4400
9      C9     -2.1005    0.3374    2.3009 C.3      1 ZINC000003936852    0.1600
10     H10    -1.0814    0.7233    2.3245 H        1 ZINC000003936852    0.1200
11     C11    -3.0948    1.4970    2.4329 C.3      1 ZINC000003936852   -0.1400
12     C12    -2.6805    2.3533    3.6278 C.3      1 ZINC000003936852   -0.0700
13     C13    -2.4814    1.4958    4.8502 C.ar     1 ZINC000003936852   -0.1200
14     C14    -2.4780    2.1269    6.0899 C.ar     1 ZINC000003936852    0.1300
15     F15    -2.6559    3.4642    6.1616 F        1 ZINC000003936852   -0.1300
16     C16    -2.2945    1.3969    7.2484 C.ar     1 ZINC000003936852   -0.1900
17     C17    -2.1120    0.0269    7.1744 C.ar     1 ZINC000003936852    0.1300
18     F18    -1.9292   -0.6947    8.3018 F        1 ZINC000003936852   -0.1300
19     C19    -2.1179   -0.6002    5.9427 C.ar     1 ZINC000003936852   -0.1600
20     C20    -2.3058    0.1321    4.7781 C.ar     1 ZINC000003936852    0.0000
21     C21    -2.3156   -0.6189    3.4721 C.3      1 ZINC000003936852   -0.1100
22     H22     0.9191    1.8392    0.0032 H        1 ZINC000003936852    0.3500
23     H23    -0.5563    1.8234   -0.7642 H        1 ZINC000003936852    0.3500
24     H24     0.5123   -0.3556   -0.8948 H        1 ZINC000003936852    0.0600
25     H25     0.5293   -0.3651    0.8851 H        1 ZINC000003936852    0.0900
26     H26    -1.5409   -1.5137   -1.8921 H        1 ZINC000003936852    0.2000
27     H27    -3.9497   -2.0051   -1.0663 H        1 ZINC000003936852    0.4500
28     H28    -3.0777    2.1004    1.5253 H        1 ZINC000003936852    0.0800
29     H29    -4.0985    1.1035    2.5938 H        1 ZINC000003936852    0.1100
30     H30    -1.7487    2.8688    3.3947 H        1 ZINC000003936852    0.0800
31     H31    -3.4579    3.0905    3.8285 H        1 ZINC000003936852    0.0900
32     H32    -2.2939    1.8930    8.2077 H        1 ZINC000003936852    0.1500
33     H33    -1.9751   -1.6692    5.8856 H        1 ZINC000003936852    0.1400
34     H34    -3.2756   -1.1213    3.3537 H        1 ZINC000003936852    0.1300
35     H35    -1.5195   -1.3634    3.4797 H        1 ZINC000003936852    0.0800
@<TRIPOS>BOND
1     1     2     1
2     1     22    1
3     1     23    1
4     2     3     1
5     2     24    1
6     2     25    1
7     3     8     1
8     3     4     2
9     4     5     1
10    4     26    1
11    5     6     am
12    5     27    1
13    6     7     2
14    6     8     am
15    8     9     1
16    9     10    1
17    9     21    1
18    9     11    1
19    11    12    1
20    11    28    1
21    11    29    1
22    12    13    1
23    12    30    1
24    12    31    1
25    13    20    ar
26    13    14    ar
27    14    15    1
28    14    16    ar
29    16    17    ar
30    16    32    1
31    17    18    1
32    17    19    ar
33    19    20    ar
34    19    33    1
35    20    21    1
36    21    34    1
37    21    35    1
@<TRIPOS>SUBSTRUCTURE
1   ZINC000003936852 1     RESIDUE    1   A     ZIN   1
