@<TRIPOS>MOLECULE
ZINC000000007761
44    46    1     0     0
SMALL
USER_CHARGES
@<TRIPOS>ATOM
1      C1     -2.1931    0.4648    0.1344 C.3      1 ZINC000000007761   -0.1200
2      C2     -1.3960   -0.7996    0.3273 C.ar     1 ZINC000000007761   -0.0700
3      C3     -0.0301   -0.7937    0.1115 C.ar     1 ZINC000000007761   -0.1200
4      C4      0.7032   -1.9507    0.2869 C.ar     1 ZINC000000007761   -0.0700
5      C5      2.1917   -1.9434    0.0515 C.3      1 ZINC000000007761   -0.1100
6      C6      0.0674   -3.1211    0.6811 C.ar     1 ZINC000000007761    0.1200
7      N7      0.8068   -4.2939    0.8600 N.pl3    1 ZINC000000007761   -0.6600
8      C8      1.5026   -4.5012    2.0411 C.ar     1 ZINC000000007761    0.4800
9      C9      1.5159   -3.5223    3.0368 C.ar     1 ZINC000000007761   -0.3200
10     C10     2.2222   -3.7725    4.1974 C.ar     1 ZINC000000007761    0.2100
11     N11     2.8616   -4.9250    4.3313 N.ar     1 ZINC000000007761   -0.5900
12     C12     2.8317   -5.8361    3.3698 C.ar     1 ZINC000000007761    0.5900
13     N13     3.5132   -7.0292    3.5485 N.pl3    1 ZINC000000007761   -0.6400
14     C14     4.1197   -7.3088    4.7717 C.ar     1 ZINC000000007761    0.2000
15     C15     5.3034   -8.0394    4.8086 C.ar     1 ZINC000000007761   -0.1500
16     C16     5.9050   -8.3178    6.0152 C.ar     1 ZINC000000007761   -0.0500
17     C17     5.3256   -7.8652    7.2042 C.ar     1 ZINC000000007761   -0.0500
18     C18     5.9488   -8.1525    8.4610 C.1      1 ZINC000000007761    0.2600
19     N19     6.4431   -8.3805    9.4581 N.1      1 ZINC000000007761   -0.4200
20     C20     4.1365   -7.1311    7.1633 C.ar     1 ZINC000000007761   -0.0500
21     C21     3.5431   -6.8519    5.9529 C.ar     1 ZINC000000007761   -0.1200
22     N22     2.1624   -5.6372    2.2446 N.ar     1 ZINC000000007761   -0.6100
23     C23    -1.3047   -3.1234    0.8975 C.ar     1 ZINC000000007761   -0.0700
24     C24    -1.9987   -4.3907    1.3257 C.3      1 ZINC000000007761   -0.1100
25     C25    -2.0313   -1.9616    0.7252 C.ar     1 ZINC000000007761   -0.1200
26     H26    -2.2265    1.0198    1.0719 H        1 ZINC000000007761    0.0700
27     H27    -1.7219    1.0776   -0.6340 H        1 ZINC000000007761    0.0700
28     H28    -3.2073    0.2114   -0.1742 H        1 ZINC000000007761    0.0700
29     H29     0.4636    0.1166   -0.1950 H        1 ZINC000000007761    0.1300
30     H30     2.7067   -1.7293    0.9880 H        1 ZINC000000007761    0.0700
31     H31     2.5055   -2.9185   -0.3210 H        1 ZINC000000007761    0.0700
32     H32     2.4396   -1.1770   -0.6829 H        1 ZINC000000007761    0.0700
33     H33     0.8329   -4.9626    0.1578 H        1 ZINC000000007761    0.4100
34     H34     0.9863   -2.5906    2.9024 H        1 ZINC000000007761    0.1400
35     H35     2.2530   -3.0362    4.9870 H        1 ZINC000000007761    0.1700
36     H36     3.5681   -7.6698    2.8223 H        1 ZINC000000007761    0.4300
37     H37     5.7506   -8.3887    3.8897 H        1 ZINC000000007761    0.1400
38     H38     6.8234   -8.8855    6.0431 H        1 ZINC000000007761    0.1400
39     H39     3.6860   -6.7803    8.0800 H        1 ZINC000000007761    0.1300
40     H40     2.6246   -6.2848    5.9206 H        1 ZINC000000007761    0.1500
41     H41    -2.0774   -4.4124    2.4126 H        1 ZINC000000007761    0.0700
42     H42    -2.9966   -4.4240    0.8884 H        1 ZINC000000007761    0.0700
43     H43    -1.4241   -5.2523    0.9857 H        1 ZINC000000007761    0.0700
44     H44    -3.0981   -1.9627    0.8933 H        1 ZINC000000007761    0.1300
@<TRIPOS>BOND
1     1     2     1
2     1     26    1
3     1     27    1
4     1     28    1
5     2     25    ar
6     2     3     ar
7     3     4     ar
8     3     29    1
9     4     5     1
10    4     6     ar
11    5     30    1
12    5     31    1
13    5     32    1
14    6     7     1
15    6     23    ar
16    7     8     1
17    7     33    1
18    8     22    ar
19    8     9     ar
20    9     10    ar
21    9     34    1
22    10    11    ar
23    10    35    1
24    11    12    ar
25    12    13    1
26    12    22    ar
27    13    14    1
28    13    36    1
29    14    21    ar
30    14    15    ar
31    15    16    ar
32    15    37    1
33    16    17    ar
34    16    38    1
35    17    18    1
36    17    20    ar
37    18    19    3
38    20    21    ar
39    20    39    1
40    21    40    1
41    23    24    1
42    23    25    ar
43    24    41    1
44    24    42    1
45    24    43    1
46    25    44    1
@<TRIPOS>SUBSTRUCTURE
1   ZINC000000007761 1     RESIDUE    1   A     ZIN   1
