@<TRIPOS>MOLECULE
ZINC000025756875
51    53    1     0     0
SMALL
USER_CHARGES
@<TRIPOS>ATOM
1      O1      0.0021   -0.0041    0.0020 O.2      1 ZINC000025756875   -0.4800
2      C2     -0.0143    1.2041    0.0087 C.2      1 ZINC000025756875    0.4900
3      O3      1.1389    1.8910    0.0013 O.3      1 ZINC000025756875   -0.3700
4      C4      2.3672    1.1168   -0.0145 C.3      1 ZINC000025756875    0.0300
5      C5      3.5677    2.0652   -0.0209 C.3      1 ZINC000025756875    0.0000
6      N6      3.6012    2.8213    1.2381 N.4      1 ZINC000025756875   -0.3900
7      H7      2.7182    3.2909    1.3721 H        1 ZINC000025756875    0.4300
8      C8      4.6817    3.8156    1.1841 C.3      1 ZINC000025756875   -0.0400
9      C9      4.7143    4.6021    2.4968 C.3      1 ZINC000025756875    0.0400
10     O10     4.8909    3.6931    3.5869 O.3      1 ZINC000025756875   -0.3500
11     C11     3.8749    2.6896    3.6676 C.3      1 ZINC000025756875    0.0400
12     C12     3.8405    1.8995    2.3570 C.3      1 ZINC000025756875   -0.0500
13     C13    -1.3295    1.9397    0.0189 C.3      1 ZINC000025756875    0.0000
14     C14    -1.4152    2.7983    1.2545 C.ar     1 ZINC000025756875   -0.0900
15     C15    -2.4292    2.5913    2.1709 C.ar     1 ZINC000025756875   -0.1000
16     C16    -2.5078    3.3788    3.3043 C.ar     1 ZINC000025756875   -0.1100
17     C17    -1.5723    4.3730    3.5214 C.ar     1 ZINC000025756875   -0.1100
18     C18    -0.5578    4.5794    2.6054 C.ar     1 ZINC000025756875   -0.1300
19     C19    -0.4766    3.7891    1.4742 C.ar     1 ZINC000025756875   -0.1200
20     C20    -1.4284    2.8250   -1.2251 C.3      1 ZINC000025756875   -0.1100
21     C21    -1.3413    1.9533   -2.4795 C.3      1 ZINC000025756875   -0.1200
22     C22    -2.4907    0.9434   -2.4796 C.3      1 ZINC000025756875   -0.1300
23     C23    -2.3918    0.0582   -1.2356 C.3      1 ZINC000025756875   -0.1400
24     C24    -2.4788    0.9298    0.0189 C.3      1 ZINC000025756875   -0.1000
25     H25     2.4091    0.4836    0.8717 H        1 ZINC000025756875    0.1000
26     H26     2.3921    0.4932   -0.9082 H        1 ZINC000025756875    0.1200
27     H27     4.4865    1.4876   -0.1224 H        1 ZINC000025756875    0.1500
28     H28     3.4794    2.7575   -0.8582 H        1 ZINC000025756875    0.1500
29     H29     5.6357    3.3083    1.0403 H        1 ZINC000025756875    0.1400
30     H30     4.5049    4.5000    0.3544 H        1 ZINC000025756875    0.1400
31     H31     5.5422    5.3108    2.4761 H        1 ZINC000025756875    0.1400
32     H32     3.7754    5.1417    2.6213 H        1 ZINC000025756875    0.0800
33     H33     4.0953    2.0141    4.4942 H        1 ZINC000025756875    0.1400
34     H34     2.9073    3.1637    3.8321 H        1 ZINC000025756875    0.0800
35     H35     3.0394    1.1615    2.3983 H        1 ZINC000025756875    0.1400
36     H36     4.7948    1.3929    2.2128 H        1 ZINC000025756875    0.1400
37     H37    -3.1601    1.8145    2.0013 H        1 ZINC000025756875    0.1300
38     H38    -3.3004    3.2175    4.0200 H        1 ZINC000025756875    0.1300
39     H39    -1.6341    4.9887    4.4065 H        1 ZINC000025756875    0.1300
40     H40     0.1729    5.3564    2.7748 H        1 ZINC000025756875    0.1200
41     H41     0.3160    3.9503    0.7585 H        1 ZINC000025756875    0.1200
42     H42    -2.3797    3.3571   -1.2177 H        1 ZINC000025756875    0.0900
43     H43    -0.6096    3.5445   -1.2251 H        1 ZINC000025756875    0.0800
44     H44    -1.4118    2.5840   -3.3658 H        1 ZINC000025756875    0.0800
45     H45    -0.3901    1.4212   -2.4869 H        1 ZINC000025756875    0.0500
46     H46    -3.4419    1.4755   -2.4722 H        1 ZINC000025756875    0.0700
47     H47    -2.4286    0.3224   -3.3732 H        1 ZINC000025756875    0.0700
48     H48    -3.2106   -0.6613   -1.2356 H        1 ZINC000025756875    0.0700
49     H49    -1.4405   -0.4739   -1.2430 H        1 ZINC000025756875    0.0800
50     H50    -2.4084    0.2992    0.9051 H        1 ZINC000025756875    0.0800
51     H51    -3.4301    1.4619    0.0263 H        1 ZINC000025756875    0.0900
@<TRIPOS>BOND
1     1     2     2
2     2     3     1
3     2     13    1
4     3     4     1
5     4     5     1
6     4     25    1
7     4     26    1
8     5     6     1
9     5     27    1
10    5     28    1
11    6     7     1
12    6     12    1
13    6     8     1
14    8     9     1
15    8     29    1
16    8     30    1
17    9     10    1
18    9     31    1
19    9     32    1
20    10    11    1
21    11    12    1
22    11    33    1
23    11    34    1
24    12    35    1
25    12    36    1
26    13    24    1
27    13    14    1
28    13    20    1
29    14    19    ar
30    14    15    ar
31    15    16    ar
32    15    37    1
33    16    17    ar
34    16    38    1
35    17    18    ar
36    17    39    1
37    18    19    ar
38    18    40    1
39    19    41    1
40    20    21    1
41    20    42    1
42    20    43    1
43    21    22    1
44    21    44    1
45    21    45    1
46    22    23    1
47    22    46    1
48    22    47    1
49    23    24    1
50    23    48    1
51    23    49    1
52    24    50    1
53    24    51    1
@<TRIPOS>SUBSTRUCTURE
1   ZINC000025756875 1     RESIDUE    1   A     ZIN   1
