@<TRIPOS>MOLECULE
ZINC000003635554
  51   53    0    0    0
SMALL
USER_CHARGES
NO_NAME
@<TRIPOS>ATOM
    1 C1        0.5082     1.7307    -0.0969 C.3    1 <0>      -0.1800
    2 C2        0.4446     0.2020    -0.1057 C.3    1 <0>       0.0300
    3 H3        1.0732    -0.1924     0.6926 H      1 <0>       0.1500
    4 C4        0.9441    -0.3214    -1.4539 C.3    1 <0>       0.0300
    5 O5        0.1709     0.2589    -2.5062 O.3    1 <0>      -0.3200
    6 C6        0.4072    -0.1921    -3.7663 C.ar   1 <0>       0.1200
    7 C7        1.4126    -1.1200    -3.9949 C.ar   1 <0>      -0.2000
    8 C8        1.6505    -1.5773    -5.2768 C.ar   1 <0>      -0.0800
    9 C9        0.8878    -1.1105    -6.3312 C.ar   1 <0>      -0.1400
   10 C10      -0.1148    -0.1851    -6.1059 C.ar   1 <0>      -0.0800
   11 C11      -0.3606     0.2706    -4.8254 C.ar   1 <0>      -0.1000
   12 C12      -1.4537     1.2787    -4.5805 C.3    1 <0>      -0.0300
   13 C13      -0.8673     2.6669    -4.5867 C.ar   1 <0>      -0.0800
   14 C14      -0.3519     3.2048    -3.4223 C.ar   1 <0>      -0.1200
   15 C15       0.1859     4.4782    -3.4280 C.ar   1 <0>      -0.1200
   16 C16       0.2089     5.2135    -4.5983 C.ar   1 <0>      -0.1200
   17 C17      -0.3057     4.6753    -5.7630 C.ar   1 <0>      -0.1100
   18 C18      -0.8397     3.4003    -5.7582 C.ar   1 <0>      -0.1100
   19 N19      -0.9431    -0.2316     0.1042 N.4    1 <0>      -0.3800
   20 H20      -1.5242     0.1340    -0.6353 H      1 <0>       0.4300
   21 C21      -1.4221     0.2743     1.3961 C.3    1 <0>      -0.0100
   22 C22      -2.8925    -0.1057     1.5835 C.3    1 <0>      -0.1500
   23 C23      -3.0285    -1.6306     1.5485 C.3    1 <0>      -0.1400
   24 C24      -2.4577    -2.1539     0.2273 C.3    1 <0>      -0.1400
   25 C25      -1.0031    -1.6981     0.0919 C.3    1 <0>      -0.0100
   26 H26       1.5067     2.0545    -0.3906 H      1 <0>       0.1100
   27 H27      -0.2242     2.1288    -0.7992 H      1 <0>       0.0900
   28 H28       0.2874     2.0977     0.9054 H      1 <0>       0.0900
   29 H29       1.9925    -0.0522    -1.5823 H      1 <0>       0.1100
   30 H30       0.8413    -1.4062    -1.4831 H      1 <0>       0.0900
   31 H31       2.0091    -1.4845    -3.1717 H      1 <0>       0.1300
   32 H32       2.4331    -2.2998    -5.4554 H      1 <0>       0.1300
   33 H33       1.0756    -1.4689    -7.3325 H      1 <0>       0.1300
   34 H34      -0.7090     0.1783    -6.9313 H      1 <0>       0.1300
   35 H35      -2.2050     1.1981    -5.3661 H      1 <0>       0.0800
   36 H36      -1.9171     1.0844    -3.6132 H      1 <0>       0.0800
   37 H37      -0.3698     2.6303    -2.5079 H      1 <0>       0.1200
   38 H38       0.5879     4.8987    -2.5181 H      1 <0>       0.1200
   39 H39       0.6285     6.2087    -4.6026 H      1 <0>       0.1200
   40 H40      -0.2881     5.2500    -6.6773 H      1 <0>       0.1300
   41 H41      -1.2416     2.9798    -6.6681 H      1 <0>       0.1200
   42 H42      -0.8291    -0.1630     2.1994 H      1 <0>       0.1300
   43 H43      -1.3217     1.3593     1.4208 H      1 <0>       0.1300
   44 H44      -3.2457     0.2692     2.5442 H      1 <0>       0.1100
   45 H45      -3.4865     0.3313     0.7808 H      1 <0>       0.0900
   46 H46      -2.4761    -2.0651     2.3817 H      1 <0>       0.0800
   47 H47      -4.0807    -1.9046     1.6249 H      1 <0>       0.0900
   48 H48      -2.5001    -3.2431     0.2184 H      1 <0>       0.1100
   49 H49      -3.0427    -1.7595    -0.6036 H      1 <0>       0.0900
   50 H50      -0.5927    -2.0687    -0.8474 H      1 <0>       0.1300
   51 H51      -0.4200    -2.0938     0.9234 H      1 <0>       0.1300
@<TRIPOS>BOND
   1    1    2 1
   2    1   26 1
   3    1   27 1
   4    1   28 1
   5    2    3 1
   6    2    4 1
   7    2   19 1
   8    4    5 1
   9    4   29 1
  10    4   30 1
  11    5    6 1
  12    6   11 ar
  13    6    7 ar
  14    7    8 ar
  15    7   31 1
  16    8    9 ar
  17    8   32 1
  18    9   10 ar
  19    9   33 1
  20   10   11 ar
  21   10   34 1
  22   11   12 1
  23   12   13 1
  24   12   35 1
  25   12   36 1
  26   13   18 ar
  27   13   14 ar
  28   14   15 ar
  29   14   37 1
  30   15   16 ar
  31   15   38 1
  32   16   17 ar
  33   16   39 1
  34   17   18 ar
  35   17   40 1
  36   18   41 1
  37   19   20 1
  38   19   25 1
  39   19   21 1
  40   21   22 1
  41   21   42 1
  42   21   43 1
  43   22   23 1
  44   22   44 1
  45   22   45 1
  46   23   24 1
  47   23   46 1
  48   23   47 1
  49   24   25 1
  50   24   48 1
  51   24   49 1
  52   25   50 1
  53   25   51 1
