@<TRIPOS>MOLECULE
ZINC000000527385
45    48    1     0     0
SMALL
USER_CHARGES
@<TRIPOS>ATOM
1      F1     -0.0024   -0.0348   -0.1785 F        1 ZINC000000527385   -0.1300
2      C2     -0.0225    1.3153   -0.1335 C.ar     1 ZINC000000527385    0.1200
3      C3     -1.1227    2.0081   -0.6098 C.ar     1 ZINC000000527385   -0.1500
4      C4     -1.1421    3.3891   -0.5633 C.ar     1 ZINC000000527385   -0.0700
5      C5     -0.0637    4.0789   -0.0415 C.ar     1 ZINC000000527385   -0.1100
6      C6     -0.0863    5.5849    0.0092 C.3      1 ZINC000000527385   -0.0400
7      H7     -1.1154    5.9367   -0.0648 H        1 ZINC000000527385    0.1100
8      C8      0.5243    6.0621    1.3300 C.3      1 ZINC000000527385   -0.1500
9      C9      0.5710    7.5916    1.3409 C.3      1 ZINC000000527385   -0.0100
10     N10     1.3913    8.0676    0.2206 N.4      1 ZINC000000527385   -0.5100
11     H11     1.4641    9.0732    0.2618 H        1 ZINC000000527385    0.4400
12     H12     2.3130    7.6619    0.2837 H        1 ZINC000000527385    0.4200
13     C13     0.7731    7.6750   -1.0515 C.3      1 ZINC000000527385    0.0000
14     C14     0.7326    6.1488   -1.1556 C.3      1 ZINC000000527385   -0.1000
15     H15     0.2715    5.8605   -2.1002 H        1 ZINC000000527385    0.1300
16     C16     2.1572    5.5944   -1.0922 C.3      1 ZINC000000527385    0.0400
17     O17     2.9122    6.0935   -2.1980 O.3      1 ZINC000000527385   -0.3100
18     C18     4.2086    5.6938   -2.2911 C.ar     1 ZINC000000527385    0.1300
19     C19     4.7389    4.8350   -1.3404 C.ar     1 ZINC000000527385   -0.2000
20     C20     6.0569    4.4276   -1.4328 C.ar     1 ZINC000000527385   -0.0600
21     C21     6.8509    4.8758   -2.4751 C.ar     1 ZINC000000527385    0.0100
22     O22     8.1572    4.6281   -2.7885 O.3      1 ZINC000000527385   -0.3000
23     C23     8.3026    5.0195   -4.1665 C.3      1 ZINC000000527385    0.2100
24     O24     7.2932    6.0308   -4.3432 O.3      1 ZINC000000527385   -0.3000
25     C25     6.3202    5.7384   -3.4315 C.ar     1 ZINC000000527385    0.0800
26     C26     4.9983    6.1409   -3.3399 C.ar     1 ZINC000000527385   -0.1300
27     C27     1.0353    3.3883    0.4344 C.ar     1 ZINC000000527385   -0.0900
28     C28     1.0546    2.0070    0.3942 C.ar     1 ZINC000000527385   -0.1500
29     H29    -1.9651    1.4694   -1.0178 H        1 ZINC000000527385    0.1400
30     H30    -2.0000    3.9297   -0.9351 H        1 ZINC000000527385    0.1400
31     H31    -0.0867    5.7107    2.1614 H        1 ZINC000000527385    0.1200
32     H32     1.5352    5.6664    1.4276 H        1 ZINC000000527385    0.0900
33     H33    -0.4404    7.9862    1.2435 H        1 ZINC000000527385    0.1400
34     H34     1.0051    7.9347    2.2800 H        1 ZINC000000527385    0.1400
35     H35    -0.2425    8.0679   -1.0979 H        1 ZINC000000527385    0.1400
36     H36     1.3564    8.0798   -1.8786 H        1 ZINC000000527385    0.1400
37     H37     2.6277    5.9073   -0.1602 H        1 ZINC000000527385    0.0600
38     H38     2.1256    4.5057   -1.1357 H        1 ZINC000000527385    0.1000
39     H39     4.1217    4.4840   -0.5266 H        1 ZINC000000527385    0.1400
40     H40     6.4679    3.7590   -0.6908 H        1 ZINC000000527385    0.1400
41     H41     9.2950    5.4337   -4.3443 H        1 ZINC000000527385    0.1400
42     H42     8.1160    4.1726   -4.8269 H        1 ZINC000000527385    0.0900
43     H43     4.5831    6.8049   -4.0837 H        1 ZINC000000527385    0.1500
44     H44     1.8774    3.9283    0.8415 H        1 ZINC000000527385    0.1300
45     H45     1.9132    1.4677    0.7660 H        1 ZINC000000527385    0.1400
@<TRIPOS>BOND
1     1     2     1
2     2     28    ar
3     2     3     ar
4     3     4     ar
5     3     29    1
6     4     5     ar
7     4     30    1
8     5     6     1
9     5     27    ar
10    6     7     1
11    6     14    1
12    6     8     1
13    8     9     1
14    8     31    1
15    8     32    1
16    9     10    1
17    9     33    1
18    9     34    1
19    10    11    1
20    10    12    1
21    10    13    1
22    13    14    1
23    13    35    1
24    13    36    1
25    14    15    1
26    14    16    1
27    16    17    1
28    16    37    1
29    16    38    1
30    17    18    1
31    18    26    ar
32    18    19    ar
33    19    20    ar
34    19    39    1
35    20    21    ar
36    20    40    1
37    21    25    ar
38    21    22    1
39    22    23    1
40    23    24    1
41    23    41    1
42    23    42    1
43    24    25    1
44    25    26    ar
45    26    43    1
46    27    28    ar
47    27    44    1
48    28    45    1
@<TRIPOS>SUBSTRUCTURE
1   ZINC000000527385 1     RESIDUE    1   A     ZIN   1
