@<TRIPOS>MOLECULE
ZINC000003780340
52    59    1     0     0
SMALL
USER_CHARGES
@<TRIPOS>ATOM
1      C1     -0.0066    1.9999    0.2059 C.3      1 ZINC000003780340   -0.1100
2      C2     -0.1737    0.5165    0.0196 C.ar     1 ZINC000003780340   -0.0700
3      C3     -0.3342    0.0600   -1.2782 C.ar     1 ZINC000003780340   -0.1500
4      C4     -0.6187   -1.2730   -1.5403 C.ar     1 ZINC000003780340    0.1200
5      O5     -0.6437   -1.7161   -2.8178 O.3      1 ZINC000003780340   -0.4800
6      C6     -0.9307   -2.1241   -0.4680 C.ar     1 ZINC000003780340   -0.0800
7      C7     -1.4755   -3.4109   -0.6836 C.ar     1 ZINC000003780340    0.1200
8      O8     -1.5028   -3.9465   -1.9225 O.3      1 ZINC000003780340   -0.4600
9      C9     -2.0123   -4.1250    0.3893 C.ar     1 ZINC000003780340   -0.1100
10     C10    -2.6905   -5.4082    0.1809 C.2      1 ZINC000003780340    0.4100
11     O11    -2.6067   -6.0098   -0.8769 O.2      1 ZINC000003780340   -0.5600
12     C12    -3.4746   -5.9237    1.2281 C.2      1 ZINC000003780340   -0.5000
13     C13    -3.4461   -5.3501    2.4665 C.2      1 ZINC000003780340    0.3200
14     O14    -4.3088   -5.8223    3.3973 O.3      1 ZINC000003780340   -0.5900
15     C15    -2.5651   -4.2898    2.7685 C.ar     1 ZINC000003780340    0.0500
16     C16    -1.9335   -3.6063    1.7077 C.ar     1 ZINC000003780340   -0.0900
17     C17    -1.2308   -2.4016    1.9462 C.ar     1 ZINC000003780340    0.0100
18     C18    -1.0450   -1.9411    3.2610 C.ar     1 ZINC000003780340   -0.1200
19     C19    -0.2174   -0.7599    3.4895 C.ar     1 ZINC000003780340    0.0500
20     C20    -0.0642   -0.2408    4.7905 C.ar     1 ZINC000003780340   -0.1800
21     C21    -0.8451   -0.8268    5.8887 C.2      1 ZINC000003780340    0.4400
22     O22    -0.9345   -0.2605    6.9620 O.2      1 ZINC000003780340   -0.4900
23     C23    -1.4937   -2.1257    5.6679 C.ar     1 ZINC000003780340   -0.3600
24     C24    -1.6118   -2.6384    4.3537 C.ar     1 ZINC000003780340    0.0900
25     C25    -2.2803   -3.8667    4.1390 C.ar     1 ZINC000003780340   -0.1200
26     C26    -2.6286   -4.6483    5.2558 C.ar     1 ZINC000003780340    0.3400
27     O27    -3.0229   -5.9372    5.1254 O.3      1 ZINC000003780340   -0.5500
28     C28    -2.5437   -4.1203    6.5320 C.ar     1 ZINC000003780340   -0.3400
29     C29    -2.0045   -2.8587    6.7448 C.ar     1 ZINC000003780340    0.2500
30     O30    -1.9777   -2.3493    8.0000 O.3      1 ZINC000003780340   -0.4900
31     C31     0.8830    0.7602    5.0194 C.ar     1 ZINC000003780340    0.1700
32     O32     1.0238    1.3141    6.2469 O.3      1 ZINC000003780340   -0.4800
33     C33     1.7033    1.1702    3.9734 C.ar     1 ZINC000003780340   -0.1900
34     C34     1.5083    0.7038    2.6893 C.ar     1 ZINC000003780340   -0.0300
35     C35     2.5358    1.0859    1.6518 C.3      1 ZINC000003780340   -0.1200
36     C36     0.4448   -0.1418    2.3980 C.ar     1 ZINC000003780340   -0.0700
37     C37    -0.1043   -0.3962    1.0663 C.ar     1 ZINC000003780340   -0.0100
38     C38    -0.7308   -1.6548    0.8505 C.ar     1 ZINC000003780340   -0.0200
39     H39     1.0267    2.2780   -0.0015 H        1 ZINC000003780340    0.0700
40     H40    -0.6697    2.5290   -0.4785 H        1 ZINC000003780340    0.0700
41     H41    -0.2558    2.2675    1.2328 H        1 ZINC000003780340    0.0700
42     H42    -0.2330    0.7584   -2.0956 H        1 ZINC000003780340    0.1300
43     H43     0.2095   -2.0385   -3.1391 H        1 ZINC000003780340    0.3800
44     H44    -0.7158   -4.4623   -2.1455 H        1 ZINC000003780340    0.3800
45     H45    -4.1080   -6.7799    1.0521 H        1 ZINC000003780340    0.1000
46     H46    -2.8988   -4.7004    7.3713 H        1 ZINC000003780340    0.1100
47     H47    -1.1746   -2.5633    8.4943 H        1 ZINC000003780340    0.3800
48     H48     1.6639    0.8603    6.8122 H        1 ZINC000003780340    0.3900
49     H49     2.5070    1.8661    4.1665 H        1 ZINC000003780340    0.1300
50     H50     3.3690    0.3842    1.6901 H        1 ZINC000003780340    0.0700
51     H51     2.0809    1.0560    0.6617 H        1 ZINC000003780340    0.0800
52     H52     2.8995    2.0932    1.8544 H        1 ZINC000003780340    0.0600
@<TRIPOS>BOND
1     1     2     1
2     1     39    1
3     1     40    1
4     1     41    1
5     2     37    ar
6     2     3     ar
7     3     4     ar
8     3     42    1
9     4     5     1
10    4     6     ar
11    5     43    1
12    6     38    ar
13    6     7     ar
14    7     8     1
15    7     9     ar
16    8     44    1
17    9     16    ar
18    9     10    1
19    10    11    2
20    10    12    1
21    12    13    2
22    12    45    1
23    13    14    1
24    13    15    1
25    15    25    ar
26    15    16    ar
27    16    17    ar
28    17    38    ar
29    17    18    ar
30    18    24    ar
31    18    19    ar
32    19    36    ar
33    19    20    ar
34    20    21    1
35    20    31    ar
36    21    22    2
37    21    23    1
38    23    29    ar
39    23    24    ar
40    24    25    ar
41    25    26    ar
42    26    27    1
43    26    28    ar
44    28    29    ar
45    28    46    1
46    29    30    1
47    30    47    1
48    31    32    1
49    31    33    ar
50    32    48    1
51    33    34    ar
52    33    49    1
53    34    35    1
54    34    36    ar
55    35    50    1
56    35    51    1
57    35    52    1
58    36    37    ar
59    37    38    ar
@<TRIPOS>SUBSTRUCTURE
1   ZINC000003780340 1     RESIDUE    1   A     ZIN   1
