@<TRIPOS>MOLECULE
ZINC000008214714
66    68    1     0     0
SMALL
USER_CHARGES
@<TRIPOS>ATOM
1      C1     -0.3165    1.5640    0.2973 C.3      1 ZINC000008214714   -0.1600
2      C2     -0.2096    0.0406    0.2045 C.3      1 ZINC000008214714    0.0700
3      O3      0.5368   -0.4625    1.3439 O.3      1 ZINC000008214714   -0.3500
4      C4      0.7219   -1.7944    1.4136 C.2      1 ZINC000008214714    0.6500
5      O5      0.2720   -2.5165    0.5461 O.2      1 ZINC000008214714   -0.5400
6      N6      1.4061   -2.3265    2.4457 N.am     1 ZINC000008214714   -0.5300
7      C7      2.0491   -1.4989    3.3770 C.ar     1 ZINC000008214714    0.2100
8      C8      2.2177   -0.1512    3.0821 C.ar     1 ZINC000008214714   -0.1600
9      C9      2.8447    0.6813    3.9878 C.ar     1 ZINC000008214714   -0.0400
10     C10     3.3042    0.1723    5.1883 C.ar     1 ZINC000008214714   -0.2000
11     C11     3.9867    1.0810    6.1781 C.3      1 ZINC000008214714    0.5100
12     F12     4.0359    2.3802    5.6615 F        1 ZINC000008214714   -0.1800
13     F13     3.2702    1.0838    7.3797 F        1 ZINC000008214714   -0.1800
14     F14     5.2876    0.6225    6.4120 F        1 ZINC000008214714   -0.1700
15     C15     3.1388   -1.1674    5.4830 C.ar     1 ZINC000008214714   -0.0300
16     C16     2.5129   -2.0093    4.5792 C.ar     1 ZINC000008214714   -0.1300
17     C17     2.3577   -3.4661    4.9277 C.3      1 ZINC000008214714    0.1900
18     H18     3.2953   -3.9854    4.7292 H        1 ZINC000008214714    0.1100
19     N19     2.0278   -3.5907    6.3496 N.am     1 ZINC000008214714   -0.5900
20     C20     2.9135   -4.3400    7.2442 C.3      1 ZINC000008214714    0.1700
21     C21     3.9465   -3.4086    7.8242 C.ar     1 ZINC000008214714   -0.1200
22     C22     5.1471   -3.2131    7.1677 C.ar     1 ZINC000008214714   -0.0300
23     C23     6.0947   -2.3587    7.6998 C.ar     1 ZINC000008214714   -0.1800
24     C24     7.4039   -2.1460    6.9843 C.3      1 ZINC000008214714    0.5100
25     F25     7.2793   -1.0752    6.0925 F        1 ZINC000008214714   -0.1700
26     F26     8.4050   -1.8605    7.9188 F        1 ZINC000008214714   -0.1700
27     F27     7.7426   -3.3047    6.2773 F        1 ZINC000008214714   -0.1700
28     C28     5.8412   -1.6992    8.8879 C.ar     1 ZINC000008214714   -0.0100
29     C29     4.6403   -1.8943    9.5442 C.ar     1 ZINC000008214714   -0.1800
30     C30     4.3642   -1.1757   10.8397 C.3      1 ZINC000008214714    0.5100
31     F31     5.4623   -0.3751   11.1721 F        1 ZINC000008214714   -0.1700
32     F32     3.2282   -0.3721   10.6942 F        1 ZINC000008214714   -0.1700
33     F33     4.1457   -2.1126   11.8553 F        1 ZINC000008214714   -0.1700
34     C34     3.6910   -2.7454    9.0099 C.ar     1 ZINC000008214714   -0.0100
35     C35     0.9094   -3.0159    6.8347 C.2      1 ZINC000008214714    0.6500
36     O36     0.6357   -3.1192    8.0141 O.2      1 ZINC000008214714   -0.5600
37     O37     0.0954   -2.3273    6.0126 O.3      1 ZINC000008214714   -0.3600
38     C38    -1.0912   -1.7350    6.6039 C.3      1 ZINC000008214714    0.0500
39     C39     1.2438   -4.1000    4.0947 C.3      1 ZINC000008214714   -0.1500
40     C40     1.4857   -3.7836    2.6171 C.3      1 ZINC000008214714    0.1600
41     H41     2.4761   -4.1305    2.3226 H        1 ZINC000008214714    0.0900
42     C42     0.4204   -4.4694    1.7593 C.3      1 ZINC000008214714   -0.1300
43     C43     0.4402   -5.9753    2.0289 C.3      1 ZINC000008214714   -0.1600
44     H44     0.6829    1.9990    0.2977 H        1 ZINC000008214714    0.0700
45     H45    -0.8768    1.9417   -0.5581 H        1 ZINC000008214714    0.0800
46     H46    -0.8318    1.8367    1.2182 H        1 ZINC000008214714    0.0700
47     H47    -1.2090   -0.3944    0.2041 H        1 ZINC000008214714    0.0700
48     H48     0.3057   -0.2321   -0.7164 H        1 ZINC000008214714    0.0700
49     H49     1.8584    0.2450    2.1438 H        1 ZINC000008214714    0.1700
50     H50     2.9763    1.7285    3.7586 H        1 ZINC000008214714    0.1400
51     H51     3.4992   -1.5597    6.4224 H        1 ZINC000008214714    0.1300
52     H52     2.3273   -4.7801    8.0509 H        1 ZINC000008214714    0.1100
53     H53     3.4115   -5.1310    6.6835 H        1 ZINC000008214714    0.1100
54     H54     5.3450   -3.7281    6.2393 H        1 ZINC000008214714    0.1500
55     H55     6.5815   -1.0317    9.3036 H        1 ZINC000008214714    0.1500
56     H56     2.7528   -2.8978    9.5226 H        1 ZINC000008214714    0.1500
57     H57    -1.7102   -2.5194    7.0394 H        1 ZINC000008214714    0.0700
58     H58    -0.7965   -1.0307    7.3818 H        1 ZINC000008214714    0.0700
59     H59    -1.6575   -1.2105    5.8343 H        1 ZINC000008214714    0.1000
60     H60     1.2465   -5.1799    4.2428 H        1 ZINC000008214714    0.1000
61     H61     0.2811   -3.6901    4.4001 H        1 ZINC000008214714    0.1000
62     H62    -0.5616   -4.0682    2.0101 H        1 ZINC000008214714    0.0700
63     H63     0.6294   -4.2862    0.7053 H        1 ZINC000008214714    0.1100
64     H64     1.4469   -6.3603    1.8661 H        1 ZINC000008214714    0.0600
65     H65     0.1414   -6.1637    3.0601 H        1 ZINC000008214714    0.0500
66     H66    -0.2535   -6.4746    1.3525 H        1 ZINC000008214714    0.0600
@<TRIPOS>BOND
1     1     2     1
2     1     44    1
3     1     45    1
4     1     46    1
5     2     3     1
6     2     47    1
7     2     48    1
8     3     4     1
9     4     5     2
10    4     6     am
11    6     40    1
12    6     7     1
13    7     16    ar
14    7     8     ar
15    8     9     ar
16    8     49    1
17    9     10    ar
18    9     50    1
19    10    11    1
20    10    15    ar
21    11    12    1
22    11    13    1
23    11    14    1
24    15    16    ar
25    15    51    1
26    16    17    1
27    17    18    1
28    17    19    1
29    17    39    1
30    19    20    1
31    19    35    am
32    20    21    1
33    20    52    1
34    20    53    1
35    21    34    ar
36    21    22    ar
37    22    23    ar
38    22    54    1
39    23    24    1
40    23    28    ar
41    24    25    1
42    24    26    1
43    24    27    1
44    28    29    ar
45    28    55    1
46    29    30    1
47    29    34    ar
48    30    31    1
49    30    32    1
50    30    33    1
51    34    56    1
52    35    36    2
53    35    37    1
54    37    38    1
55    38    57    1
56    38    58    1
57    38    59    1
58    39    40    1
59    39    60    1
60    39    61    1
61    40    41    1
62    40    42    1
63    42    43    1
64    42    62    1
65    42    63    1
66    43    64    1
67    43    65    1
68    43    66    1
@<TRIPOS>SUBSTRUCTURE
1   ZINC000008214714 1     RESIDUE    1   A     ZIN   1
