@<TRIPOS>MOLECULE
ZINC000013474734
36    36    1     0     0
SMALL
USER_CHARGES
@<TRIPOS>ATOM
1      C1     -0.0068    1.2771   -0.1436 C.3      1 ZINC000013474734   -0.1500
2      C2     -0.0023   -0.2507   -0.0614 C.3      1 ZINC000013474734   -0.0900
3      C3      0.7035   -0.8255   -1.2912 C.3      1 ZINC000013474734   -0.1400
4      C4      0.7261   -0.6847    1.1844 C.ar     1 ZINC000013474734    0.0400
5      C5      2.0506   -0.3299    1.3667 C.ar     1 ZINC000013474734   -0.1500
6      C6      2.7231   -0.7242    2.5054 C.ar     1 ZINC000013474734    0.0000
7      C7      2.0643   -1.4816    3.4737 C.ar     1 ZINC000013474734   -0.1600
8      C8      2.7801   -1.9077    4.6984 C.2      1 ZINC000013474734    0.5500
9      O9      2.2024   -2.5692    5.5425 O.2      1 ZINC000013474734   -0.5300
10     N10     4.0628   -1.5657    4.8778 N.2      1 ZINC000013474734   -0.7000
11     C11     4.9646   -2.4967    5.1504 C.2      1 ZINC000013474734    0.7000
12     N12     4.6124   -3.8138    5.1297 N.pl3    1 ZINC000013474734   -0.8600
13     N13     6.2451   -2.1380    5.4517 N.pl3    1 ZINC000013474734   -0.8200
14     C14     0.7284   -1.8359    3.2842 C.ar     1 ZINC000013474734    0.0300
15     C15     0.0656   -1.4315    2.1439 C.ar     1 ZINC000013474734   -0.6700
16     S16    -1.6218   -1.8779    1.9027 S.o2     1 ZINC000013474734    2.5000
17     C17    -2.5159   -0.2998    1.9304 C.3      1 ZINC000013474734   -0.6600
18     O18    -1.6515   -2.4451    0.6001 O.2      1 ZINC000013474734   -0.9300
19     O19    -1.9458   -2.6548    3.0475 O.2      1 ZINC000013474734   -0.9300
20     H20     1.0197    1.6422   -0.1771 H        1 ZINC000013474734    0.0700
21     H21    -0.5337    1.5910   -1.0447 H        1 ZINC000013474734    0.0700
22     H22    -0.5097    1.6866    0.7326 H        1 ZINC000013474734    0.0600
23     H23    -1.0288   -0.6158   -0.0279 H        1 ZINC000013474734    0.0900
24     H24     1.7300   -0.4604   -1.3247 H        1 ZINC000013474734    0.0600
25     H25     0.7067   -1.9139   -1.2327 H        1 ZINC000013474734    0.0700
26     H26     0.1766   -0.5116   -2.1923 H        1 ZINC000013474734    0.0700
27     H27     2.5596    0.2567    0.6162 H        1 ZINC000013474734    0.1400
28     H28     3.7574   -0.4472    2.6464 H        1 ZINC000013474734    0.1400
29     H29     3.7238   -4.0738    4.8403 H        1 ZINC000013474734    0.4200
30     H30     5.2504   -4.4908    5.4043 H        1 ZINC000013474734    0.4000
31     H31     6.4957   -1.2010    5.4664 H        1 ZINC000013474734    0.4300
32     H32     6.9056   -2.8198    5.6514 H        1 ZINC000013474734    0.4100
33     H33     0.2130   -2.4223    4.0305 H        1 ZINC000013474734    0.1600
34     H34    -2.1462    0.3413    1.1301 H        1 ZINC000013474734    0.1300
35     H35    -3.5807   -0.4830    1.7866 H        1 ZINC000013474734    0.1400
36     H36    -2.3580    0.1904    2.8910 H        1 ZINC000013474734    0.1400
@<TRIPOS>BOND
1     1     2     1
2     1     20    1
3     1     21    1
4     1     22    1
5     2     3     1
6     2     4     1
7     2     23    1
8     3     24    1
9     3     25    1
10    3     26    1
11    4     15    ar
12    4     5     ar
13    5     6     ar
14    5     27    1
15    6     7     ar
16    6     28    1
17    7     8     1
18    7     14    ar
19    8     9     2
20    8     10    1
21    10    11    2
22    11    12    1
23    11    13    1
24    12    29    1
25    12    30    1
26    13    31    1
27    13    32    1
28    14    15    ar
29    14    33    1
30    15    16    1
31    16    17    1
32    16    18    2
33    16    19    2
34    17    34    1
35    17    35    1
36    17    36    1
@<TRIPOS>SUBSTRUCTURE
1   ZINC000013474734 1     RESIDUE    1   A     ZIN   1
