@<TRIPOS>MOLECULE
ZINC000000388739
  29   29    0    0    0
SMALL
USER_CHARGES
NO_NAME
@<TRIPOS>ATOM
    1 C1       -0.0173     1.4248     0.0099 C.3    1 <0>       0.0200
    2 O2        0.0021    -0.0041     0.0020 O.3    1 <0>      -0.3000
    3 C3        0.6062    -0.6075    -1.0564 C.ar   1 <0>       0.1200
    4 C4        1.1727     0.1587    -2.0618 C.ar   1 <0>      -0.1700
    5 C5        1.7870    -0.4565    -3.1372 C.ar   1 <0>      -0.1000
    6 C6        1.8372    -1.8356    -3.2121 C.ar   1 <0>      -0.1100
    7 C7        2.5075    -2.5009    -4.3865 C.3    1 <0>      -0.1000
    8 C8        3.9888    -2.7191    -4.0718 C.3    1 <0>      -0.0100
    9 N9        4.6422    -3.3676    -5.2166 N.4    1 <0>      -0.6400
   10 H10       4.2017    -4.2575    -5.3955 H      1 <0>       0.4400
   11 H11       4.5546    -2.7791    -6.0316 H      1 <0>       0.4400
   12 H12       5.6191    -3.5115    -5.0091 H      1 <0>       0.4400
   13 C13       1.2740    -2.6064    -2.2116 C.ar   1 <0>      -0.1700
   14 C14       0.6617    -1.9965    -1.1290 C.ar   1 <0>       0.1100
   15 O15       0.1074    -2.7530    -0.1443 O.3    1 <0>      -0.3000
   16 C16       0.1928    -4.1720    -0.2904 C.3    1 <0>       0.0300
   17 H17       1.0053     1.8021     0.0021 H      1 <0>       0.0600
   18 H18      -0.5445     1.7859    -0.8732 H      1 <0>       0.0600
   19 H19      -0.5275     1.7763     0.9067 H      1 <0>       0.1100
   20 H20       1.1343     1.2366    -2.0060 H      1 <0>       0.1400
   21 H21       2.2283     0.1421    -3.9204 H      1 <0>       0.1300
   22 H22       2.0316    -3.4623    -4.5797 H      1 <0>       0.0900
   23 H23       2.4129    -1.8651    -5.2669 H      1 <0>       0.1000
   24 H24       4.4646    -1.7577    -3.8786 H      1 <0>       0.1400
   25 H25       4.0834    -3.3548    -3.1915 H      1 <0>       0.1300
   26 H26       1.3146    -3.6839    -2.2726 H      1 <0>       0.1400
   27 H27      -0.3098    -4.4735    -1.2094 H      1 <0>       0.0600
   28 H28       1.2403    -4.4703    -0.3345 H      1 <0>       0.0500
   29 H29      -0.2869    -4.6545     0.5611 H      1 <0>       0.1100
@<TRIPOS>BOND
   1    1    2 1
   2    1   17 1
   3    1   18 1
   4    1   19 1
   5    2    3 1
   6    3   14 ar
   7    3    4 ar
   8    4    5 ar
   9    4   20 1
  10    5    6 ar
  11    5   21 1
  12    6    7 1
  13    6   13 ar
  14    7    8 1
  15    7   22 1
  16    7   23 1
  17    8    9 1
  18    8   24 1
  19    8   25 1
  20    9   10 1
  21    9   11 1
  22    9   12 1
  23   13   14 ar
  24   13   26 1
  25   14   15 1
  26   15   16 1
  27   16   27 1
  28   16   28 1
  29   16   29 1
