@<TRIPOS>MOLECULE
ZINC000003966198
46    45    1     0     0
SMALL
USER_CHARGES
@<TRIPOS>ATOM
1      C1      0.1103    1.0784    0.0516 C.3      1 ZINC000003966198   -0.1400
2      C2     -0.0031   -0.4432   -0.0616 C.3      1 ZINC000003966198    0.0700
3      H3     -1.0547   -0.7301   -0.0635 H        1 ZINC000003966198    0.0600
4      N4      0.6736   -1.0710    1.0811 N.3      1 ZINC000003966198   -0.8300
5      C5      0.6449   -0.9013   -1.3427 C.2      1 ZINC000003966198    0.5100
6      O6      1.5785   -1.6747   -1.3073 O.2      1 ZINC000003966198   -0.5200
7      N7      0.1869   -0.4517   -2.5279 N.am     1 ZINC000003966198   -0.7000
8      C8      0.8168   -0.8970   -3.7733 C.3      1 ZINC000003966198    0.1300
9      H9      1.8873   -1.0256   -3.6133 H        1 ZINC000003966198    0.1100
10     C10     0.2025   -2.2293   -4.2075 C.3      1 ZINC000003966198   -0.0900
11     C11     0.5399   -3.3070   -3.1753 C.3      1 ZINC000003966198   -0.1600
12     C12    -0.0652   -4.6193   -3.6031 C.2      1 ZINC000003966198    0.4900
13     O13    -0.7069   -4.6862   -4.6376 O.co2    1 ZINC000003966198   -0.7000
14     O14     0.0870   -5.6139   -2.9146 O.co2    1 ZINC000003966198   -0.7200
15     C15     0.5899    0.1348   -4.8479 C.2      1 ZINC000003966198    0.5300
16     O16    -0.0364    1.1429   -4.5981 O.2      1 ZINC000003966198   -0.5600
17     N17     1.0829   -0.0627   -6.0867 N.am     1 ZINC000003966198   -0.6700
18     C18     0.7720    0.8863   -7.1586 C.3      1 ZINC000003966198    0.1600
19     H19     0.7735    1.9001   -6.7582 H        1 ZINC000003966198    0.1100
20     C20     1.8258    0.7723   -8.2620 C.3      1 ZINC000003966198   -0.1900
21     C21     3.1625    1.2184   -7.7281 C.2      1 ZINC000003966198    0.5000
22     O22     3.2449    1.6877   -6.6058 O.co2    1 ZINC000003966198   -0.6800
23     O23     4.1617    1.1101   -8.4184 O.co2    1 ZINC000003966198   -0.7100
24     C24    -0.5876    0.5731   -7.7282 C.2      1 ZINC000003966198    0.4900
25     O25    -1.2334   -0.3517   -7.2825 O.2      1 ZINC000003966198   -0.5500
26     N26    -1.0859    1.3207   -8.7328 N.am     1 ZINC000003966198   -0.7100
27     C27    -2.4076    1.0162   -9.2864 C.3      1 ZINC000003966198    0.0600
28     C28    -2.7274    1.9924  -10.3891 C.2      1 ZINC000003966198    0.4900
29     O29    -1.9255    2.8618  -10.6851 O.co2    1 ZINC000003966198   -0.6900
30     O30    -3.7879    1.9127  -10.9853 O.co2    1 ZINC000003966198   -0.7000
31     H31     1.1619    1.3652    0.0535 H        1 ZINC000003966198    0.0700
32     H32    -0.3918    1.5442   -0.7964 H        1 ZINC000003966198    0.0700
33     H33    -0.3584    1.4097    0.9782 H        1 ZINC000003966198    0.0600
34     H34     0.2572   -0.7795    1.9527 H        1 ZINC000003966198    0.3400
35     H35     0.6688   -2.0764    0.9965 H        1 ZINC000003966198    0.3500
36     H36    -0.5598    0.1668   -2.5562 H        1 ZINC000003966198    0.4000
37     H37    -0.8798   -2.1233   -4.2816 H        1 ZINC000003966198    0.0700
38     H38     0.6067   -2.5165   -5.1782 H        1 ZINC000003966198    0.0800
39     H39     1.6222   -3.4130   -3.1013 H        1 ZINC000003966198    0.0600
40     H40     0.1357   -3.0198   -2.2047 H        1 ZINC000003966198    0.0500
41     H41     1.6435   -0.8331   -6.2684 H        1 ZINC000003966198    0.4000
42     H42     1.8943   -0.2638   -8.5934 H        1 ZINC000003966198    0.0700
43     H43     1.5411    1.4046   -9.1030 H        1 ZINC000003966198    0.0800
44     H44    -0.5694    2.0604   -9.0892 H        1 ZINC000003966198    0.4100
45     H45    -2.4091    0.0025   -9.6869 H        1 ZINC000003966198    0.0600
46     H46    -3.1584    1.0974   -8.5003 H        1 ZINC000003966198    0.0600
@<TRIPOS>BOND
1     1     2     1
2     1     31    1
3     1     32    1
4     1     33    1
5     2     3     1
6     2     4     1
7     2     5     1
8     4     34    1
9     4     35    1
10    5     6     2
11    5     7     am
12    7     8     1
13    7     36    1
14    8     9     1
15    8     10    1
16    8     15    1
17    10    11    1
18    10    37    1
19    10    38    1
20    11    12    1
21    11    39    1
22    11    40    1
23    12    13    ar
24    12    14    ar
25    15    16    2
26    15    17    am
27    17    18    1
28    17    41    1
29    18    19    1
30    18    20    1
31    18    24    1
32    20    21    1
33    20    42    1
34    20    43    1
35    21    22    ar
36    21    23    ar
37    24    25    2
38    24    26    am
39    26    27    1
40    26    44    1
41    27    28    1
42    27    45    1
43    27    46    1
44    28    29    ar
45    28    30    ar
@<TRIPOS>SUBSTRUCTURE
1   ZINC000003966198 1     RESIDUE    1   A     ZIN   1
