@<TRIPOS>MOLECULE
ZINC000018182079
  52   56    0    0    0
SMALL
USER_CHARGES
NO_NAME
@<TRIPOS>ATOM
    1 O1        0.0021    -0.0041     0.0020 O.2    1 <0>      -0.5300
    2 C2       -0.0144     1.2086     0.0087 C.2    1 <0>       0.5200
    3 N3        1.1435     1.8983     0.0013 N.am   1 <0>      -0.7300
    4 C4        2.4220     1.1832    -0.0147 C.3    1 <0>       0.1600
    5 C5        3.5540     2.1779    -0.0202 C.ar   1 <0>      -0.0700
    6 C6        4.0720     2.6572    -1.2137 C.ar   1 <0>      -0.1600
    7 C7        5.1102     3.5687    -1.1795 C.ar   1 <0>       0.1000
    8 N8        5.6075     3.9818    -0.0301 N.ar   1 <0>      -0.4800
    9 C9        5.1399     3.5476     1.1239 C.ar   1 <0>       0.1000
   10 C10       4.0985     2.6400     1.1683 C.ar   1 <0>      -0.1600
   11 C11      -1.3296     1.9443     0.0189 C.3    1 <0>      -0.0700
   12 C12      -2.4789     0.9344     0.0189 C.3    1 <0>      -0.0900
   13 C13      -3.8141     1.6813     0.0293 C.3    1 <0>      -0.0900
   14 H14      -4.6329     0.9618     0.0292 H      1 <0>       0.0800
   15 C15      -3.9130     2.5665    -1.2147 C.3    1 <0>      -0.1100
   16 C16      -2.7637     3.5764    -1.2147 C.3    1 <0>      -0.0800
   17 H17      -2.8342     4.2071    -2.1009 H      1 <0>       0.0800
   18 C18      -1.4285     2.8295    -1.2251 C.3    1 <0>      -0.1000
   19 C19      -2.8508     4.4481     0.0397 C.3    1 <0>      -0.1000
   20 C20      -2.7519     3.5628     1.2837 C.3    1 <0>      -0.0100
   21 C21      -2.8376     4.4214     2.5193 C.ar   1 <0>      -0.0600
   22 C22      -1.7903     4.4405     3.4214 C.ar   1 <0>      -0.1100
   23 C23      -1.8683     5.2277     4.5548 C.ar   1 <0>      -0.1100
   24 C24      -2.9949     5.9966     4.7864 C.ar   1 <0>      -0.0400
   25 Cl25     -3.0934     6.9861     6.2094 Cl     1 <0>      -0.0700
   26 C26      -4.0428     5.9771     3.8832 C.ar   1 <0>      -0.1100
   27 C27      -3.9612     5.1938     2.7473 C.ar   1 <0>      -0.1000
   28 C28      -3.9012     2.5529     1.2837 C.3    1 <0>      -0.1000
   29 C29      -1.4166     2.8159     1.2733 C.3    1 <0>      -0.1000
   30 H30       1.1304     2.8682     0.0067 H      1 <0>       0.4000
   31 H31       2.4967     0.5526     0.8712 H      1 <0>       0.0800
   32 H32       2.4797     0.5621    -0.9086 H      1 <0>       0.0800
   33 H33       3.6694     2.3221    -2.1582 H      1 <0>       0.1400
   34 H34       5.5192     3.9468    -2.1047 H      1 <0>       0.1600
   35 H35       5.5730     3.9085     2.0451 H      1 <0>       0.1600
   36 H36       3.7196     2.2884     2.1165 H      1 <0>       0.1400
   37 H37      -2.4169     0.3134    -0.8748 H      1 <0>       0.0700
   38 H38      -2.4084     0.3037     0.9051 H      1 <0>       0.0700
   39 H39      -3.8510     1.9455    -2.1084 H      1 <0>       0.0700
   40 H40      -4.8643     3.0986    -1.2073 H      1 <0>       0.0700
   41 H41      -0.6097     3.5490    -1.2250 H      1 <0>       0.0700
   42 H42      -1.3664     2.2085    -2.1187 H      1 <0>       0.0700
   43 H43      -2.0320     5.1676     0.0398 H      1 <0>       0.0700
   44 H44      -3.8020     4.9802     0.0472 H      1 <0>       0.0700
   45 H45      -0.9110     3.8399     3.2407 H      1 <0>       0.1300
   46 H46      -1.0502     5.2423     5.2596 H      1 <0>       0.1300
   47 H47      -4.9226     6.5769     4.0636 H      1 <0>       0.1300
   48 H48      -4.7789     5.1787     2.0420 H      1 <0>       0.1300
   49 H49      -4.8524     3.0850     1.2911 H      1 <0>       0.0700
   50 H50      -3.8307     1.9223     2.1699 H      1 <0>       0.0700
   51 H51      -1.3462     2.1853     2.1596 H      1 <0>       0.0700
   52 H52      -0.5978     3.5354     1.2734 H      1 <0>       0.0700
@<TRIPOS>BOND
   1    1    2 2
   2    2    3 am
   3    2   11 1
   4    3    4 1
   5    3   30 1
   6    4    5 1
   7    4   31 1
   8    4   32 1
   9    5   10 ar
  10    5    6 ar
  11    6    7 ar
  12    6   33 1
  13    7    8 ar
  14    7   34 1
  15    8    9 ar
  16    9   10 ar
  17    9   35 1
  18   10   36 1
  19   11   18 1
  20   11   29 1
  21   11   12 1
  22   12   13 1
  23   12   37 1
  24   12   38 1
  25   13   14 1
  26   13   28 1
  27   13   15 1
  28   15   16 1
  29   15   39 1
  30   15   40 1
  31   16   17 1
  32   16   18 1
  33   16   19 1
  34   18   41 1
  35   18   42 1
  36   19   20 1
  37   19   43 1
  38   19   44 1
  39   20   21 1
  40   20   28 1
  41   20   29 1
  42   21   27 ar
  43   21   22 ar
  44   22   23 ar
  45   22   45 1
  46   23   24 ar
  47   23   46 1
  48   24   25 1
  49   24   26 ar
  50   26   27 ar
  51   26   47 1
  52   27   48 1
  53   28   49 1
  54   28   50 1
  55   29   51 1
  56   29   52 1
