@<TRIPOS>MOLECULE
ZINC000043154472
67    71    1     0     0
SMALL
USER_CHARGES
@<TRIPOS>ATOM
1      C1     -0.0187    1.5258    0.0104 C.3      1 ZINC000043154472   -0.1900
2      C2      0.0021   -0.0041    0.0020 C.3      1 ZINC000043154472    0.1000
3      H3     -1.0205   -0.3814    0.0098 H        1 ZINC000043154472    0.0900
4      O4      0.6709   -0.4649   -1.1737 O.3      1 ZINC000043154472   -0.2500
5      C5     -0.0939   -0.6747   -2.2758 C.2      1 ZINC000043154472    0.2100
6      C6      0.4230   -1.1216   -3.4669 C.2      1 ZINC000043154472   -0.3000
7      C7      1.7838   -1.4169   -3.7072 C.2      1 ZINC000043154472    0.6000
8      N8      2.1749   -1.8505   -4.9219 N.am     1 ZINC000043154472   -0.8500
9      O9      2.6035   -1.2796   -2.8164 O.2      1 ZINC000043154472   -0.5100
10     S10    -0.8729   -1.2691   -4.6466 S.3      1 ZINC000043154472    0.2100
11     C11    -2.0563   -0.7177   -3.4694 C.2      1 ZINC000043154472    0.0600
12     N12    -3.4184   -0.5711   -3.7156 N.pl3    1 ZINC000043154472   -0.4200
13     C13    -4.4361   -1.0579   -2.9494 C.2      1 ZINC000043154472    0.3100
14     N14    -5.5825   -0.7359   -3.4733 N.2      1 ZINC000043154472   -0.4700
15     C15    -5.3821   -0.0208   -4.6107 C.ar     1 ZINC000043154472    0.0900
16     C16    -6.2420    0.5608   -5.5455 C.ar     1 ZINC000043154472   -0.0500
17     C17    -5.7210    1.2403   -6.6234 C.ar     1 ZINC000043154472   -0.1000
18     C18    -4.3482    1.3524   -6.7891 C.ar     1 ZINC000043154472   -0.1400
19     C19    -3.7961    2.1005   -7.9750 C.3      1 ZINC000043154472    0.0500
20     N20    -3.6235    3.5164   -7.6237 N.4      1 ZINC000043154472   -0.3900
21     H21    -4.4985    3.8879   -7.2854 H        1 ZINC000043154472    0.4200
22     C22    -3.2002    4.2676   -8.8129 C.3      1 ZINC000043154472    0.0000
23     C23    -3.0385    5.7458   -8.4519 C.3      1 ZINC000043154472    0.0200
24     N24    -2.0371    5.8798   -7.3845 N.3      1 ZINC000043154472   -0.5400
25     C25    -1.8116    7.2919   -7.0484 C.3      1 ZINC000043154472    0.0200
26     C26    -2.4353    5.1125   -6.1958 C.3      1 ZINC000043154472    0.0300
27     C27    -2.6017    3.6395   -6.5757 C.3      1 ZINC000043154472   -0.0100
28     C28    -3.4853    0.7842   -5.8756 C.ar     1 ZINC000043154472   -0.0800
29     C29    -3.9923    0.1008   -4.7801 C.ar     1 ZINC000043154472    0.0400
30     C30    -1.4524   -0.4632   -2.2920 C.2      1 ZINC000043154472   -0.1900
31     C31     0.7309   -0.5033    1.2229 C.ar     1 ZINC000043154472   -0.0500
32     C32     2.0770   -0.8080    1.1477 C.ar     1 ZINC000043154472   -0.0900
33     C33     2.7456   -1.2660    2.2678 C.ar     1 ZINC000043154472   -0.0800
34     C34     2.0682   -1.4187    3.4628 C.ar     1 ZINC000043154472   -0.1100
35     C35     0.7220   -1.1130    3.5383 C.ar     1 ZINC000043154472   -0.0700
36     C36     0.0545   -0.6511    2.4196 C.ar     1 ZINC000043154472   -0.1800
37     C37    -1.4129   -0.3179    2.5018 C.3      1 ZINC000043154472    0.5100
38     F38    -1.8730   -0.5554    3.8015 F        1 ZINC000043154472   -0.1700
39     F39    -1.6039    1.0298    2.1785 F        1 ZINC000043154472   -0.1700
40     F40    -2.1241   -1.1187    1.6017 F        1 ZINC000043154472   -0.1800
41     H41     1.0039    1.9031    0.0027 H        1 ZINC000043154472    0.0800
42     H42    -0.5459    1.8868   -0.8726 H        1 ZINC000043154472    0.0700
43     H43    -0.5289    1.8773    0.9072 H        1 ZINC000043154472    0.1000
44     H44     1.5223   -1.9598   -5.6312 H        1 ZINC000043154472    0.3900
45     H45     3.1091   -2.0532   -5.0869 H        1 ZINC000043154472    0.4100
46     H46    -4.3090   -1.6277   -2.0409 H        1 ZINC000043154472    0.2300
47     H47    -7.3118    0.4774   -5.4232 H        1 ZINC000043154472    0.1500
48     H48    -6.3863    1.6895   -7.3459 H        1 ZINC000043154472    0.1400
49     H49    -2.8324    1.6758   -8.2560 H        1 ZINC000043154472    0.1400
50     H50    -4.4886    2.0158   -8.8125 H        1 ZINC000043154472    0.1400
51     H51    -2.2486    3.8748   -9.1710 H        1 ZINC000043154472    0.1400
52     H52    -3.9529    4.1647   -9.5945 H        1 ZINC000043154472    0.1400
53     H53    -2.7100    6.3010   -9.3305 H        1 ZINC000043154472    0.1200
54     H54    -3.9933    6.1425   -8.1066 H        1 ZINC000043154472    0.0600
55     H55    -2.7462    7.7383   -6.7087 H        1 ZINC000043154472    0.0400
56     H56    -1.0663    7.3623   -6.2561 H        1 ZINC000043154472    0.0800
57     H57    -1.4549    7.8230   -7.9309 H        1 ZINC000043154472    0.0800
58     H58    -1.6667    5.2056   -5.4285 H        1 ZINC000043154472    0.1200
59     H59    -3.3801    5.4987   -5.8134 H        1 ZINC000043154472    0.0600
60     H60    -2.9109    3.0709   -5.6987 H        1 ZINC000043154472    0.1300
61     H61    -1.6531    3.2502   -6.9452 H        1 ZINC000043154472    0.1400
62     H62    -2.4176    0.8749   -6.0104 H        1 ZINC000043154472    0.1300
63     H63    -1.9947   -0.1122   -1.4264 H        1 ZINC000043154472    0.1700
64     H64     2.6063   -0.6887    0.2140 H        1 ZINC000043154472    0.1500
65     H65     3.7973   -1.5048    2.2089 H        1 ZINC000043154472    0.1400
66     H66     2.5904   -1.7771    4.3376 H        1 ZINC000043154472    0.1400
67     H67     0.1925   -1.2327    4.4720 H        1 ZINC000043154472    0.1400
@<TRIPOS>BOND
1     1     2     1
2     1     41    1
3     1     42    1
4     1     43    1
5     2     3     1
6     2     4     1
7     2     31    1
8     4     5     1
9     5     30    1
10    5     6     2
11    6     7     1
12    6     10    1
13    7     8     am
14    7     9     2
15    8     44    1
16    8     45    1
17    10    11    1
18    11    12    1
19    11    30    2
20    12    29    1
21    12    13    1
22    13    14    2
23    13    46    1
24    14    15    1
25    15    29    ar
26    15    16    ar
27    16    17    ar
28    16    47    1
29    17    18    ar
30    17    48    1
31    18    19    1
32    18    28    ar
33    19    20    1
34    19    49    1
35    19    50    1
36    20    21    1
37    20    27    1
38    20    22    1
39    22    23    1
40    22    51    1
41    22    52    1
42    23    24    1
43    23    53    1
44    23    54    1
45    24    25    1
46    24    26    1
47    25    55    1
48    25    56    1
49    25    57    1
50    26    27    1
51    26    58    1
52    26    59    1
53    27    60    1
54    27    61    1
55    28    29    ar
56    28    62    1
57    30    63    1
58    31    36    ar
59    31    32    ar
60    32    33    ar
61    32    64    1
62    33    34    ar
63    33    65    1
64    34    35    ar
65    34    66    1
66    35    36    ar
67    35    67    1
68    36    37    1
69    37    38    1
70    37    39    1
71    37    40    1
@<TRIPOS>SUBSTRUCTURE
1   ZINC000043154472 1     RESIDUE    1   A     ZIN   1
