@<TRIPOS>MOLECULE
ZINC000003810905
  67   70    0    0    0
SMALL
USER_CHARGES
NO_NAME
@<TRIPOS>ATOM
    1 C1       -4.2849     1.4099     1.5481 C.3    1 <0>       0.0900
    2 N2       -4.2719    -0.0550     1.5465 N.pl3  1 <0>      -0.7500
    3 C3       -3.3249    -0.7442     0.7856 C.ar   1 <0>       0.2300
    4 C4       -2.3911    -0.0412     0.0344 C.ar   1 <0>      -0.2100
    5 C5       -1.4540    -0.7225    -0.7186 C.ar   1 <0>      -0.0500
    6 C6       -1.4422    -2.1038    -0.7271 C.ar   1 <0>      -0.2000
    7 C7       -2.3733    -2.8128     0.0220 C.ar   1 <0>       0.2100
    8 N8       -2.3601    -4.2121     0.0131 N.am   1 <0>      -0.6800
    9 C9       -3.5154    -4.8976     0.1218 C.2    1 <0>       0.7100
   10 O10      -4.5763    -4.3036     0.1302 O.2    1 <0>      -0.5500
   11 N11      -3.4948    -6.2416     0.2210 N.am   1 <0>      -0.7500
   12 C12      -4.7507    -6.9867     0.3391 C.3    1 <0>       0.3100
   13 H13      -5.5853    -6.3411     0.0656 H      1 <0>       0.1700
   14 N14      -4.9190    -7.4475     1.7167 N.2    1 <0>      -0.5000
   15 C15      -4.0327    -8.1693     2.3039 C.2    1 <0>       0.3100
   16 C16      -4.3054    -8.5900     3.6998 C.ar   1 <0>       0.1400
   17 C17      -5.4919    -8.2033     4.3182 C.ar   1 <0>      -0.1100
   18 C18      -5.7330    -8.6043     5.6223 C.ar   1 <0>      -0.0800
   19 C19      -4.7783    -9.3788     6.2634 C.ar   1 <0>      -0.1500
   20 C20      -3.6207    -9.7265     5.5877 C.ar   1 <0>       0.1000
   21 N21      -3.4194    -9.3362     4.3471 N.ar   1 <0>      -0.4600
   22 C22      -2.7681    -8.6100     1.6952 C.ar   1 <0>      -0.1200
   23 C23      -1.6180    -8.5913     2.4989 C.ar   1 <0>      -0.0300
   24 C24      -0.4033    -8.9891     1.9899 C.ar   1 <0>      -0.1400
   25 C25      -0.3077    -9.4121     0.6747 C.ar   1 <0>      -0.0700
   26 C26      -1.4282    -9.4372    -0.1266 C.ar   1 <0>      -0.1600
   27 C27      -2.6694    -9.0381     0.3725 C.ar   1 <0>       0.1700
   28 N28      -3.7517    -9.0962    -0.4917 N.am   1 <0>      -0.5400
   29 C29      -3.8425   -10.2549    -1.3836 C.3    1 <0>       0.0400
   30 C30      -4.6223   -11.3514    -0.7049 C.2    1 <0>       0.3500
   31 O31      -5.0573   -11.1824     0.4089 O.2    1 <0>      -0.4300
   32 C32      -4.8592   -12.6587    -1.4160 C.3    1 <0>      -0.1100
   33 C33      -5.6703   -13.5906    -0.5135 C.3    1 <0>      -0.1300
   34 C34      -5.6328   -12.4021    -2.7108 C.3    1 <0>      -0.1400
   35 C35      -3.5150   -13.3108    -1.7458 C.3    1 <0>      -0.1400
   36 C36      -4.7162    -8.1804    -0.5757 C.2    1 <0>       0.5100
   37 O37      -5.5881    -8.3154    -1.4078 O.2    1 <0>      -0.5000
   38 C38      -3.3118    -2.1322     0.7836 C.ar   1 <0>      -0.2000
   39 H39      -5.0875     1.7654     2.1943 H      1 <0>       0.0700
   40 H40      -3.3292     1.7813     1.9178 H      1 <0>       0.0500
   41 H41      -4.4478     1.7729     0.5333 H      1 <0>       0.0500
   42 H42      -4.9210    -0.5464     2.0739 H      1 <0>       0.4000
   43 H43      -2.3980     1.0388     0.0386 H      1 <0>       0.1200
   44 H44      -0.7295    -0.1738    -1.3020 H      1 <0>       0.1300
   45 H45      -0.7087    -2.6333    -1.3169 H      1 <0>       0.1200
   46 H46      -1.5195    -4.6887    -0.0713 H      1 <0>       0.4100
   47 H47      -2.6485    -6.7155     0.2143 H      1 <0>       0.4000
   48 H48      -6.2138    -7.5991     3.7887 H      1 <0>       0.1500
   49 H49      -6.6438    -8.3197     6.1281 H      1 <0>       0.1400
   50 H50      -4.9357    -9.7073     7.2801 H      1 <0>       0.1400
   51 H51      -2.8749   -10.3297     6.0840 H      1 <0>       0.1600
   52 H52      -1.6870    -8.2623     3.5252 H      1 <0>       0.1400
   53 H53       0.4762    -8.9713     2.6164 H      1 <0>       0.1400
   54 H54       0.6468    -9.7231     0.2766 H      1 <0>       0.1400
   55 H55      -1.3453    -9.7684    -1.1512 H      1 <0>       0.1300
   56 H56      -4.3487    -9.9657    -2.3046 H      1 <0>       0.1300
   57 H57      -2.8399   -10.6131    -1.6171 H      1 <0>       0.1200
   58 H58      -6.6280   -13.1260    -0.2785 H      1 <0>       0.0600
   59 H59      -5.8417   -14.5362    -1.0278 H      1 <0>       0.0700
   60 H60      -5.1192   -13.7734     0.4090 H      1 <0>       0.0600
   61 H61      -5.0550   -11.7382    -3.3538 H      1 <0>       0.0600
   62 H62      -5.8042   -13.3477    -3.2252 H      1 <0>       0.0700
   63 H63      -6.5905   -11.9375    -2.4759 H      1 <0>       0.0600
   64 H64      -2.9639   -13.4937    -0.8233 H      1 <0>       0.0600
   65 H65      -3.6864   -14.2564    -2.2602 H      1 <0>       0.0700
   66 H66      -2.9371   -12.6470    -2.3888 H      1 <0>       0.0600
   67 H67      -4.0365    -2.6811     1.3667 H      1 <0>       0.1300
@<TRIPOS>BOND
   1    1    2 1
   2    1   39 1
   3    1   40 1
   4    1   41 1
   5    2    3 1
   6    2   42 1
   7    3   38 ar
   8    3    4 ar
   9    4    5 ar
  10    4   43 1
  11    5    6 ar
  12    5   44 1
  13    6    7 ar
  14    6   45 1
  15    7    8 1
  16    7   38 ar
  17    8    9 am
  18    8   46 1
  19    9   10 2
  20    9   11 am
  21   11   12 1
  22   11   47 1
  23   12   13 1
  24   12   36 1
  25   12   14 1
  26   14   15 2
  27   15   16 1
  28   15   22 1
  29   16   21 ar
  30   16   17 ar
  31   17   18 ar
  32   17   48 1
  33   18   19 ar
  34   18   49 1
  35   19   20 ar
  36   19   50 1
  37   20   21 ar
  38   20   51 1
  39   22   27 ar
  40   22   23 ar
  41   23   24 ar
  42   23   52 1
  43   24   25 ar
  44   24   53 1
  45   25   26 ar
  46   25   54 1
  47   26   27 ar
  48   26   55 1
  49   27   28 1
  50   28   29 1
  51   28   36 am
  52   29   30 1
  53   29   56 1
  54   29   57 1
  55   30   31 2
  56   30   32 1
  57   32   33 1
  58   32   34 1
  59   32   35 1
  60   33   58 1
  61   33   59 1
  62   33   60 1
  63   34   61 1
  64   34   62 1
  65   34   63 1
  66   35   64 1
  67   35   65 1
  68   35   66 1
  69   36   37 2
  70   38   67 1
