@<TRIPOS>MOLECULE
ZINC000001529869
34    34    1     0     0
SMALL
USER_CHARGES
@<TRIPOS>ATOM
1      N1     -0.0162    1.3436    0.0094 N.am     1 ZINC000001529869   -0.8600
2      C2      0.0021   -0.0041    0.0020 C.2      1 ZINC000001529869    0.5100
3      O3      1.0605   -0.5961   -0.0113 O.2      1 ZINC000001529869   -0.5400
4      C4     -1.2926   -0.7753    0.0102 C.3      1 ZINC000001529869   -0.1400
5      C5     -0.9927   -2.2755   -0.0007 C.3      1 ZINC000001529869   -0.0900
6      C6     -2.3072   -3.0585    0.0077 C.3      1 ZINC000001529869    0.0800
7      H7     -2.9289   -2.7335   -0.8265 H        1 ZINC000001529869    0.0800
8      N8     -3.0134   -2.8136    1.2676 N.am     1 ZINC000001529869   -0.7000
9      C9     -4.3527   -2.9524    1.3274 C.2      1 ZINC000001529869    0.5100
10     O10    -4.9731   -3.2801    0.3382 O.2      1 ZINC000001529869   -0.5400
11     C11    -5.0792   -2.7006    2.6235 C.3      1 ZINC000001529869   -0.1000
12     C12    -6.5562   -2.9227    2.4228 C.ar     1 ZINC000001529869   -0.0600
13     C13    -7.3653   -1.8741    2.0271 C.ar     1 ZINC000001529869   -0.1100
14     C14    -8.7201   -2.0779    1.8430 C.ar     1 ZINC000001529869   -0.1200
15     C15    -9.2657   -3.3304    2.0543 C.ar     1 ZINC000001529869   -0.1300
16     C16    -8.4563   -4.3792    2.4491 C.ar     1 ZINC000001529869   -0.1200
17     C17    -7.1008   -4.1764    2.6291 C.ar     1 ZINC000001529869   -0.1000
18     C18    -2.0157   -4.5309   -0.1269 C.2      1 ZINC000001529869    0.4900
19     O19    -2.1979   -5.2774    0.8197 O.co2    1 ZINC000001529869   -0.6900
20     O20    -1.5977   -4.9756   -1.1823 O.co2    1 ZINC000001529869   -0.7000
21     H21     0.8172    1.8399    0.0041 H        1 ZINC000001529869    0.4000
22     H22    -0.8627    1.8171    0.0160 H        1 ZINC000001529869    0.4000
23     H23    -1.8592   -0.5245    0.9070 H        1 ZINC000001529869    0.0900
24     H24    -1.8762   -0.5150   -0.8728 H        1 ZINC000001529869    0.0900
25     H25    -0.4261   -2.5263   -0.8975 H        1 ZINC000001529869    0.0900
26     H26    -0.4091   -2.5358    0.8824 H        1 ZINC000001529869    0.0700
27     H27    -2.5172   -2.5515    2.0588 H        1 ZINC000001529869    0.3900
28     H28    -4.7091   -3.3854    3.3865 H        1 ZINC000001529869    0.1000
29     H29    -4.9065   -1.6729    2.9430 H        1 ZINC000001529869    0.1000
30     H30    -6.9391   -0.8956    1.8620 H        1 ZINC000001529869    0.1200
31     H31    -9.3525   -1.2585    1.5345 H        1 ZINC000001529869    0.1200
32     H32   -10.3243   -3.4894    1.9112 H        1 ZINC000001529869    0.1200
33     H33    -8.8826   -5.3576    2.6145 H        1 ZINC000001529869    0.1200
34     H34    -6.4685   -4.9958    2.9375 H        1 ZINC000001529869    0.1200
@<TRIPOS>BOND
1     1     2     am
2     1     21    1
3     1     22    1
4     2     3     2
5     2     4     1
6     4     5     1
7     4     23    1
8     4     24    1
9     5     6     1
10    5     25    1
11    5     26    1
12    6     7     1
13    6     8     1
14    6     18    1
15    8     9     am
16    8     27    1
17    9     10    2
18    9     11    1
19    11    12    1
20    11    28    1
21    11    29    1
22    12    17    ar
23    12    13    ar
24    13    14    ar
25    13    30    1
26    14    15    ar
27    14    31    1
28    15    16    ar
29    15    32    1
30    16    17    ar
31    16    33    1
32    17    34    1
33    18    19    ar
34    18    20    ar
@<TRIPOS>SUBSTRUCTURE
1   ZINC000001529869 1     RESIDUE    1   A     ZIN   1
