@<TRIPOS>MOLECULE
ZINC000003913915
83    86    1     0     0
SMALL
USER_CHARGES
@<TRIPOS>ATOM
1      C1      3.5613    1.7809    1.2331 C.3      1 ZINC000003913915   -0.1500
2      C2      3.7488    0.2636    1.2910 C.3      1 ZINC000003913915    0.0800
3      O3      2.5399   -0.3542    1.8060 O.3      1 ZINC000003913915   -0.3300
4      C4      2.5400   -1.6948    1.9204 C.2      1 ZINC000003913915    0.6000
5      O5      3.5228   -2.3315    1.5989 O.2      1 ZINC000003913915   -0.5300
6      O6      1.4510   -2.3301    2.3910 O.3      1 ZINC000003913915   -0.2500
7      C7      1.4770   -3.6886    2.3814 C.ar     1 ZINC000003913915    0.0600
8      C8      0.9336   -4.3835    1.3096 C.ar     1 ZINC000003913915   -0.0700
9      C9      0.9564   -5.7611    1.2941 C.ar     1 ZINC000003913915   -0.1300
10     C10     1.5292   -6.4631    2.3610 C.ar     1 ZINC000003913915   -0.0100
11     C11     1.5555   -7.9319    2.3471 C.2      1 ZINC000003913915   -0.0700
12     C12     1.0252   -8.6085    1.3014 C.2      1 ZINC000003913915   -0.1300
13     C13     1.0505  -10.0190    1.2881 C.2      1 ZINC000003913915   -0.0200
14     C14     0.5187  -10.6976    0.2393 C.2      1 ZINC000003913915   -0.2200
15     C15     0.5440  -12.1131    0.2259 C.2      1 ZINC000003913915    0.5500
16     O16     1.0428  -12.7219    1.1551 O.2      1 ZINC000003913915   -0.5500
17     N17     0.0161  -12.7867   -0.8152 N.am     1 ZINC000003913915   -0.7300
18     C18     0.0423  -14.2514   -0.8291 C.3      1 ZINC000003913915    0.1100
19     C19    -0.6159  -14.7612   -2.1127 C.3      1 ZINC000003913915    0.0500
20     N20    -0.5896  -16.2299   -2.1266 N.3      1 ZINC000003913915   -0.5300
21     C21     0.7331  -16.7362   -1.7386 C.3      1 ZINC000003913915    0.0500
22     C22     0.6831  -18.2614   -1.6229 C.3      1 ZINC000003913915   -0.1100
23     C23     0.2627  -18.8570   -2.9695 C.3      1 ZINC000003913915    0.0900
24     O24     0.1593  -20.2774   -2.8519 O.3      1 ZINC000003913915   -0.3600
25     C25     0.4444  -20.9830   -4.0614 C.3      1 ZINC000003913915    0.1800
26     C26     1.9163  -21.3009   -4.1225 C.ar     1 ZINC000003913915   -0.1100
27     C27     2.5833  -21.7083   -2.9823 C.ar     1 ZINC000003913915   -0.0900
28     C28     3.9333  -21.9998   -3.0383 C.ar     1 ZINC000003913915   -0.1200
29     C29     4.6163  -21.8844   -4.2346 C.ar     1 ZINC000003913915   -0.1200
30     C30     3.9491  -21.4779   -5.3749 C.ar     1 ZINC000003913915   -0.1200
31     C31     2.5981  -21.1905   -5.3199 C.ar     1 ZINC000003913915   -0.1100
32     C32    -0.3480  -22.2645   -4.0942 C.ar     1 ZINC000003913915   -0.0800
33     C33    -0.5898  -22.9577   -2.9229 C.ar     1 ZINC000003913915   -0.0900
34     C34    -1.3166  -24.1331   -2.9530 C.ar     1 ZINC000003913915   -0.1200
35     C35    -1.8021  -24.6151   -4.1542 C.ar     1 ZINC000003913915   -0.1200
36     C36    -1.5611  -23.9213   -5.3253 C.ar     1 ZINC000003913915   -0.1200
37     C37    -0.8379  -22.7437   -5.2947 C.ar     1 ZINC000003913915   -0.1100
38     C38    -1.0953  -18.2767   -3.3737 C.3      1 ZINC000003913915   -0.1400
39     C39    -0.9938  -16.7511   -3.4386 C.3      1 ZINC000003913915    0.0600
40     C40     2.0775   -5.7610    3.4414 C.ar     1 ZINC000003913915   -0.1800
41     C41     2.0547   -4.3803    3.4458 C.ar     1 ZINC000003913915    0.1400
42     O42     2.5865   -3.6952    4.4929 O.3      1 ZINC000003913915   -0.3100
43     C43     3.1519   -4.4678    5.5537 C.3      1 ZINC000003913915    0.0200
44     H44     3.3576    2.1603    2.2345 H        1 ZINC000003913915    0.0700
45     H45     4.4688    2.2447    0.8465 H        1 ZINC000003913915    0.0900
46     H46     2.7239    2.0188    0.5772 H        1 ZINC000003913915    0.0700
47     H47     3.9524   -0.1158    0.2896 H        1 ZINC000003913915    0.0800
48     H48     4.5862    0.0257    1.9469 H        1 ZINC000003913915    0.0800
49     H49     0.4913   -3.8429    0.4859 H        1 ZINC000003913915    0.1400
50     H50     0.5321   -6.2990    0.4591 H        1 ZINC000003913915    0.1400
51     H51     1.9978   -8.4719    3.1712 H        1 ZINC000003913915    0.1300
52     H52     0.5828   -8.0685    0.4773 H        1 ZINC000003913915    0.1300
53     H53     1.4928  -10.5590    2.1122 H        1 ZINC000003913915    0.1300
54     H54     0.0763  -10.1576   -0.5848 H        1 ZINC000003913915    0.1300
55     H55    -0.3812  -12.3018   -1.5554 H        1 ZINC000003913915    0.4000
56     H56     1.0754  -14.5967   -0.7886 H        1 ZINC000003913915    0.0700
57     H57    -0.5023  -14.6328    0.0347 H        1 ZINC000003913915    0.0800
58     H58    -1.6490  -14.4159   -2.1532 H        1 ZINC000003913915    0.0800
59     H59    -0.0713  -14.3799   -2.9765 H        1 ZINC000003913915    0.0400
60     H60     1.4662  -16.4531   -2.4939 H        1 ZINC000003913915    0.0400
61     H61     1.0182  -16.3083   -0.7775 H        1 ZINC000003913915    0.0900
62     H62     1.6688  -18.6382   -1.3502 H        1 ZINC000003913915    0.0800
63     H63    -0.0399  -18.5449   -0.8581 H        1 ZINC000003913915    0.0800
64     H64     1.0064  -18.6074   -3.7263 H        1 ZINC000003913915    0.0600
65     H65     0.1705  -20.3645   -4.9161 H        1 ZINC000003913915    0.0800
66     H66     2.0497  -21.7984   -2.0476 H        1 ZINC000003913915    0.1300
67     H67     4.4546  -22.3174   -2.1473 H        1 ZINC000003913915    0.1200
68     H68     5.6713  -22.1115   -4.2781 H        1 ZINC000003913915    0.1200
69     H69     4.4828  -21.3874   -6.3095 H        1 ZINC000003913915    0.1200
70     H70     2.0768  -20.8729   -6.2108 H        1 ZINC000003913915    0.1200
71     H71    -0.2105  -22.5812   -1.9844 H        1 ZINC000003913915    0.1300
72     H72    -1.5049  -24.6751   -2.0380 H        1 ZINC000003913915    0.1200
73     H73    -2.3694  -25.5338   -4.1777 H        1 ZINC000003913915    0.1200
74     H74    -1.9401  -24.2980   -6.2638 H        1 ZINC000003913915    0.1200
75     H75    -0.6496  -22.2016   -6.2097 H        1 ZINC000003913915    0.1200
76     H76    -1.3802  -18.6644   -4.3518 H        1 ZINC000003913915    0.0700
77     H77    -1.8463  -18.5604   -2.6364 H        1 ZINC000003913915    0.0800
78     H78    -1.9629  -16.3339   -3.7123 H        1 ZINC000003913915    0.0800
79     H79    -0.2526  -16.4679   -4.1859 H        1 ZINC000003913915    0.0400
80     H80     2.5206   -6.2979    4.2671 H        1 ZINC000003913915    0.1400
81     H81     2.3841   -5.1108    5.9841 H        1 ZINC000003913915    0.0600
82     H82     3.9633   -5.0821    5.1633 H        1 ZINC000003913915    0.0600
83     H83     3.5396   -3.8000    6.3230 H        1 ZINC000003913915    0.1100
@<TRIPOS>BOND
1     1     2     1
2     1     44    1
3     1     45    1
4     1     46    1
5     2     3     1
6     2     47    1
7     2     48    1
8     3     4     1
9     4     5     2
10    4     6     1
11    6     7     1
12    7     41    ar
13    7     8     ar
14    8     9     ar
15    8     49    1
16    9     10    ar
17    9     50    1
18    10    11    1
19    10    40    ar
20    11    12    2
21    11    51    1
22    12    13    1
23    12    52    1
24    13    14    2
25    13    53    1
26    14    15    1
27    14    54    1
28    15    16    2
29    15    17    am
30    17    18    1
31    17    55    1
32    18    19    1
33    18    56    1
34    18    57    1
35    19    20    1
36    19    58    1
37    19    59    1
38    20    39    1
39    20    21    1
40    21    22    1
41    21    60    1
42    21    61    1
43    22    23    1
44    22    62    1
45    22    63    1
46    23    24    1
47    23    38    1
48    23    64    1
49    24    25    1
50    25    26    1
51    25    32    1
52    25    65    1
53    26    31    ar
54    26    27    ar
55    27    28    ar
56    27    66    1
57    28    29    ar
58    28    67    1
59    29    30    ar
60    29    68    1
61    30    31    ar
62    30    69    1
63    31    70    1
64    32    37    ar
65    32    33    ar
66    33    34    ar
67    33    71    1
68    34    35    ar
69    34    72    1
70    35    36    ar
71    35    73    1
72    36    37    ar
73    36    74    1
74    37    75    1
75    38    39    1
76    38    76    1
77    38    77    1
78    39    78    1
79    39    79    1
80    40    41    ar
81    40    80    1
82    41    42    1
83    42    43    1
84    43    81    1
85    43    82    1
86    43    83    1
@<TRIPOS>SUBSTRUCTURE
1   ZINC000003913915 1     RESIDUE    1   A     ZIN   1
