@<TRIPOS>MOLECULE
ZINC000005855431
  48   51    0    0    0
SMALL
USER_CHARGES
NO_NAME
@<TRIPOS>ATOM
    1 C1       -0.0173     1.4248     0.0099 C.3    1 <0>       0.0300
    2 O2        0.0021    -0.0041     0.0020 O.3    1 <0>      -0.3100
    3 C3        0.6263    -0.6189     1.0423 C.ar   1 <0>       0.1000
    4 C4        1.2106     0.1317     2.0455 C.ar   1 <0>      -0.1900
    5 C5        1.8483    -0.4892     3.1119 C.ar   1 <0>      -0.0400
    6 C6        1.8965    -1.8630     3.1763 C.ar   1 <0>      -0.0900
    7 C7        1.3171    -2.6217     2.1659 C.ar   1 <0>      -0.1100
    8 C8        0.6846    -2.0090     1.1014 C.ar   1 <0>       0.0700
    9 O9        0.1235    -2.7593     0.1158 O.3    1 <0>      -0.4900
   10 C10       2.5535    -2.6030     4.3112 C.3    1 <0>      -0.0800
   11 C11       3.4871    -1.6799     5.0971 C.3    1 <0>      -0.1200
   12 C12       2.7330    -0.3989     5.4388 C.3    1 <0>      -0.0700
   13 H13       1.7544    -0.6919     5.8438 H      1 <0>       0.0700
   14 C14       3.4351     0.4252     6.5038 C.3    1 <0>      -0.0700
   15 H15       2.7246     1.1145     6.9865 H      1 <0>       0.0800
   16 C16       4.0614    -0.5432     7.5424 C.3    1 <0>      -0.1200
   17 C17       5.4689    -0.8713     7.0073 C.3    1 <0>      -0.1600
   18 C18       5.7805     0.1520     5.8971 C.3    1 <0>       0.1100
   19 H19       5.7899    -0.3321     4.9229 H      1 <0>       0.0600
   20 O20       7.0425     0.7763     6.1458 O.3    1 <0>      -0.5600
   21 C21       4.6539     1.1912     5.9712 C.3    1 <0>      -0.0500
   22 C22       5.0508     2.2584     7.0014 C.3    1 <0>      -0.1300
   23 C23       4.4037     1.8816     4.6504 C.3    1 <0>      -0.1000
   24 C24       3.7984     0.9329     3.6210 C.3    1 <0>      -0.1100
   25 C25       2.4711     0.3933     4.1660 C.3    1 <0>      -0.0400
   26 H26       1.8011     1.2266     4.3874 H      1 <0>       0.0800
   27 H27       1.0053     1.8021     0.0021 H      1 <0>       0.0600
   28 H28      -0.5445     1.7859    -0.8732 H      1 <0>       0.1000
   29 H29      -0.5275     1.7763     0.9067 H      1 <0>       0.0600
   30 H30       1.1702     1.2101     2.0012 H      1 <0>       0.1300
   31 H31       1.3647    -3.6998     2.2131 H      1 <0>       0.1300
   32 H32      -0.8017    -2.9906     0.2759 H      1 <0>       0.3900
   33 H33       1.7876    -2.9908     4.9804 H      1 <0>       0.0800
   34 H34       3.1337    -3.4342     3.9096 H      1 <0>       0.0700
   35 H35       3.7893    -2.1954     6.0105 H      1 <0>       0.0800
   36 H36       4.3652    -1.4558     4.4957 H      1 <0>       0.0700
   37 H37       4.1341    -0.0588     8.5225 H      1 <0>       0.0600
   38 H38       3.4609    -1.4491     7.6397 H      1 <0>       0.0700
   39 H39       6.2041    -0.7831     7.8095 H      1 <0>       0.0700
   40 H40       5.4965    -1.8842     6.6021 H      1 <0>       0.0700
   41 H41       7.7900     0.1629     6.1535 H      1 <0>       0.3700
   42 H42       5.9662     2.7535     6.6774 H      1 <0>       0.0600
   43 H43       4.2513     2.9941     7.0888 H      1 <0>       0.0500
   44 H44       5.2165     1.7853     7.9692 H      1 <0>       0.0500
   45 H45       3.7210     2.7184     4.8105 H      1 <0>       0.0600
   46 H46       5.3486     2.2708     4.2667 H      1 <0>       0.0700
   47 H47       3.6135     1.4773     2.6916 H      1 <0>       0.0600
   48 H48       4.4836     0.1111     3.4236 H      1 <0>       0.0700
@<TRIPOS>BOND
   1    1    2 1
   2    1   27 1
   3    1   28 1
   4    1   29 1
   5    2    3 1
   6    3    8 ar
   7    3    4 ar
   8    4    5 ar
   9    4   30 1
  10    5   25 1
  11    5    6 ar
  12    6    7 ar
  13    6   10 1
  14    7    8 ar
  15    7   31 1
  16    8    9 1
  17    9   32 1
  18   10   11 1
  19   10   33 1
  20   10   34 1
  21   11   12 1
  22   11   35 1
  23   11   36 1
  24   12   13 1
  25   12   25 1
  26   12   14 1
  27   14   15 1
  28   14   21 1
  29   14   16 1
  30   16   17 1
  31   16   37 1
  32   16   38 1
  33   17   18 1
  34   17   39 1
  35   17   40 1
  36   18   19 1
  37   18   20 1
  38   18   21 1
  39   20   41 1
  40   21   22 1
  41   21   23 1
  42   22   42 1
  43   22   43 1
  44   22   44 1
  45   23   24 1
  46   23   45 1
  47   23   46 1
  48   24   25 1
  49   24   47 1
  50   24   48 1
  51   25   26 1
