@<TRIPOS>MOLECULE
ZINC000254010478
56    59    1     0     0
SMALL
USER_CHARGES
@<TRIPOS>ATOM
1      C1      1.1569    0.8527    0.3522 C.3      1 ZINC000254010478   -0.2100
2      C2     -0.0206   -0.0150   -0.0105 C.2      1 ZINC000254010478    0.3300
3      O3     -0.9588   -0.1061    0.7444 O.2      1 ZINC000254010478   -0.4200
4      C4     -0.0274   -0.7658   -1.3095 C.3      1 ZINC000254010478    0.1000
5      O5      0.5826    0.0532   -2.3240 O.3      1 ZINC000254010478   -0.5400
6      C6     -1.4818   -1.0713   -1.7329 C.3      1 ZINC000254010478   -0.1500
7      C7     -1.4080   -2.4538   -2.4179 C.3      1 ZINC000254010478   -0.1200
8      C8     -0.3278   -3.2036   -1.5893 C.3      1 ZINC000254010478   -0.0700
9      H9      0.1309   -4.0168   -2.1693 H        1 ZINC000254010478    0.0900
10     C10    -1.0228   -3.7480   -0.3393 C.3      1 ZINC000254010478   -0.1000
11     H11    -1.6159   -2.9617    0.1190 H        1 ZINC000254010478    0.1100
12     C12    -1.9178   -4.9256   -0.7459 C.3      1 ZINC000254010478   -0.1200
13     C13    -2.8238   -5.2778    0.4292 C.3      1 ZINC000254010478   -0.0600
14     H14    -3.2558   -6.2688    0.2652 H        1 ZINC000254010478    0.0900
15     C15    -3.9556   -4.2555    0.5378 C.3      1 ZINC000254010478   -0.1500
16     C16    -2.0438   -5.3068    1.7191 C.2      1 ZINC000254010478   -0.0100
17     C17    -2.7379   -5.6448    2.8227 C.2      1 ZINC000254010478   -0.2300
18     C18    -2.0415   -5.6722    4.1270 C.2      1 ZINC000254010478    0.4100
19     O19    -2.4730   -6.3339    5.0661 O.2      1 ZINC000254010478   -0.4600
20     C20    -0.8041   -4.8721    4.2559 C.2      1 ZINC000254010478   -0.2200
21     C21    -0.1286   -4.5475    3.1453 C.2      1 ZINC000254010478   -0.0500
22     C22    -0.5882   -5.0198    1.8026 C.3      1 ZINC000254010478   -0.0200
23     C23     0.0628   -6.4094    1.6741 C.3      1 ZINC000254010478   -0.1500
24     C24     0.0166   -4.2538    0.6534 C.3      1 ZINC000254010478    0.1600
25     F25     0.8793   -5.1226   -0.0289 F        1 ZINC000254010478   -0.1900
26     C26     0.8327   -3.0557    1.1393 C.3      1 ZINC000254010478    0.0900
27     H27     1.6161   -3.4238    1.8238 H        1 ZINC000254010478    0.0700
28     O28    -0.0012   -2.1511    1.8602 O.3      1 ZINC000254010478   -0.5400
29     C29     1.5236   -2.3724   -0.0268 C.3      1 ZINC000254010478   -0.1500
30     C30     0.6971   -2.1102   -1.2527 C.3      1 ZINC000254010478   -0.0200
31     C31     1.7031   -2.0962   -2.4387 C.3      1 ZINC000254010478   -0.1300
32     H32     1.8894    0.2604    0.9005 H        1 ZINC000254010478    0.0900
33     H33     1.6133    1.2443   -0.5569 H        1 ZINC000254010478    0.0900
34     H34     0.8195    1.6810    0.9753 H        1 ZINC000254010478    0.0900
35     H35     0.1383    0.9003   -2.4654 H        1 ZINC000254010478    0.3700
36     H36    -2.1265   -1.1146   -0.8588 H        1 ZINC000254010478    0.0900
37     H37    -1.8337   -0.3193   -2.4353 H        1 ZINC000254010478    0.0700
38     H38    -2.3702   -2.9599   -2.3592 H        1 ZINC000254010478    0.0800
39     H39    -1.0977   -2.3497   -3.4578 H        1 ZINC000254010478    0.0700
40     H40    -2.5255   -4.6502   -1.6099 H        1 ZINC000254010478    0.0800
41     H41    -1.2981   -5.7857   -1.0084 H        1 ZINC000254010478    0.0700
42     H42    -4.5405   -4.2620   -0.3820 H        1 ZINC000254010478    0.0600
43     H43    -4.5987   -4.5134    1.3792 H        1 ZINC000254010478    0.0600
44     H44    -3.5344   -3.2623    0.6934 H        1 ZINC000254010478    0.0600
45     H45    -3.7985   -5.9033    2.7564 H        1 ZINC000254010478    0.1500
46     H46    -0.4463   -4.5482    5.2367 H        1 ZINC000254010478    0.1400
47     H47     0.7750   -3.9433    3.2431 H        1 ZINC000254010478    0.1400
48     H48    -0.2868   -7.0506    2.4833 H        1 ZINC000254010478    0.0600
49     H49    -0.2108   -6.8515    0.7161 H        1 ZINC000254010478    0.0800
50     H50     1.1466   -6.3096    1.7319 H        1 ZINC000254010478    0.0800
51     H51     0.4454   -1.3388    2.1354 H        1 ZINC000254010478    0.3800
52     H52     2.0163   -1.4605    0.3148 H        1 ZINC000254010478    0.0800
53     H53     2.3587   -3.0362   -0.3403 H        1 ZINC000254010478    0.0900
54     H54     2.1989   -3.0646   -2.5060 H        1 ZINC000254010478    0.0500
55     H55     1.1676   -1.8969   -3.3670 H        1 ZINC000254010478    0.0700
56     H56     2.4477   -1.3173   -2.2743 H        1 ZINC000254010478    0.0600
@<TRIPOS>BOND
1     1     2     1
2     1     32    1
3     1     33    1
4     1     34    1
5     2     3     2
6     2     4     1
7     4     30    1
8     4     5     1
9     4     6     1
10    5     35    1
11    6     7     1
12    6     36    1
13    6     37    1
14    7     8     1
15    7     38    1
16    7     39    1
17    8     9     1
18    8     30    1
19    8     10    1
20    10    11    1
21    10    24    1
22    10    12    1
23    12    13    1
24    12    40    1
25    12    41    1
26    13    14    1
27    13    15    1
28    13    16    1
29    15    42    1
30    15    43    1
31    15    44    1
32    16    22    1
33    16    17    2
34    17    18    1
35    17    45    1
36    18    19    2
37    18    20    1
38    20    21    2
39    20    46    1
40    21    22    1
41    21    47    1
42    22    23    1
43    22    24    1
44    23    48    1
45    23    49    1
46    23    50    1
47    24    25    1
48    24    26    1
49    26    27    1
50    26    28    1
51    26    29    1
52    28    51    1
53    29    30    1
54    29    52    1
55    29    53    1
56    30    31    1
57    31    54    1
58    31    55    1
59    31    56    1
@<TRIPOS>SUBSTRUCTURE
1   ZINC000254010478 1     RESIDUE    1   A     ZIN   1
