@<TRIPOS>MOLECULE
ZINC000013982410
  39   40    0    0    0
SMALL
USER_CHARGES
NO_NAME
@<TRIPOS>ATOM
    1 C1       -2.1517    -2.0611     0.2707 C.3    1 <0>      -0.1500
    2 C2       -0.6885    -1.6234     0.1791 C.3    1 <0>       0.0700
    3 O3       -0.0964    -2.1643    -1.0313 O.3    1 <0>      -0.3400
    4 C4        1.2220    -1.9520    -1.2154 C.2    1 <0>       0.5000
    5 O5        1.8650    -1.3567    -0.3732 O.2    1 <0>      -0.4700
    6 C6        1.8818    -2.4404    -2.4342 C.2    1 <0>      -0.0900
    7 C7        2.1136    -3.7320    -2.5390 C.2    1 <0>      -0.1100
    8 C8        2.7705    -4.3681    -3.7294 C.3    1 <0>      -0.0900
    9 C9        3.4913    -3.3066    -4.5629 C.3    1 <0>      -0.1100
   10 C10       2.5215    -2.1461    -4.8174 C.3    1 <0>      -0.1100
   11 C11       2.2470    -1.4386    -3.4906 C.3    1 <0>      -0.5200
   12 H12       3.1413    -0.9007    -3.1761 H      1 <0>       0.1400
   13 S13       0.8829    -0.2626    -3.7071 S.o2   1 <0>       2.5200
   14 O14       1.2488     0.7629    -4.6203 O.2    1 <0>      -1.0200
   15 O15      -0.3534    -0.9512    -3.8358 O.2    1 <0>      -1.0000
   16 N16       0.7692     0.5117    -2.2477 N.pl3  1 <0>      -1.0700
   17 C17      -0.1442     1.5579    -2.0802 C.ar   1 <0>       0.2900
   18 C18      -1.0322     1.8752    -3.0988 C.ar   1 <0>      -0.2300
   19 C19      -1.9340     2.9086    -2.9312 C.ar   1 <0>      -0.0900
   20 C20      -1.9524     3.6281    -1.7487 C.ar   1 <0>      -0.0100
   21 F21      -2.8348     4.6384    -1.5877 F      1 <0>      -0.1600
   22 C22      -1.0680     3.3137    -0.7304 C.ar   1 <0>      -0.1000
   23 C23      -0.1679     2.2777    -0.8913 C.ar   1 <0>      -0.0800
   24 Cl24      0.9406     1.8836     0.3852 Cl     1 <0>      -0.0700
   25 H25      -2.7155    -1.6182    -0.5503 H      1 <0>       0.0700
   26 H26      -2.2105    -3.1477     0.2073 H      1 <0>       0.0600
   27 H27      -2.5714    -1.7294     1.2204 H      1 <0>       0.0700
   28 H28      -0.6358    -0.5350     0.1543 H      1 <0>       0.0800
   29 H29      -0.1434    -1.9939     1.0472 H      1 <0>       0.0600
   30 H30       1.8142    -4.3708    -1.7213 H      1 <0>       0.1200
   31 H31       3.4914    -5.1118    -3.3898 H      1 <0>       0.0800
   32 H32       2.0128    -4.8559    -4.3425 H      1 <0>       0.0800
   33 H33       4.3627    -2.9430    -4.0185 H      1 <0>       0.0700
   34 H34       3.8039    -3.7379    -5.5139 H      1 <0>       0.0700
   35 H35       2.9672    -1.4444    -5.5224 H      1 <0>       0.0800
   36 H36       1.5864    -2.5325    -5.2227 H      1 <0>       0.0700
   37 H37      -1.0180     1.3148    -4.0220 H      1 <0>       0.1200
   38 H38      -2.6249     3.1555    -3.7237 H      1 <0>       0.1200
   39 H39      -1.0844     3.8761     0.1914 H      1 <0>       0.1300
@<TRIPOS>BOND
   1    1    2 1
   2    1   25 1
   3    1   26 1
   4    1   27 1
   5    2    3 1
   6    2   28 1
   7    2   29 1
   8    3    4 1
   9    4    5 2
  10    4    6 1
  11    6   11 1
  12    6    7 2
  13    7    8 1
  14    7   30 1
  15    8    9 1
  16    8   31 1
  17    8   32 1
  18    9   10 1
  19    9   33 1
  20    9   34 1
  21   10   11 1
  22   10   35 1
  23   10   36 1
  24   11   12 1
  25   11   13 1
  26   13   14 2
  27   13   15 2
  28   13   16 1
  29   16   17 1
  30   17   23 ar
  31   17   18 ar
  32   18   19 ar
  33   18   37 1
  34   19   20 ar
  35   19   38 1
  36   20   21 1
  37   20   22 ar
  38   22   23 ar
  39   22   39 1
  40   23   24 1
