@<TRIPOS>MOLECULE
ZINC000043176569
34    37    1     0     0
SMALL
USER_CHARGES
@<TRIPOS>ATOM
1      O1      0.0468    0.2317    1.5698 O.2      1 ZINC000043176569   -0.5000
2      C2      0.0263    1.3714    1.1455 C.2      1 ZINC000043176569    0.5600
3      N3     -1.0304    2.0113    0.6320 N.pl3    1 ZINC000043176569   -0.7100
4      C4     -0.8959    3.2575    0.2098 C.2      1 ZINC000043176569    0.5300
5      O5     -1.8197    3.8908   -0.2658 O.2      1 ZINC000043176569   -0.5400
6      C6      0.4530    3.8193    0.3591 C.2      1 ZINC000043176569   -0.1500
7      C7      0.8831    5.0600    0.0177 C.2      1 ZINC000043176569   -0.0500
8      C8      2.3128    5.3883    0.0931 C.ar     1 ZINC000043176569   -0.0300
9      C9      3.2721    4.3571    0.0602 C.ar     1 ZINC000043176569   -0.0900
10     C10     4.5974    4.6374    0.1289 C.ar     1 ZINC000043176569   -0.0900
11     C11     5.0339    5.9723    0.2347 C.ar     1 ZINC000043176569    0.1300
12     N12     6.3368    6.2605    0.3030 N.ar     1 ZINC000043176569   -0.4700
13     C13     6.7687    7.4951    0.4016 C.ar     1 ZINC000043176569    0.1200
14     C14     5.8975    8.5777    0.4414 C.ar     1 ZINC000043176569   -0.1600
15     C15     4.5282    8.3586    0.3751 C.ar     1 ZINC000043176569    0.0000
16     C16     3.5701    9.4875    0.4142 C.ar     1 ZINC000043176569    0.0000
17     C17     2.5486    9.5966   -0.5352 C.ar     1 ZINC000043176569   -0.1600
18     C18     1.6779   10.6646   -0.4616 C.ar     1 ZINC000043176569    0.1000
19     N19     1.7997   11.5736    0.4865 N.ar     1 ZINC000043176569   -0.4800
20     C20     2.7482   11.5084    1.4008 C.ar     1 ZINC000043176569    0.1000
21     C21     3.6581   10.4710    1.4051 C.ar     1 ZINC000043176569   -0.1600
22     C22     4.0766    7.0173    0.2682 C.ar     1 ZINC000043176569   -0.0800
23     C23     2.7143    6.7165    0.1910 C.ar     1 ZINC000043176569   -0.1000
24     S24     1.3887    2.5037    1.0966 S.3      1 ZINC000043176569   -0.2700
25     H25     0.1742    5.8062   -0.3096 H        1 ZINC000043176569    0.1500
26     H26     2.9480    3.3300   -0.0204 H        1 ZINC000043176569    0.1600
27     H27     5.3197    3.8350    0.1028 H        1 ZINC000043176569    0.1400
28     H28     7.8322    7.6758    0.4537 H        1 ZINC000043176569    0.1600
29     H29     6.2834    9.5830    0.5237 H        1 ZINC000043176569    0.1400
30     H30     2.4432    8.8562   -1.3144 H        1 ZINC000043176569    0.1400
31     H31     0.8863   10.7577   -1.1903 H        1 ZINC000043176569    0.1600
32     H32     2.8107   12.2749    2.1591 H        1 ZINC000043176569    0.1600
33     H33     4.4322   10.4239    2.1568 H        1 ZINC000043176569    0.1400
34     H34     1.9795    7.5077    0.2121 H        1 ZINC000043176569    0.1300
@<TRIPOS>BOND
1     1     2     2
2     2     24    1
3     2     3     1
4     3     4     1
5     4     5     2
6     4     6     1
7     6     7     2
8     6     24    1
9     7     8     1
10    7     25    1
11    8     23    ar
12    8     9     ar
13    9     10    ar
14    9     26    1
15    10    11    ar
16    10    27    1
17    11    22    ar
18    11    12    ar
19    12    13    ar
20    13    14    ar
21    13    28    1
22    14    15    ar
23    14    29    1
24    15    16    1
25    15    22    ar
26    16    21    ar
27    16    17    ar
28    17    18    ar
29    17    30    1
30    18    19    ar
31    18    31    1
32    19    20    ar
33    20    21    ar
34    20    32    1
35    21    33    1
36    22    23    ar
37    23    34    1
@<TRIPOS>SUBSTRUCTURE
1   ZINC000043176569 1     RESIDUE    1   A     ZIN   1
