@<TRIPOS>MOLECULE
ZINC000095616569
56    59    1     0     0
SMALL
USER_CHARGES
@<TRIPOS>ATOM
1      C1      0.3569    1.2353    0.7287 C.3      1 ZINC000095616569    0.0300
2      O2      0.2854   -0.1798    0.5436 O.3      1 ZINC000095616569   -0.3200
3      C3     -0.9547   -0.7325    0.4845 C.ar     1 ZINC000095616569    0.1300
4      C4     -2.0796    0.0713    0.5965 C.ar     1 ZINC000095616569   -0.2000
5      C5     -3.3393   -0.4930    0.5356 C.ar     1 ZINC000095616569   -0.0700
6      C6     -3.4791   -1.8576    0.3637 C.ar     1 ZINC000095616569   -0.1100
7      C7     -2.3592   -2.6612    0.2523 C.ar     1 ZINC000095616569   -0.0500
8      C8     -2.5153   -4.1484    0.0654 C.3      1 ZINC000095616569    0.1200
9      H9     -1.6229   -4.6561    0.4312 H        1 ZINC000095616569    0.0900
10     O10    -3.6556   -4.6032    0.7968 O.3      1 ZINC000095616569   -0.2900
11     C11    -3.5850   -5.8484    1.3387 C.ar     1 ZINC000095616569    0.1000
12     C12    -4.6838   -6.3722    2.0170 C.ar     1 ZINC000095616569   -0.0900
13     C13    -4.6341   -7.6206    2.5688 C.ar     1 ZINC000095616569   -0.1000
14     C14    -3.4774   -8.3865    2.4578 C.ar     1 ZINC000095616569    0.1000
15     C15    -2.3615   -7.8668    1.7739 C.ar     1 ZINC000095616569   -0.1300
16     C16    -2.4281   -6.5882    1.2090 C.ar     1 ZINC000095616569   -0.1400
17     C17    -1.3278   -8.8956    1.8325 C.2      1 ZINC000095616569    0.0800
18     N18    -1.8116   -9.9106    2.4909 N.2      1 ZINC000095616569   -0.2400
19     N19    -3.1242   -9.6420    2.8920 N.pl3    1 ZINC000095616569   -0.3600
20     C20    -3.9466  -10.5122    3.6192 C.ar     1 ZINC000095616569    0.1600
21     C21    -4.8460  -10.0053    4.5480 C.ar     1 ZINC000095616569   -0.1100
22     C22    -5.6561  -10.8649    5.2636 C.ar     1 ZINC000095616569   -0.1300
23     C23    -5.5717  -12.2315    5.0557 C.ar     1 ZINC000095616569    0.0900
24     F24    -6.3651  -13.0707    5.7568 F        1 ZINC000095616569   -0.1300
25     C25    -4.6754  -12.7390    4.1300 C.ar     1 ZINC000095616569   -0.1300
26     C26    -3.8675  -11.8825    3.4083 C.ar     1 ZINC000095616569   -0.0900
27     C27    -2.7057   -4.4585   -1.4207 C.3      1 ZINC000095616569    0.1300
28     H28    -3.5981   -3.9507   -1.7864 H        1 ZINC000095616569    0.1100
29     C29    -2.8641   -5.9684   -1.6103 C.3      1 ZINC000095616569   -0.1700
30     N30    -1.5367   -3.9922   -2.1705 N.am     1 ZINC000095616569   -0.7000
31     C31    -1.4660   -2.7100   -2.5796 C.2      1 ZINC000095616569    0.4800
32     O32    -2.3703   -1.9422   -2.3271 O.2      1 ZINC000095616569   -0.4500
33     C33    -0.2635   -2.2303   -3.3509 C.3      1 ZINC000095616569    0.4500
34     F34    -0.4193   -0.8753   -3.6622 F        1 ZINC000095616569   -0.1500
35     F35     0.8873   -2.4010   -2.5739 F        1 ZINC000095616569   -0.1600
36     F36    -0.1423   -2.9693   -4.5326 F        1 ZINC000095616569   -0.1700
37     C37    -1.0978   -2.1011    0.3063 C.ar     1 ZINC000095616569   -0.1500
38     H38     1.4013    1.5457    0.7580 H        1 ZINC000095616569    0.1000
39     H39    -0.1478    1.7358   -0.0978 H        1 ZINC000095616569    0.0600
40     H40    -0.1285    1.5040    1.6669 H        1 ZINC000095616569    0.0600
41     H41    -1.9708    1.1373    0.7315 H        1 ZINC000095616569    0.1300
42     H42    -4.2154    0.1324    0.6228 H        1 ZINC000095616569    0.1300
43     H43    -4.4647   -2.2968    0.3168 H        1 ZINC000095616569    0.1300
44     H44    -5.5850   -5.7840    2.1079 H        1 ZINC000095616569    0.1400
45     H45    -5.4932   -8.0138    3.0920 H        1 ZINC000095616569    0.1400
46     H46    -1.5778   -6.1810    0.6822 H        1 ZINC000095616569    0.1400
47     H47    -0.3379   -8.8275    1.4060 H        1 ZINC000095616569    0.2000
48     H48    -4.9116   -8.9397    4.7109 H        1 ZINC000095616569    0.1400
49     H49    -6.3557  -10.4711    5.9860 H        1 ZINC000095616569    0.1500
50     H50    -4.6109  -13.8050    3.9697 H        1 ZINC000095616569    0.1500
51     H51    -3.1687  -12.2786    2.6864 H        1 ZINC000095616569    0.1400
52     H52    -3.7339   -6.3153   -1.0525 H        1 ZINC000095616569    0.0900
53     H53    -2.9997   -6.1893   -2.6691 H        1 ZINC000095616569    0.0700
54     H54    -1.9717   -6.4762   -1.2446 H        1 ZINC000095616569    0.0700
55     H55    -0.8134   -4.6062   -2.3724 H        1 ZINC000095616569    0.4100
56     H56    -0.2235   -2.7291    0.2188 H        1 ZINC000095616569    0.1200
@<TRIPOS>BOND
1     1     2     1
2     1     38    1
3     1     39    1
4     1     40    1
5     2     3     1
6     3     37    ar
7     3     4     ar
8     4     5     ar
9     4     41    1
10    5     6     ar
11    5     42    1
12    6     7     ar
13    6     43    1
14    7     8     1
15    7     37    ar
16    8     9     1
17    8     10    1
18    8     27    1
19    10    11    1
20    11    16    ar
21    11    12    ar
22    12    13    ar
23    12    44    1
24    13    14    ar
25    13    45    1
26    14    19    1
27    14    15    ar
28    15    16    ar
29    15    17    1
30    16    46    1
31    17    18    2
32    17    47    1
33    18    19    1
34    19    20    1
35    20    26    ar
36    20    21    ar
37    21    22    ar
38    21    48    1
39    22    23    ar
40    22    49    1
41    23    24    1
42    23    25    ar
43    25    26    ar
44    25    50    1
45    26    51    1
46    27    28    1
47    27    29    1
48    27    30    1
49    29    52    1
50    29    53    1
51    29    54    1
52    30    31    am
53    30    55    1
54    31    32    2
55    31    33    1
56    33    34    1
57    33    35    1
58    33    36    1
59    37    56    1
@<TRIPOS>SUBSTRUCTURE
1   ZINC000095616569 1     RESIDUE    1   A     ZIN   1
