@<TRIPOS>MOLECULE
ZINC000000598255
  60   63    0    0    0
SMALL
USER_CHARGES
NO_NAME
@<TRIPOS>ATOM
    1 O1        0.0021    -0.0041     0.0020 O.2    1 <0>      -0.4500
    2 C2       -0.0144     1.2083     0.0087 C.2    1 <0>       0.4000
    3 C3        1.2803     1.9795     0.0005 C.3    1 <0>      -0.1700
    4 C4        2.4566     1.0012    -0.0160 C.3    1 <0>      -0.1000
    5 C5        3.7710     1.7842    -0.0244 C.3    1 <0>      -0.0900
    6 C6        3.9148     2.5567     1.2898 C.3    1 <0>      -0.1100
    7 C7        5.2586     3.2889     1.3010 C.3    1 <0>       0.0600
    8 N8        6.3492     2.3153     1.1630 N.3    1 <0>      -0.5300
    9 C9        7.6579     2.9665     1.3085 C.3    1 <0>       0.0900
   10 C10       8.7463     1.9989     0.9210 C.ar   1 <0>      -0.0800
   11 C11       9.3055     1.1695     1.8751 C.ar   1 <0>      -0.1000
   12 C12      10.3039     0.2819     1.5198 C.ar   1 <0>      -0.1200
   13 C13      10.7428     0.2234     0.2102 C.ar   1 <0>      -0.1200
   14 C14      10.1829     1.0521    -0.7441 C.ar   1 <0>      -0.1200
   15 C15       9.1815     1.9367    -0.3895 C.ar   1 <0>      -0.1100
   16 C16       6.2590     1.5943    -0.1131 C.3    1 <0>       0.0500
   17 C17       4.9451     0.8116    -0.1666 C.3    1 <0>      -0.1100
   18 C18      -1.2989     1.9269     0.0187 C.ar   1 <0>      -0.1700
   19 C19      -1.3196     3.3252     0.0206 C.ar   1 <0>      -0.0800
   20 C20      -2.5256     3.9970     0.0432 C.ar   1 <0>      -0.1200
   21 C21      -3.7098     3.2866     0.0658 C.ar   1 <0>      -0.0700
   22 C22      -5.0325     4.0255     0.1646 C.3    1 <0>      -0.0800
   23 C23      -5.8063     3.8449    -1.1375 C.3    1 <0>      -0.1100
   24 C24      -6.6088     2.5510    -1.1254 C.3    1 <0>      -0.1400
   25 C25      -5.7526     1.3081    -1.1878 C.3    1 <0>       0.1400
   26 N26      -4.9139     1.2004     0.0162 N.pl3  1 <0>      -0.7900
   27 C27      -3.7042     1.9011     0.0382 C.ar   1 <0>       0.1600
   28 C28      -2.5011     1.2129     0.0205 C.ar   1 <0>      -0.0800
   29 H29       1.3211     2.6117    -0.8866 H      1 <0>       0.1000
   30 H30       1.3381     2.6021     0.8933 H      1 <0>       0.1000
   31 H31       2.4158     0.3691     0.8710 H      1 <0>       0.0700
   32 H32       2.3988     0.3786    -0.9088 H      1 <0>       0.0700
   33 H33       3.7735     2.4829    -0.8609 H      1 <0>       0.0700
   34 H34       3.1050     3.2811     1.3765 H      1 <0>       0.0700
   35 H35       3.8726     1.8607     2.1276 H      1 <0>       0.0700
   36 H36       5.2946     3.9947     0.4711 H      1 <0>       0.0300
   37 H37       5.3703     3.8285     2.2415 H      1 <0>       0.0800
   38 H38       7.7022     3.8417     0.6603 H      1 <0>       0.0400
   39 H39       7.7974     3.2743     2.3447 H      1 <0>       0.0800
   40 H40       8.9627     1.2152     2.8982 H      1 <0>       0.1200
   41 H41      10.7414    -0.3656     2.2653 H      1 <0>       0.1200
   42 H42      11.5233    -0.4696    -0.0673 H      1 <0>       0.1200
   43 H43      10.5259     1.0066    -1.7671 H      1 <0>       0.1200
   44 H44       8.7440     2.5841    -1.1351 H      1 <0>       0.1200
   45 H45       6.2903     2.3080    -0.9364 H      1 <0>       0.0300
   46 H46       7.0973     0.9031    -0.1998 H      1 <0>       0.0800
   47 H47       4.9191     0.0881     0.6483 H      1 <0>       0.0700
   48 H48       4.8713     0.2891    -1.1204 H      1 <0>       0.0700
   49 H49      -0.3927     3.8793     0.0048 H      1 <0>       0.1300
   50 H50      -2.5430     5.0769     0.0435 H      1 <0>       0.1300
   51 H51      -5.6144     3.6215     0.9931 H      1 <0>       0.0800
   52 H52      -4.8455     5.0861     0.3330 H      1 <0>       0.0700
   53 H53      -6.4868     4.6862    -1.2685 H      1 <0>       0.0700
   54 H54      -5.1037     3.8218    -1.9705 H      1 <0>       0.0600
   55 H55      -7.2046     2.5186    -0.2132 H      1 <0>       0.0600
   56 H56      -7.2849     2.5520    -1.9804 H      1 <0>       0.0700
   57 H57      -6.3956     0.4308    -1.2587 H      1 <0>       0.0700
   58 H58      -5.1133     1.3549    -2.0693 H      1 <0>       0.0600
   59 H59      -5.1919     0.6598     0.7721 H      1 <0>       0.4000
   60 H60      -2.4923     0.1329     0.0126 H      1 <0>       0.1300
@<TRIPOS>BOND
   1    1    2 2
   2    2    3 1
   3    2   18 1
   4    3    4 1
   5    3   29 1
   6    3   30 1
   7    4    5 1
   8    4   31 1
   9    4   32 1
  10    5   17 1
  11    5    6 1
  12    5   33 1
  13    6    7 1
  14    6   34 1
  15    6   35 1
  16    7    8 1
  17    7   36 1
  18    7   37 1
  19    8    9 1
  20    8   16 1
  21    9   10 1
  22    9   38 1
  23    9   39 1
  24   10   15 ar
  25   10   11 ar
  26   11   12 ar
  27   11   40 1
  28   12   13 ar
  29   12   41 1
  30   13   14 ar
  31   13   42 1
  32   14   15 ar
  33   14   43 1
  34   15   44 1
  35   16   17 1
  36   16   45 1
  37   16   46 1
  38   17   47 1
  39   17   48 1
  40   18   28 ar
  41   18   19 ar
  42   19   20 ar
  43   19   49 1
  44   20   21 ar
  45   20   50 1
  46   21   27 ar
  47   21   22 1
  48   22   23 1
  49   22   51 1
  50   22   52 1
  51   23   24 1
  52   23   53 1
  53   23   54 1
  54   24   25 1
  55   24   55 1
  56   24   56 1
  57   25   26 1
  58   25   57 1
  59   25   58 1
  60   26   27 1
  61   26   59 1
  62   27   28 ar
  63   28   60 1
