@<TRIPOS>MOLECULE
ZINC000115193490
81    84    1     0     0
SMALL
USER_CHARGES
@<TRIPOS>ATOM
1      C1     -0.0157    1.3058    0.0092 C.2      1 ZINC000115193490   -0.1900
2      C2      0.0021   -0.0041    0.0020 C.2      1 ZINC000115193490   -0.1300
3      C3      1.3161   -0.7391   -0.0145 C.3      1 ZINC000115193490   -0.0500
4      C4      2.4464    0.3090    0.0267 C.3      1 ZINC000115193490   -0.1600
5      C5      1.4697   -1.5716   -1.3061 C.3      1 ZINC000115193490   -0.1200
6      C6      0.3687   -2.6233   -1.5133 C.3      1 ZINC000115193490    0.1300
7      H7     -0.5628   -2.3013   -1.0715 H        1 ZINC000115193490    0.1000
8      O8      0.1657   -2.7069   -2.9622 O.3      1 ZINC000115193490   -0.3400
9      C9     -0.7501   -1.8845   -3.4977 C.2      1 ZINC000115193490    0.4700
10     O10    -1.3633   -1.1206   -2.7903 O.2      1 ZINC000115193490   -0.4800
11     C11    -1.0134   -1.9138   -4.9813 C.3      1 ZINC000115193490   -0.1200
12     S12    -2.2938   -0.6964   -5.3924 S.3      1 ZINC000115193490   -0.1200
13     C13    -2.4682   -0.8784   -7.1888 C.3      1 ZINC000115193490   -0.0900
14     H14    -2.6831   -1.9196   -7.4293 H        1 ZINC000115193490    0.1000
15     C15    -1.1669   -0.4550   -7.8730 C.3      1 ZINC000115193490   -0.1100
16     C16    -1.3141   -0.6086   -9.3882 C.3      1 ZINC000115193490   -0.1400
17     C17    -2.4609    0.2760   -9.8815 C.3      1 ZINC000115193490    0.0300
18     H18    -2.2460    1.3171   -9.6409 H        1 ZINC000115193490    0.1500
19     N19    -2.6022    0.1285  -11.3362 N.4      1 ZINC000115193490   -0.6400
20     H20    -2.8011   -0.8353  -11.5588 H        1 ZINC000115193490    0.4300
21     H21    -3.3585    0.7119  -11.6615 H        1 ZINC000115193490    0.4400
22     H22    -1.7440    0.4078  -11.7875 H        1 ZINC000115193490    0.4400
23     C23    -3.7622   -0.1475   -9.1972 C.3      1 ZINC000115193490   -0.1800
24     C24    -3.6150    0.0061   -7.6820 C.3      1 ZINC000115193490    0.1400
25     H25    -3.4002    1.0473   -7.4415 H        1 ZINC000115193490    0.0800
26     O26    -4.8304   -0.3894   -7.0429 O.3      1 ZINC000115193490   -0.5400
27     C27     0.7480   -4.0147   -1.0106 C.3      1 ZINC000115193490   -0.0300
28     C28     1.4885   -4.5752   -2.2373 C.3      1 ZINC000115193490   -0.1800
29     C29     1.7343   -4.1500    0.0705 C.3      1 ZINC000115193490   -0.1500
30     H30     2.4361   -3.3293   -0.0332 H        1 ZINC000115193490    0.1100
31     C31     2.5649   -5.3712    0.2787 C.2      1 ZINC000115193490    0.3800
32     O32     2.8464   -6.2433   -0.5061 O.2      1 ZINC000115193490   -0.4300
33     C33     3.0177   -5.3259    1.7400 C.3      1 ZINC000115193490   -0.1800
34     C34     2.2018   -4.1946    2.4215 C.3      1 ZINC000115193490   -0.1000
35     C35     1.0306   -3.9966    1.4866 C.3      1 ZINC000115193490   -0.0400
36     C36    -0.0019   -5.1108    1.5860 C.3      1 ZINC000115193490   -0.1100
37     C37    -1.0631   -4.9174    0.5005 C.3      1 ZINC000115193490   -0.1200
38     C38    -0.4139   -4.9828   -0.8823 C.3      1 ZINC000115193490   -0.0800
39     H39    -0.0164   -6.0031   -1.0149 H        1 ZINC000115193490    0.0800
40     C40    -1.4752   -4.7514   -1.9524 C.3      1 ZINC000115193490   -0.1500
41     C41     0.3768   -2.6421    1.3628 C.3      1 ZINC000115193490   -0.0700
42     H42    -0.3400   -2.6333    0.5522 H        1 ZINC000115193490    0.1000
43     C43    -0.3708   -2.3298    2.6753 C.3      1 ZINC000115193490   -0.1300
44     C44     1.4526   -1.6036    1.1710 C.3      1 ZINC000115193490    0.1200
45     H45     2.4276   -2.0898    1.1343 H        1 ZINC000115193490    0.0600
46     O46     1.4552   -0.7549    2.3309 O.3      1 ZINC000115193490   -0.5600
47     H47     0.9122    1.8585    0.0033 H        1 ZINC000115193490    0.1000
48     H48    -0.9582    1.8330    0.0166 H        1 ZINC000115193490    0.1000
49     H49    -0.9258   -0.5567    0.0079 H        1 ZINC000115193490    0.1100
50     H50     2.3580    0.9032    0.9362 H        1 ZINC000115193490    0.0700
51     H51     3.4117   -0.1970    0.0157 H        1 ZINC000115193490    0.0600
52     H52     2.3684    0.9618   -0.8428 H        1 ZINC000115193490    0.0700
53     H53     1.4501   -0.8852   -2.1667 H        1 ZINC000115193490    0.0700
54     H54     2.4481   -2.0582   -1.3112 H        1 ZINC000115193490    0.0800
55     H55    -0.0961   -1.6717   -5.5179 H        1 ZINC000115193490    0.1200
56     H56    -1.3517   -2.9088   -5.2706 H        1 ZINC000115193490    0.1200
57     H57    -0.9520    0.5862   -7.6325 H        1 ZINC000115193490    0.0900
58     H58    -0.3499   -1.0852   -7.5216 H        1 ZINC000115193490    0.0900
59     H59    -0.3870   -0.3069   -9.8757 H        1 ZINC000115193490    0.1000
60     H60    -1.5290   -1.6498   -9.6287 H        1 ZINC000115193490    0.0900
61     H61    -4.5792    0.4827   -9.5486 H        1 ZINC000115193490    0.1000
62     H62    -3.9771   -1.1886   -9.4377 H        1 ZINC000115193490    0.1000
63     H63    -5.6016    0.1299   -7.3088 H        1 ZINC000115193490    0.3900
64     H64     2.3480   -3.9439   -2.4627 H        1 ZINC000115193490    0.0500
65     H65     1.8281   -5.5889   -2.0248 H        1 ZINC000115193490    0.0800
66     H66     0.8140   -4.5900   -3.0934 H        1 ZINC000115193490    0.0700
67     H67     2.8081   -6.2829    2.2204 H        1 ZINC000115193490    0.1000
68     H68     4.0838   -5.1089    1.7915 H        1 ZINC000115193490    0.1000
69     H69     1.8525   -4.5109    3.4059 H        1 ZINC000115193490    0.0800
70     H70     2.7938   -3.2845    2.5044 H        1 ZINC000115193490    0.0800
71     H71     0.4941   -6.0724    1.4407 H        1 ZINC000115193490    0.0600
72     H72    -0.4685   -5.0972    2.5690 H        1 ZINC000115193490    0.0800
73     H73    -1.8037   -5.7204    0.5810 H        1 ZINC000115193490    0.0700
74     H74    -1.5713   -3.9656    0.6275 H        1 ZINC000115193490    0.0700
75     H75    -1.9278   -3.7703   -1.8092 H        1 ZINC000115193490    0.0500
76     H76    -1.0131   -4.7979   -2.9385 H        1 ZINC000115193490    0.0600
77     H77    -2.2434   -5.5208   -1.8746 H        1 ZINC000115193490    0.0600
78     H78     0.3372   -2.3241    3.5042 H        1 ZINC000115193490    0.0700
79     H79    -0.8478   -1.3528    2.5982 H        1 ZINC000115193490    0.0600
80     H80    -1.1300   -3.0919    2.8512 H        1 ZINC000115193490    0.0500
81     H81     2.1175   -0.0509    2.3016 H        1 ZINC000115193490    0.3700
@<TRIPOS>BOND
1     1     2     2
2     1     47    1
3     1     48    1
4     2     3     1
5     2     49    1
6     3     44    1
7     3     4     1
8     3     5     1
9     4     50    1
10    4     51    1
11    4     52    1
12    5     6     1
13    5     53    1
14    5     54    1
15    6     7     1
16    6     8     1
17    6     27    1
18    8     9     1
19    9     10    2
20    9     11    1
21    11    12    1
22    11    55    1
23    11    56    1
24    12    13    1
25    13    14    1
26    13    24    1
27    13    15    1
28    15    16    1
29    15    57    1
30    15    58    1
31    16    17    1
32    16    59    1
33    16    60    1
34    17    18    1
35    17    19    1
36    17    23    1
37    19    20    1
38    19    21    1
39    19    22    1
40    23    24    1
41    23    61    1
42    23    62    1
43    24    25    1
44    24    26    1
45    26    63    1
46    27    38    1
47    27    28    1
48    27    29    1
49    28    64    1
50    28    65    1
51    28    66    1
52    29    30    1
53    29    35    1
54    29    31    1
55    31    32    2
56    31    33    1
57    33    34    1
58    33    67    1
59    33    68    1
60    34    35    1
61    34    69    1
62    34    70    1
63    35    36    1
64    35    41    1
65    36    37    1
66    36    71    1
67    36    72    1
68    37    38    1
69    37    73    1
70    37    74    1
71    38    39    1
72    38    40    1
73    40    75    1
74    40    76    1
75    40    77    1
76    41    42    1
77    41    43    1
78    41    44    1
79    43    78    1
80    43    79    1
81    43    80    1
82    44    45    1
83    44    46    1
84    46    81    1
@<TRIPOS>SUBSTRUCTURE
1   ZINC000115193490 1     RESIDUE    1   A     ZIN   1
