@<TRIPOS>MOLECULE
ZINC000033970497
62    67    1     0     0
SMALL
USER_CHARGES
@<TRIPOS>ATOM
1      C1     -0.1381    1.2248    0.7279 C.3      1 ZINC000033970497   -0.0500
2      C2     -0.1414   -0.2363    0.5497 C.1      1 ZINC000033970497   -0.1500
3      C3     -0.1441   -1.4017    0.4076 C.1      1 ZINC000033970497   -0.2100
4      C4     -0.1474   -2.8568    0.2302 C.3      1 ZINC000033970497    0.2600
5      O5      0.4302   -3.4714    1.3956 O.3      1 ZINC000033970497   -0.5400
6      C6      0.6978   -3.2429   -1.0056 C.3      1 ZINC000033970497   -0.1400
7      C7      0.0145   -4.5182   -1.5487 C.3      1 ZINC000033970497   -0.1200
8      C8     -1.5003   -4.2279   -1.3257 C.3      1 ZINC000033970497   -0.0700
9      H9     -2.0698   -5.1683   -1.2355 H        1 ZINC000033970497    0.0900
10     C10    -1.9582   -3.4448   -2.5609 C.3      1 ZINC000033970497   -0.0500
11     H11    -1.1800   -2.7372   -2.8295 H        1 ZINC000033970497    0.0800
12     C12    -2.1416   -4.4220   -3.7098 C.3      1 ZINC000033970497   -0.1100
13     C13    -2.9696   -3.7827   -4.8231 C.3      1 ZINC000033970497   -0.1000
14     C14    -4.3086   -3.4152   -4.2302 C.2      1 ZINC000033970497    0.0200
15     C15    -5.4382   -3.6736   -4.9230 C.2      1 ZINC000033970497   -0.2500
16     C16    -6.6994   -3.4016   -4.3719 C.2      1 ZINC000033970497    0.3900
17     O17    -7.6903   -3.4301   -5.0677 O.2      1 ZINC000033970497   -0.4700
18     C18    -6.8170   -3.0988   -2.9040 C.3      1 ZINC000033970497   -0.1700
19     C19    -5.6575   -2.2019   -2.4571 C.3      1 ZINC000033970497   -0.0700
20     C20    -4.3360   -2.7638   -2.9074 C.2      1 ZINC000033970497   -0.1000
21     C21    -3.2024   -2.6469   -2.2422 C.2      1 ZINC000033970497   -0.0500
22     C22    -2.9241   -1.6615   -1.1255 C.3      1 ZINC000033970497   -0.0100
23     H23    -1.9580   -1.1743   -1.3923 H        1 ZINC000033970497    0.0900
24     C24    -3.9262   -0.5551   -0.9188 C.ar     1 ZINC000033970497   -0.0500
25     C25    -4.9299   -0.7003    0.0201 C.ar     1 ZINC000033970497   -0.1000
26     C26    -5.8517    0.3121    0.2135 C.ar     1 ZINC000033970497   -0.1000
27     C27    -5.7713    1.4749   -0.5346 C.ar     1 ZINC000033970497    0.0300
28     O28    -6.5402    2.6028   -0.5402 O.3      1 ZINC000033970497   -0.3100
29     C29    -5.7490    3.6042   -1.2069 C.3      1 ZINC000033970497    0.2100
30     O30    -4.8950    2.8407   -2.0793 O.3      1 ZINC000033970497   -0.3100
31     C31    -4.7596    1.6213   -1.4811 C.ar     1 ZINC000033970497    0.0400
32     C32    -3.8361    0.6056   -1.6650 C.ar     1 ZINC000033970497   -0.0900
33     C33    -2.6912   -2.4858    0.1371 C.3      1 ZINC000033970497   -0.0900
34     C34    -1.5366   -3.4453   -0.0104 C.3      1 ZINC000033970497   -0.0300
35     C35    -1.7414   -4.5054    1.1048 C.3      1 ZINC000033970497   -0.1300
36     H36     0.8830    1.5683    0.8939 H        1 ZINC000033970497    0.0800
37     H37    -0.5407    1.7008   -0.1662 H        1 ZINC000033970497    0.0800
38     H38    -0.7541    1.4874    1.5880 H        1 ZINC000033970497    0.0800
39     H39     1.3389   -3.1948    1.5766 H        1 ZINC000033970497    0.3800
40     H40     0.6655   -2.4485   -1.7466 H        1 ZINC000033970497    0.0800
41     H41     1.7213   -3.4572   -0.7093 H        1 ZINC000033970497    0.0800
42     H42     0.2317   -4.6446   -2.6093 H        1 ZINC000033970497    0.0800
43     H43     0.3305   -5.3950   -0.9860 H        1 ZINC000033970497    0.0800
44     H44    -1.1677   -4.7038   -4.1065 H        1 ZINC000033970497    0.0800
45     H45    -2.6559   -5.3118   -3.3493 H        1 ZINC000033970497    0.0700
46     H46    -2.4703   -2.8867   -5.1879 H        1 ZINC000033970497    0.0900
47     H47    -3.1088   -4.4926   -5.6361 H        1 ZINC000033970497    0.0900
48     H48    -5.3685   -4.0937   -5.9170 H        1 ZINC000033970497    0.1300
49     H49    -7.7616   -2.5884   -2.7132 H        1 ZINC000033970497    0.0900
50     H50    -6.7907   -4.0306   -2.3382 H        1 ZINC000033970497    0.1000
51     H51    -5.7993   -1.2018   -2.8596 H        1 ZINC000033970497    0.0800
52     H52    -5.6974   -2.1804   -1.3616 H        1 ZINC000033970497    0.0900
53     H53    -4.9946   -1.6067    0.6039 H        1 ZINC000033970497    0.1400
54     H54    -6.6350    0.1959    0.9480 H        1 ZINC000033970497    0.1400
55     H55    -6.3862    4.2738   -1.7845 H        1 ZINC000033970497    0.1300
56     H56    -5.1555    4.1661   -0.4856 H        1 ZINC000033970497    0.0900
57     H57    -3.0472    0.7189   -2.3939 H        1 ZINC000033970497    0.1300
58     H58    -2.5619   -1.8395    0.9978 H        1 ZINC000033970497    0.0800
59     H59    -3.5994   -3.0831    0.3218 H        1 ZINC000033970497    0.0700
60     H60    -2.6930   -5.0145    0.9518 H        1 ZINC000033970497    0.0500
61     H61    -0.9302   -5.2326    1.0682 H        1 ZINC000033970497    0.0700
62     H62    -1.7447   -4.0135    2.0775 H        1 ZINC000033970497    0.0600
@<TRIPOS>BOND
1     1     2     1
2     1     36    1
3     1     37    1
4     1     38    1
5     2     3     3
6     3     4     1
7     4     34    1
8     4     5     1
9     4     6     1
10    5     39    1
11    6     7     1
12    6     40    1
13    6     41    1
14    7     8     1
15    7     42    1
16    7     43    1
17    8     9     1
18    8     34    1
19    8     10    1
20    10    11    1
21    10    21    1
22    10    12    1
23    12    13    1
24    12    44    1
25    12    45    1
26    13    14    1
27    13    46    1
28    13    47    1
29    14    20    1
30    14    15    2
31    15    16    1
32    15    48    1
33    16    17    2
34    16    18    1
35    18    19    1
36    18    49    1
37    18    50    1
38    19    20    1
39    19    51    1
40    19    52    1
41    20    21    2
42    21    22    1
43    22    23    1
44    22    24    1
45    22    33    1
46    24    32    ar
47    24    25    ar
48    25    26    ar
49    25    53    1
50    26    27    ar
51    26    54    1
52    27    31    ar
53    27    28    1
54    28    29    1
55    29    30    1
56    29    55    1
57    29    56    1
58    30    31    1
59    31    32    ar
60    32    57    1
61    33    34    1
62    33    58    1
63    33    59    1
64    34    35    1
65    35    60    1
66    35    61    1
67    35    62    1
@<TRIPOS>SUBSTRUCTURE
1   ZINC000033970497 1     RESIDUE    1   A     ZIN   1
