@<TRIPOS>MOLECULE
ZINC000000005218
  39   41    0    0    0
SMALL
USER_CHARGES
NO_NAME
@<TRIPOS>ATOM
    1 C1       -0.0187     1.5258     0.0104 C.3    1 <0>      -0.1500
    2 C2        0.0021    -0.0041     0.0020 C.3    1 <0>      -0.0700
    3 C3       -1.4117    -0.5257     0.0127 C.2    1 <0>      -0.1900
    4 C4       -2.0210    -0.8549    -1.1502 C.2    1 <0>       0.1600
    5 C5       -1.2781    -0.6968    -2.4518 C.3    1 <0>      -0.1300
    6 N6       -3.2941    -1.3264    -1.1565 N.am   1 <0>      -0.6000
    7 C7       -3.9784    -1.4765    -0.0065 C.2    1 <0>       0.5200
    8 O8       -5.1222    -1.9021    -0.0284 O.2    1 <0>      -0.5500
    9 C9       -3.3761    -1.1438     1.2188 C.2    1 <0>      -0.2200
   10 C10      -4.1352    -1.3094     2.5101 C.3    1 <0>      -0.0500
   11 C11      -4.9889    -0.0651     2.7630 C.3    1 <0>      -0.0200
   12 C12      -5.7480    -0.2307     4.0543 C.2    1 <0>       0.2600
   13 N13      -5.3158     0.1393     5.2222 N.2    1 <0>      -0.4800
   14 C14      -6.2591    -0.1633     6.1549 C.ar   1 <0>       0.0200
   15 C15      -6.3370     0.0008     7.5385 C.ar   1 <0>      -0.0600
   16 C16      -7.4598    -0.4228     8.2143 C.ar   1 <0>      -0.1200
   17 C17      -8.5120    -1.0107     7.5286 C.ar   1 <0>      -0.0900
   18 C18      -8.4485    -1.1797     6.1609 C.ar   1 <0>      -0.0900
   19 C19      -7.3261    -0.7587     5.4646 C.ar   1 <0>       0.0100
   20 O20      -6.9697    -0.7764     4.1614 O.3    1 <0>      -0.2100
   21 C21      -2.0949    -0.6758     1.2277 C.2    1 <0>       0.0000
   22 H22       1.0039     1.9031     0.0027 H      1 <0>       0.0600
   23 H23      -0.5459     1.8868    -0.8726 H      1 <0>       0.0500
   24 H24      -0.5289     1.8773     0.9072 H      1 <0>       0.0600
   25 H25       0.5123    -0.3556    -0.8948 H      1 <0>       0.0700
   26 H26       0.5293    -0.3651     0.8851 H      1 <0>       0.0800
   27 H27      -0.7440    -1.6192    -2.6797 H      1 <0>       0.0900
   28 H28      -1.9872    -0.4806    -3.2509 H      1 <0>       0.0800
   29 H29      -0.5658     0.1239    -2.3662 H      1 <0>       0.1000
   30 H30      -3.7156    -1.5576    -1.9990 H      1 <0>       0.4100
   31 H31      -4.7805    -2.1852     2.4425 H      1 <0>       0.0900
   32 H32      -3.4307    -1.4397     3.3316 H      1 <0>       0.0800
   33 H33      -4.3436     0.8107     2.8307 H      1 <0>       0.1100
   34 H34      -5.6934     0.0652     1.9416 H      1 <0>       0.1000
   35 H35      -5.5201     0.4577     8.0772 H      1 <0>       0.1400
   36 H36      -7.5210    -0.2967     9.2851 H      1 <0>       0.1400
   37 H37      -9.3875    -1.3390     8.0692 H      1 <0>       0.1400
   38 H38      -9.2719    -1.6384     5.6336 H      1 <0>       0.1400
   39 H39      -1.6153    -0.4152     2.1596 H      1 <0>       0.1400
@<TRIPOS>BOND
   1    1    2 1
   2    1   22 1
   3    1   23 1
   4    1   24 1
   5    2    3 1
   6    2   25 1
   7    2   26 1
   8    3   21 1
   9    3    4 2
  10    4    5 1
  11    4    6 1
  12    5   27 1
  13    5   28 1
  14    5   29 1
  15    6    7 am
  16    6   30 1
  17    7    8 2
  18    7    9 1
  19    9   10 1
  20    9   21 2
  21   10   11 1
  22   10   31 1
  23   10   32 1
  24   11   12 1
  25   11   33 1
  26   11   34 1
  27   12   20 1
  28   12   13 2
  29   13   14 1
  30   14   19 ar
  31   14   15 ar
  32   15   16 ar
  33   15   35 1
  34   16   17 ar
  35   16   36 1
  36   17   18 ar
  37   17   37 1
  38   18   19 ar
  39   18   38 1
  40   19   20 1
  41   21   39 1
