@<TRIPOS>MOLECULE
ZINC000003871702
40    42    1     0     0
SMALL
USER_CHARGES
@<TRIPOS>ATOM
1      C1     -0.4096    1.6319    0.5283 C.3      1 ZINC000003871702   -0.1200
2      C2     -0.2542    0.1545    0.1625 C.3      1 ZINC000003871702    0.0000
3      C3     -1.6148   -0.5401    0.0767 C.3      1 ZINC000003871702   -0.1500
4      S4      0.7067   -0.0538   -1.3958 S.3      1 ZINC000003871702   -0.3100
5      C5      1.4062   -1.6866   -0.9346 C.3      1 ZINC000003871702    0.0900
6      H6      2.4306   -1.8438   -1.2723 H        1 ZINC000003871702    0.1500
7      C7      0.4544   -2.8517   -1.1998 C.3      1 ZINC000003871702    0.0900
8      H8      0.9321   -3.7350   -1.6238 H        1 ZINC000003871702    0.1400
9      N9     -0.7852   -2.4758   -1.8840 N.am     1 ZINC000003871702   -0.7000
10     C10    -1.5477   -3.4227   -2.4657 C.2      1 ZINC000003871702    0.5200
11     O11    -1.2076   -4.5861   -2.4228 O.2      1 ZINC000003871702   -0.5200
12     C12    -2.8229   -3.0360   -3.1696 C.3      1 ZINC000003871702   -0.1000
13     C13    -3.4820   -4.2703   -3.7292 C.ar     1 ZINC000003871702   -0.0600
14     C14    -3.1733   -4.7000   -5.0063 C.ar     1 ZINC000003871702   -0.1000
15     C15    -3.7778   -5.8322   -5.5197 C.ar     1 ZINC000003871702   -0.1200
16     C16    -4.6907   -6.5350   -4.7557 C.ar     1 ZINC000003871702   -0.1200
17     C17    -4.9987   -6.1058   -3.4783 C.ar     1 ZINC000003871702   -0.1200
18     C18    -4.3910   -4.9761   -2.9634 C.ar     1 ZINC000003871702   -0.1000
19     C19     0.3581   -2.8585    0.3024 C.2      1 ZINC000003871702    0.4700
20     O20    -0.2517   -3.5730    1.0695 O.2      1 ZINC000003871702   -0.3800
21     N21     1.1991   -1.7953    0.5164 N.am     1 ZINC000003871702   -0.4900
22     C22     0.6944   -0.5779    1.1535 C.3      1 ZINC000003871702    0.0200
23     H23     1.5308    0.0651    1.4276 H        1 ZINC000003871702    0.1100
24     C24    -0.0899   -0.9411    2.3880 C.2      1 ZINC000003871702    0.5000
25     O25    -0.1942   -2.1089    2.7224 O.co2    1 ZINC000003871702   -0.6400
26     O26    -0.6201   -0.0671    3.0524 O.co2    1 ZINC000003871702   -0.6800
27     H27     0.5654    2.1183    0.4977 H        1 ZINC000003871702    0.0600
28     H28    -1.0788    2.1142   -0.1842 H        1 ZINC000003871702    0.0600
29     H29    -0.8261    1.7158    1.5321 H        1 ZINC000003871702    0.1000
30     H30    -2.1680   -0.1513   -0.7782 H        1 ZINC000003871702    0.0600
31     H31    -1.4678   -1.6135   -0.0433 H        1 ZINC000003871702    0.0700
32     H32    -2.1778   -0.3504    0.9906 H        1 ZINC000003871702    0.0900
33     H33    -1.0573   -1.5454   -1.9184 H        1 ZINC000003871702    0.4100
34     H34    -3.4968   -2.5536   -2.4616 H        1 ZINC000003871702    0.1100
35     H35    -2.5947   -2.3460   -3.9819 H        1 ZINC000003871702    0.1100
36     H36    -2.4601   -4.1509   -5.6032 H        1 ZINC000003871702    0.1200
37     H37    -3.5372   -6.1675   -6.5177 H        1 ZINC000003871702    0.1200
38     H38    -5.1636   -7.4191   -5.1571 H        1 ZINC000003871702    0.1200
39     H39    -5.7122   -6.6547   -2.8816 H        1 ZINC000003871702    0.1200
40     H40    -4.6316   -4.6408   -1.9653 H        1 ZINC000003871702    0.1200
@<TRIPOS>BOND
1     1     2     1
2     1     27    1
3     1     28    1
4     1     29    1
5     2     22    1
6     2     3     1
7     2     4     1
8     3     30    1
9     3     31    1
10    3     32    1
11    4     5     1
12    5     6     1
13    5     21    1
14    5     7     1
15    7     8     1
16    7     9     1
17    7     19    1
18    9     10    am
19    9     33    1
20    10    11    2
21    10    12    1
22    12    13    1
23    12    34    1
24    12    35    1
25    13    18    ar
26    13    14    ar
27    14    15    ar
28    14    36    1
29    15    16    ar
30    15    37    1
31    16    17    ar
32    16    38    1
33    17    18    ar
34    17    39    1
35    18    40    1
36    19    20    2
37    19    21    am
38    21    22    1
39    22    23    1
40    22    24    1
41    24    25    ar
42    24    26    ar
@<TRIPOS>SUBSTRUCTURE
1   ZINC000003871702 1     RESIDUE    1   A     ZIN   1
