@<TRIPOS>MOLECULE
ZINC000003806041
66    65    1     0     0
SMALL
USER_CHARGES
@<TRIPOS>ATOM
1      N1     -0.0160    1.3277    0.0093 N.pl3    1 ZINC000003806041   -0.7900
2      C2      0.0021   -0.0041    0.0020 C.cat    1 ZINC000003806041    0.7400
3      N3      1.1645   -0.6543   -0.0126 N.pl3    1 ZINC000003806041   -0.7900
4      H4      1.1776   -1.6242   -0.0179 H        1 ZINC000003806041    0.4400
5      H5      1.9978   -0.1579   -0.0179 H        1 ZINC000003806041    0.4400
6      N6     -1.1731   -0.7040    0.0095 N.pl3    1 ZINC000003806041   -0.7000
7      C7     -2.4516    0.0111    0.0255 C.3      1 ZINC000003806041    0.0900
8      C8     -3.6008   -0.9989    0.0311 C.3      1 ZINC000003806041   -0.1300
9      C9     -4.9360   -0.2520    0.0478 C.3      1 ZINC000003806041   -0.1200
10     C10    -6.0853   -1.2619    0.0534 C.3      1 ZINC000003806041   -0.1200
11     C11    -7.4205   -0.5151    0.0701 C.3      1 ZINC000003806041   -0.1300
12     C12    -8.5698   -1.5250    0.0757 C.3      1 ZINC000003806041    0.1200
13     N13    -9.8483   -0.8099    0.0917 N.am     1 ZINC000003806041   -0.7300
14     C14   -11.0062   -1.4996    0.0991 C.2      1 ZINC000003806041    0.5200
15     O15   -10.9898   -2.7122    0.0924 O.2      1 ZINC000003806041   -0.5100
16     C16   -12.3213   -0.7639    0.1156 C.3      1 ZINC000003806041    0.0700
17     O17   -13.4120   -1.7224    0.1209 O.3      1 ZINC000003806041   -0.3500
18     C18   -14.6630   -1.2248    0.1355 C.2      1 ZINC000003806041    0.6500
19     O19   -14.8385   -0.0224    0.1436 O.2      1 ZINC000003806041   -0.5700
20     N20   -15.7205   -2.0602    0.1411 N.am     1 ZINC000003806041   -0.7100
21     C21   -17.0817   -1.5188    0.1570 C.3      1 ZINC000003806041    0.1400
22     C22   -18.0888   -2.6706    0.1604 C.3      1 ZINC000003806041   -0.1300
23     C23   -19.5103   -2.1051    0.1770 C.3      1 ZINC000003806041   -0.1200
24     C24   -20.5174   -3.2570    0.1805 C.3      1 ZINC000003806041    0.0600
25     N25   -21.8823   -2.7140    0.1964 N.3      1 ZINC000003806041   -0.6900
26     C26   -22.8783   -3.7937    0.2001 C.3      1 ZINC000003806041    0.0600
27     C27   -24.2843   -3.1905    0.2168 C.3      1 ZINC000003806041   -0.1500
28     C28   -25.3217   -4.3151    0.2207 C.3      1 ZINC000003806041   -0.0100
29     N29   -26.6716   -3.7359    0.2367 N.4      1 ZINC000003806041   -0.6400
30     H30   -27.3558   -4.4776    0.2392 H        1 ZINC000003806041    0.4400
31     H31   -26.7853   -3.1706    1.0647 H        1 ZINC000003806041    0.4400
32     H32   -26.8010   -3.1618   -0.5829 H        1 ZINC000003806041    0.4400
33     H33     0.8174    1.8241    0.0041 H        1 ZINC000003806041    0.4400
34     H34    -0.8625    1.8013    0.0159 H        1 ZINC000003806041    0.4400
35     H35    -1.1599   -1.6739    0.0041 H        1 ZINC000003806041    0.4400
36     H36    -2.5093    0.6321    0.9194 H        1 ZINC000003806041    0.0900
37     H37    -2.5263    0.6417   -0.8604 H        1 ZINC000003806041    0.0900
38     H38    -3.5431   -1.6199   -0.8628 H        1 ZINC000003806041    0.0800
39     H39    -3.5261   -1.6294    0.9170 H        1 ZINC000003806041    0.0800
40     H40    -4.9938    0.3691    0.9418 H        1 ZINC000003806041    0.0700
41     H41    -5.0108    0.3786   -0.8381 H        1 ZINC000003806041    0.0700
42     H42    -6.0276   -1.8830   -0.8405 H        1 ZINC000003806041    0.0700
43     H43    -6.0106   -1.8925    0.9393 H        1 ZINC000003806041    0.0700
44     H44    -7.4783    0.1060    0.9641 H        1 ZINC000003806041    0.0700
45     H45    -7.4953    0.1155   -0.8158 H        1 ZINC000003806041    0.0700
46     H46    -8.5121   -2.1460   -0.8182 H        1 ZINC000003806041    0.0700
47     H47    -8.4951   -2.1556    0.9616 H        1 ZINC000003806041    0.0700
48     H48    -9.8615    0.1600    0.0971 H        1 ZINC000003806041    0.4000
49     H49   -12.3791   -0.1429    1.0095 H        1 ZINC000003806041    0.1100
50     H50   -12.3961   -0.1333   -0.7703 H        1 ZINC000003806041    0.1100
51     H51   -15.5804   -3.0200    0.1346 H        1 ZINC000003806041    0.4100
52     H52   -17.2209   -0.9118    1.0516 H        1 ZINC000003806041    0.0700
53     H53   -17.2379   -0.9023   -0.7282 H        1 ZINC000003806041    0.0700
54     H54   -17.9496   -3.2776   -0.7342 H        1 ZINC000003806041    0.0800
55     H55   -17.9326   -3.2871    1.0457 H        1 ZINC000003806041    0.0700
56     H56   -19.6495   -1.4982    1.0717 H        1 ZINC000003806041    0.0700
57     H57   -19.6665   -1.4886   -0.7082 H        1 ZINC000003806041    0.0800
58     H58   -20.3782   -3.8639   -0.7141 H        1 ZINC000003806041    0.0800
59     H59   -20.3612   -3.8735    1.0657 H        1 ZINC000003806041    0.0400
60     H60   -22.0163   -2.0957    0.9824 H        1 ZINC000003806041    0.3500
61     H61   -22.7556   -4.4044   -0.6943 H        1 ZINC000003806041    0.0800
62     H62   -22.7386   -4.4140    1.0855 H        1 ZINC000003806041    0.0400
63     H63   -24.4071   -2.5799    1.1113 H        1 ZINC000003806041    0.0900
64     H64   -24.4241   -2.5703   -0.6686 H        1 ZINC000003806041    0.1000
65     H65   -25.1989   -4.9258   -0.6738 H        1 ZINC000003806041    0.1400
66     H66   -25.1820   -4.9353    1.1060 H        1 ZINC000003806041    0.1300
@<TRIPOS>BOND
1     1     2     ar
2     1     33    1
3     1     34    1
4     2     3     ar
5     2     6     ar
6     3     4     1
7     3     5     1
8     6     7     1
9     6     35    1
10    7     8     1
11    7     36    1
12    7     37    1
13    8     9     1
14    8     38    1
15    8     39    1
16    9     10    1
17    9     40    1
18    9     41    1
19    10    11    1
20    10    42    1
21    10    43    1
22    11    12    1
23    11    44    1
24    11    45    1
25    12    13    1
26    12    46    1
27    12    47    1
28    13    14    am
29    13    48    1
30    14    15    2
31    14    16    1
32    16    17    1
33    16    49    1
34    16    50    1
35    17    18    1
36    18    19    2
37    18    20    am
38    20    21    1
39    20    51    1
40    21    22    1
41    21    52    1
42    21    53    1
43    22    23    1
44    22    54    1
45    22    55    1
46    23    24    1
47    23    56    1
48    23    57    1
49    24    25    1
50    24    58    1
51    24    59    1
52    25    26    1
53    25    60    1
54    26    27    1
55    26    61    1
56    26    62    1
57    27    28    1
58    27    63    1
59    27    64    1
60    28    29    1
61    28    65    1
62    28    66    1
63    29    30    1
64    29    31    1
65    29    32    1
@<TRIPOS>SUBSTRUCTURE
1   ZINC000003806041 1     RESIDUE    1   A     ZIN   1
