@<TRIPOS>MOLECULE
ZINC000014192433
85    92    1     0     0
SMALL
USER_CHARGES
@<TRIPOS>ATOM
1      C1     -1.0254    2.0103    0.1192 C.3      1 ZINC000014192433   -0.1400
2      C2     -1.0774    0.4834    0.0367 C.3      1 ZINC000014192433    0.1000
3      H3     -0.7659    0.1618   -0.9571 H        1 ZINC000014192433    0.0700
4      C4     -2.5085    0.0049    0.3043 C.3      1 ZINC000014192433   -0.1500
5      C5     -2.5344   -1.5189    0.3023 C.3      1 ZINC000014192433    0.2200
6      N6     -2.3082   -2.0508   -1.0418 N.am     1 ZINC000014192433   -0.7100
7      C7     -3.3661   -2.4759   -1.7266 C.2      1 ZINC000014192433    0.5300
8      O8     -3.2628   -2.9314   -2.8459 O.2      1 ZINC000014192433   -0.5100
9      C9     -4.7086   -2.3603   -1.0309 C.3      1 ZINC000014192433   -0.1200
10     S10    -4.2176   -2.1090    0.7232 S.3      1 ZINC000014192433   -0.1700
11     C11    -1.5279   -2.0808    1.2971 C.3      1 ZINC000014192433    0.2500
12     O12    -1.4857   -3.5041    1.1758 O.3      1 ZINC000014192433   -0.5400
13     O13    -1.9188   -1.7368    2.6300 O.3      1 ZINC000014192433   -0.3600
14     C14    -0.9951   -2.1870    3.6227 C.3      1 ZINC000014192433    0.0600
15     H15    -0.9267   -3.2743    3.5885 H        1 ZINC000014192433    0.0700
16     C16    -1.4523   -1.7491    5.0141 C.3      1 ZINC000014192433   -0.0900
17     C17    -0.4489   -2.2552    6.0534 C.3      1 ZINC000014192433   -0.0400
18     C18    -0.3834   -3.7827    5.9951 C.3      1 ZINC000014192433    0.0700
19     O19    -1.7008   -4.3212    6.1232 O.3      1 ZINC000014192433   -0.5600
20     C20     0.9371   -1.6804    5.7588 C.3      1 ZINC000014192433   -0.0800
21     H21     0.8961   -0.5923    5.8090 H        1 ZINC000014192433    0.0800
22     C22     1.9350   -2.1999    6.7956 C.3      1 ZINC000014192433   -0.1100
23     C23     1.4898   -1.7622    8.1926 C.3      1 ZINC000014192433   -0.1200
24     C24     0.1006   -2.3313    8.4887 C.3      1 ZINC000014192433   -0.1000
25     H25     0.1498   -3.4176    8.4124 H        1 ZINC000014192433    0.0800
26     C26    -0.8959   -1.8184    7.4502 C.3      1 ZINC000014192433   -0.0600
27     H27    -0.9560   -0.7314    7.5048 H        1 ZINC000014192433    0.0700
28     C28    -2.2690   -2.4269    7.7546 C.3      1 ZINC000014192433   -0.1200
29     C29    -2.7298   -1.9305    9.1222 C.3      1 ZINC000014192433   -0.1100
30     C30    -1.7710   -2.3972   10.2204 C.3      1 ZINC000014192433   -0.0300
31     C31    -1.8870   -3.9016   10.4737 C.3      1 ZINC000014192433   -0.1300
32     C32    -2.0983   -1.5565   11.4833 C.3      1 ZINC000014192433   -0.0400
33     H33    -3.1465   -1.2578   11.4729 H        1 ZINC000014192433    0.0900
34     C34    -1.8001   -2.3534   12.7271 C.2      1 ZINC000014192433   -0.0500
35     C35    -2.6857   -2.7923   13.6179 C.2      1 ZINC000014192433   -0.2500
36     C36    -1.9905   -3.5257   14.6791 C.2      1 ZINC000014192433    0.4900
37     O37    -2.5298   -4.0468   15.6354 O.2      1 ZINC000014192433   -0.4600
38     O38    -0.6662   -3.5372   14.4378 O.3      1 ZINC000014192433   -0.3300
39     C39    -0.4392   -2.8118   13.1968 C.3      1 ZINC000014192433    0.0600
40     C40    -1.1930   -0.3121   11.4212 C.3      1 ZINC000014192433   -0.1200
41     C41    -0.3223   -0.4627   10.1524 C.3      1 ZINC000014192433   -0.1500
42     C42    -0.3317   -1.9698    9.8886 C.3      1 ZINC000014192433    0.1500
43     O43     0.5433   -2.6132   10.8174 O.3      1 ZINC000014192433   -0.5600
44     C44     1.3892   -2.1084    4.3603 C.3      1 ZINC000014192433   -0.1100
45     C45     0.3811   -1.5800    3.3329 C.3      1 ZINC000014192433    0.0500
46     H46     0.3260   -0.4938    3.4046 H        1 ZINC000014192433    0.0900
47     O47     0.7736   -1.9495    2.0101 O.3      1 ZINC000014192433   -0.3500
48     C48    -0.1396   -1.5049    1.0040 C.3      1 ZINC000014192433    0.2200
49     H49     0.1974   -1.8518    0.0272 H        1 ZINC000014192433    0.1100
50     O50    -0.2013   -0.0775    1.0162 O.3      1 ZINC000014192433   -0.3800
51     H51    -0.0070    2.3499   -0.0697 H        1 ZINC000014192433    0.0700
52     H52    -1.6951    2.4375   -0.6272 H        1 ZINC000014192433    0.0800
53     H53    -1.3370    2.3313    1.1131 H        1 ZINC000014192433    0.0700
54     H54    -2.8404    0.3736    1.2749 H        1 ZINC000014192433    0.1100
55     H55    -3.1705    0.3816   -0.4755 H        1 ZINC000014192433    0.1000
56     H56    -1.4163   -2.0918   -1.4209 H        1 ZINC000014192433    0.4100
57     H57    -5.2665   -1.5018   -1.4045 H        1 ZINC000014192433    0.1300
58     H58    -5.2849   -3.2785   -1.1448 H        1 ZINC000014192433    0.1400
59     H59    -0.8643   -3.9321    1.7806 H        1 ZINC000014192433    0.3900
60     H60    -1.5024   -0.6611    5.0555 H        1 ZINC000014192433    0.0700
61     H61    -2.4364   -2.1686    5.2231 H        1 ZINC000014192433    0.1000
62     H62     0.0444   -4.0919    5.0415 H        1 ZINC000014192433    0.0500
63     H63     0.2404   -4.1509    6.8096 H        1 ZINC000014192433    0.0500
64     H64    -1.7353   -5.2872    6.0947 H        1 ZINC000014192433    0.3800
65     H65     1.9728   -3.2883    6.7504 H        1 ZINC000014192433    0.0700
66     H66     2.9237   -1.7924    6.5848 H        1 ZINC000014192433    0.0700
67     H67     2.1992   -2.1327    8.9326 H        1 ZINC000014192433    0.0700
68     H68     1.4535   -0.6738    8.2378 H        1 ZINC000014192433    0.0700
69     H69    -2.9839   -2.1162    6.9927 H        1 ZINC000014192433    0.0700
70     H70    -2.1928   -3.5142    7.7666 H        1 ZINC000014192433    0.1000
71     H71    -2.7645   -0.8411    9.1155 H        1 ZINC000014192433    0.0600
72     H72    -3.7271   -2.3193    9.3277 H        1 ZINC000014192433    0.0700
73     H73    -1.5634   -4.4455    9.5863 H        1 ZINC000014192433    0.0600
74     H74    -1.2564   -4.1774   11.3189 H        1 ZINC000014192433    0.0600
75     H75    -2.9238   -4.1537   10.6964 H        1 ZINC000014192433    0.0600
76     H76    -3.7525   -2.6323   13.5668 H        1 ZINC000014192433    0.1600
77     H77     0.0183   -3.4682   12.4566 H        1 ZINC000014192433    0.1500
78     H78     0.1995   -1.9475   13.3786 H        1 ZINC000014192433    0.1100
79     H79    -1.8018    0.5894   11.3515 H        1 ZINC000014192433    0.0700
80     H80    -0.5586   -0.2673   12.3063 H        1 ZINC000014192433    0.0700
81     H81    -0.7698    0.0712    9.3140 H        1 ZINC000014192433    0.0800
82     H82     0.6914   -0.1075   10.3380 H        1 ZINC000014192433    0.0800
83     H83     1.4661   -2.3327   10.7475 H        1 ZINC000014192433    0.3700
84     H84     2.3738   -1.6901    4.1515 H        1 ZINC000014192433    0.0800
85     H85     1.4355   -3.1962    4.3092 H        1 ZINC000014192433    0.0800
@<TRIPOS>BOND
1     1     2     1
2     1     51    1
3     1     52    1
4     1     53    1
5     2     3     1
6     2     50    1
7     2     4     1
8     4     5     1
9     4     54    1
10    4     55    1
11    5     10    1
12    5     6     1
13    5     11    1
14    6     7     am
15    6     56    1
16    7     8     2
17    7     9     1
18    9     10    1
19    9     57    1
20    9     58    1
21    11    48    1
22    11    12    1
23    11    13    1
24    12    59    1
25    13    14    1
26    14    15    1
27    14    45    1
28    14    16    1
29    16    17    1
30    16    60    1
31    16    61    1
32    17    26    1
33    17    18    1
34    17    20    1
35    18    19    1
36    18    62    1
37    18    63    1
38    19    64    1
39    20    21    1
40    20    22    1
41    20    44    1
42    22    23    1
43    22    65    1
44    22    66    1
45    23    24    1
46    23    67    1
47    23    68    1
48    24    25    1
49    24    42    1
50    24    26    1
51    26    27    1
52    26    28    1
53    28    29    1
54    28    69    1
55    28    70    1
56    29    30    1
57    29    71    1
58    29    72    1
59    30    42    1
60    30    31    1
61    30    32    1
62    31    73    1
63    31    74    1
64    31    75    1
65    32    33    1
66    32    34    1
67    32    40    1
68    34    39    1
69    34    35    2
70    35    36    1
71    35    76    1
72    36    37    2
73    36    38    1
74    38    39    1
75    39    77    1
76    39    78    1
77    40    41    1
78    40    79    1
79    40    80    1
80    41    42    1
81    41    81    1
82    41    82    1
83    42    43    1
84    43    83    1
85    44    45    1
86    44    84    1
87    44    85    1
88    45    46    1
89    45    47    1
90    47    48    1
91    48    49    1
92    48    50    1
@<TRIPOS>SUBSTRUCTURE
1   ZINC000014192433 1     RESIDUE    1   A     ZIN   1
