@<TRIPOS>MOLECULE
ZINC000015880093
  34   36    0    0    0
SMALL
USER_CHARGES
NO_NAME
@<TRIPOS>ATOM
    1 C1       -0.0178     1.4608     0.0101 C.3    1 <0>       0.0700
    2 N2        0.0021    -0.0041     0.0020 N.am   1 <0>      -0.5200
    3 C3       -1.1850    -0.6999     0.0040 C.2    1 <0>       0.2700
    4 C4       -1.1558    -2.0893    -0.0037 C.2    1 <0>      -0.0900
    5 N5       -2.4397    -2.5212     0.0005 N.2    1 <0>      -0.4000
    6 C6       -3.2353    -1.4911     0.0102 C.2    1 <0>       0.2400
    7 C7       -4.7409    -1.5555     0.0176 C.3    1 <0>      -0.0100
    8 C8       -5.3326    -0.3247     0.7484 C.3    1 <0>      -0.1200
    9 C9       -6.7596    -0.2277     0.1540 C.3    1 <0>      -0.1200
   10 C10      -6.5767    -0.6001    -1.3318 C.3    1 <0>      -0.1300
   11 C11      -5.2931    -1.4444    -1.4185 C.3    1 <0>      -0.1200
   12 N12      -2.4965    -0.3438     0.0126 N.pl3  1 <0>      -0.5500
   13 C13       0.1473    -2.7563    -0.0136 C.2    1 <0>       0.5900
   14 O14       0.2247    -3.9712    -0.0210 O.2    1 <0>      -0.4800
   15 N15       1.2617    -1.9933    -0.0149 N.am   1 <0>      -0.5500
   16 C16       2.5778    -2.6368    -0.0252 C.3    1 <0>       0.0800
   17 C17       1.1801    -0.6523    -0.0127 C.2    1 <0>       0.7200
   18 O18       2.2076    -0.0020    -0.0143 O.2    1 <0>      -0.5300
   19 H19       1.0048     1.8381     0.0023 H      1 <0>       0.1100
   20 H20      -0.5450     1.8219    -0.8730 H      1 <0>       0.0800
   21 H21      -0.5280     1.8123     0.9069 H      1 <0>       0.0800
   22 H22      -5.0799    -2.4794     0.4863 H      1 <0>       0.1200
   23 H23      -5.3731    -0.4967     1.8240 H      1 <0>       0.0800
   24 H24      -4.7575     0.5729     0.5210 H      1 <0>       0.0600
   25 H25      -7.4266    -0.9360     0.6455 H      1 <0>       0.0700
   26 H26      -7.1438     0.7880     0.2482 H      1 <0>       0.0700
   27 H27      -7.4305    -1.1821    -1.6787 H      1 <0>       0.0700
   28 H28      -6.4708     0.3030    -1.9328 H      1 <0>       0.0700
   29 H29      -4.5644    -0.9509    -2.0616 H      1 <0>       0.0600
   30 H30      -5.5241    -2.4360    -1.8075 H      1 <0>       0.0800
   31 H31      -2.8444     0.5617     0.0196 H      1 <0>       0.4300
   32 H32       2.4527    -3.7196    -0.0308 H      1 <0>       0.1100
   33 H33       3.1254    -2.3297    -0.9162 H      1 <0>       0.0800
   34 H34       3.1344    -2.3399     0.8637 H      1 <0>       0.0800
@<TRIPOS>BOND
   1    1    2 1
   2    1   19 1
   3    1   20 1
   4    1   21 1
   5    2   17 am
   6    2    3 1
   7    3   12 1
   8    3    4 2
   9    4    5 1
  10    4   13 1
  11    5    6 2
  12    6    7 1
  13    6   12 1
  14    7   11 1
  15    7    8 1
  16    7   22 1
  17    8    9 1
  18    8   23 1
  19    8   24 1
  20    9   10 1
  21    9   25 1
  22    9   26 1
  23   10   11 1
  24   10   27 1
  25   10   28 1
  26   11   29 1
  27   11   30 1
  28   12   31 1
  29   13   14 2
  30   13   15 am
  31   15   16 1
  32   15   17 am
  33   16   32 1
  34   16   33 1
  35   16   34 1
  36   17   18 2
