@<TRIPOS>MOLECULE
ZINC000000001965
27    28    1     0     0
SMALL
USER_CHARGES
@<TRIPOS>ATOM
1      C1     -0.3804    1.3889    0.3997 C.3      1 ZINC000000001965   -0.1500
2      C2     -0.0364   -0.0585    0.0424 C.3      1 ZINC000000001965   -0.0800
3      C3     -1.3009   -0.8764   -0.0131 C.2      1 ZINC000000001965    0.1500
4      C4     -2.0441   -1.1238   -1.1202 C.2      1 ZINC000000001965   -0.0800
5      C5     -1.7676   -0.6485   -2.4763 C.2      1 ZINC000000001965    0.4700
6      O6     -0.7310   -0.0567   -2.7141 O.2      1 ZINC000000001965   -0.4300
7      C7     -2.7495   -0.8875   -3.5596 C.ar     1 ZINC000000001965   -0.1100
8      C8     -4.0914   -1.1526   -3.2678 C.ar     1 ZINC000000001965   -0.1500
9      C9     -4.9728   -1.3691   -4.3088 C.ar     1 ZINC000000001965    0.1000
10     N10    -4.5640   -1.3288   -5.5615 N.ar     1 ZINC000000001965   -0.4600
11     C11    -3.3087   -1.0825   -5.8803 C.ar     1 ZINC000000001965    0.1000
12     C12    -2.3615   -0.8487   -4.9028 C.ar     1 ZINC000000001965   -0.1200
13     N13    -3.1233   -1.9182   -0.7234 N.am     1 ZINC000000001965   -0.6300
14     C14    -3.0081   -2.1304    0.6023 C.2      1 ZINC000000001965    0.6600
15     O15    -3.7752   -2.7824    1.2863 O.2      1 ZINC000000001965   -0.5500
16     N16    -1.9000   -1.5061    1.0428 N.am     1 ZINC000000001965   -0.6200
17     H17     0.5342    1.9804    0.4399 H        1 ZINC000000001965    0.0700
18     H18    -1.0470    1.8015   -0.3576 H        1 ZINC000000001965    0.0600
19     H19    -0.8735    1.4158    1.3714 H        1 ZINC000000001965    0.0600
20     H20     0.4568   -0.0855   -0.9293 H        1 ZINC000000001965    0.1100
21     H21     0.6303   -0.4711    0.7997 H        1 ZINC000000001965    0.0900
22     H22    -4.4332   -1.1877   -2.2439 H        1 ZINC000000001965    0.1400
23     H23    -6.0110   -1.5745   -4.0936 H        1 ZINC000000001965    0.1700
24     H24    -3.0179   -1.0594   -6.9201 H        1 ZINC000000001965    0.1700
25     H25    -1.3349   -0.6476   -5.1712 H        1 ZINC000000001965    0.1500
26     H26    -3.8281   -2.2554   -1.2983 H        1 ZINC000000001965    0.4400
27     H27    -1.5824   -1.4983    1.9594 H        1 ZINC000000001965    0.4400
@<TRIPOS>BOND
1     1     2     1
2     1     17    1
3     1     18    1
4     1     19    1
5     2     3     1
6     2     20    1
7     2     21    1
8     3     16    1
9     3     4     2
10    4     5     1
11    4     13    1
12    5     6     2
13    5     7     1
14    7     12    ar
15    7     8     ar
16    8     9     ar
17    8     22    1
18    9     10    ar
19    9     23    1
20    10    11    ar
21    11    12    ar
22    11    24    1
23    12    25    1
24    13    14    am
25    13    26    1
26    14    15    2
27    14    16    am
28    16    27    1
@<TRIPOS>SUBSTRUCTURE
1   ZINC000000001965 1     RESIDUE    1   A     ZIN   1
