@<TRIPOS>MOLECULE
ZINC000003985981
  43   46    0    0    0
SMALL
USER_CHARGES
NO_NAME
@<TRIPOS>ATOM
    1 O1       -0.0173     1.4248     0.0099 O.3    1 <0>      -0.5600
    2 C2        0.0021    -0.0041     0.0020 C.3    1 <0>       0.0800
    3 C3       -1.4333    -0.5336     0.0129 C.3    1 <0>       0.0500
    4 H4       -1.9871    -0.1096     0.8505 H      1 <0>       0.1000
    5 O5       -2.0929    -0.2241    -1.2341 O.3    1 <0>      -0.3500
    6 C6       -3.1943    -1.1540    -1.3231 C.3    1 <0>       0.3100
    7 H7       -4.0192    -0.8268    -0.6902 H      1 <0>       0.1200
    8 N8       -3.6398    -1.2855    -2.7125 N.pl3  1 <0>      -0.4700
    9 C9       -2.8940    -1.0351    -3.8258 C.2    1 <0>       0.2600
   10 N10      -3.6033    -1.2545    -4.8947 N.2    1 <0>      -0.4600
   11 C11      -4.8457    -1.6585    -4.5364 C.ar   1 <0>      -0.1100
   12 C12      -6.0061    -2.0262    -5.2383 C.ar   1 <0>       0.5100
   13 N13      -6.0279    -2.0215    -6.6220 N.pl3  1 <0>      -0.6900
   14 C14      -7.2469    -2.4080    -7.3367 C.3    1 <0>       0.1200
   15 H15      -7.7772    -3.1880    -6.7904 H      1 <0>       0.1100
   16 C16      -6.9068    -2.8854    -8.7695 C.3    1 <0>      -0.1600
   17 C17      -8.0531    -2.2567    -9.6020 C.3    1 <0>       0.0500
   18 O18      -8.2639    -0.9753    -8.9710 O.3    1 <0>      -0.3800
   19 C19      -8.1584    -1.1838    -7.5496 C.3    1 <0>       0.0400
   20 N20      -7.0821    -2.3790    -4.5424 N.ar   1 <0>      -0.5900
   21 C21      -7.0703    -2.3869    -3.2220 C.ar   1 <0>       0.3600
   22 N22      -6.0069    -2.0499    -2.5229 N.ar   1 <0>      -0.5500
   23 C23      -4.8823    -1.6889    -3.1319 C.ar   1 <0>       0.3100
   24 C24      -2.6218    -2.4941    -0.8103 C.3    1 <0>       0.0800
   25 H25      -2.2728    -3.1041    -1.6435 H      1 <0>       0.0900
   26 O26      -3.6050    -3.2009    -0.0514 O.3    1 <0>      -0.5300
   27 C27      -1.4367    -2.0764     0.0918 C.3    1 <0>       0.0500
   28 H28      -0.5011    -2.4794    -0.2959 H      1 <0>       0.0900
   29 O29      -1.6510    -2.5150     1.4349 O.3    1 <0>      -0.5400
   30 H30       0.8606     1.8301     0.0037 H      1 <0>       0.3900
   31 H31       0.5123    -0.3556    -0.8948 H      1 <0>       0.0600
   32 H32       0.5293    -0.3651     0.8851 H      1 <0>       0.0700
   33 H33      -1.8664    -0.7030    -3.8215 H      1 <0>       0.2200
   34 H34      -5.2360    -1.7623    -7.1187 H      1 <0>       0.4200
   35 H35      -5.9381    -2.5002    -9.0881 H      1 <0>       0.0800
   36 H36      -6.9313    -3.9733    -8.8331 H      1 <0>       0.0900
   37 H37      -7.7473    -2.1276   -10.6402 H      1 <0>       0.1000
   38 H38      -8.9532    -2.8682    -9.5391 H      1 <0>       0.0700
   39 H39      -9.1455    -1.3753    -7.1288 H      1 <0>       0.0700
   40 H40      -7.7162    -0.3062    -7.0780 H      1 <0>       0.0900
   41 H41      -7.9667    -2.6803    -2.6960 H      1 <0>       0.2100
   42 H42      -3.2987    -4.0501     0.2951 H      1 <0>       0.3900
   43 H43      -0.9377    -2.2796     2.0440 H      1 <0>       0.3900
@<TRIPOS>BOND
   1    1    2 1
   2    1   30 1
   3    2    3 1
   4    2   31 1
   5    2   32 1
   6    3    4 1
   7    3   27 1
   8    3    5 1
   9    5    6 1
  10    6    7 1
  11    6    8 1
  12    6   24 1
  13    8   23 1
  14    8    9 1
  15    9   10 2
  16    9   33 1
  17   10   11 1
  18   11   23 ar
  19   11   12 ar
  20   12   13 1
  21   12   20 ar
  22   13   14 1
  23   13   34 1
  24   14   15 1
  25   14   19 1
  26   14   16 1
  27   16   17 1
  28   16   35 1
  29   16   36 1
  30   17   18 1
  31   17   37 1
  32   17   38 1
  33   18   19 1
  34   19   39 1
  35   19   40 1
  36   20   21 ar
  37   21   22 ar
  38   21   41 1
  39   22   23 ar
  40   24   25 1
  41   24   26 1
  42   24   27 1
  43   26   42 1
  44   27   28 1
  45   27   29 1
  46   29   43 1
