@<TRIPOS>MOLECULE
ZINC000003926620
85    88    1     0     0
SMALL
USER_CHARGES
@<TRIPOS>ATOM
1      C1      1.1057   -2.4977    0.1194 C.3      1 ZINC000003926620   -0.1500
2      C2      0.4842   -1.9946   -1.1850 C.3      1 ZINC000003926620   -0.1000
3      C3     -0.9586   -2.4931   -1.2880 C.3      1 ZINC000003926620   -0.1400
4      C4      0.4976   -0.4647   -1.1996 C.3      1 ZINC000003926620   -0.1200
5      C5      1.9441    0.0323   -1.2365 C.3      1 ZINC000003926620    0.1300
6      H6      2.5022   -0.3977   -0.4048 H        1 ZINC000003926620    0.0900
7      N7      1.9672    1.4989   -1.1438 N.am     1 ZINC000003926620   -0.7300
8      C8      1.6438    2.2238   -2.2362 C.2      1 ZINC000003926620    0.5000
9      O9      1.2295    1.6662   -3.2304 O.2      1 ZINC000003926620   -0.4700
10     C10     1.7951    3.7229   -2.2244 C.3      1 ZINC000003926620    0.1200
11     H11     0.9749    4.1783   -2.7793 H        1 ZINC000003926620    0.1200
12     C12     1.7831    4.2296   -0.7808 C.3      1 ZINC000003926620   -0.1100
13     C13     2.0453    5.7369   -0.7672 C.3      1 ZINC000003926620   -0.1400
14     C14     0.4183    3.9437   -0.1512 C.3      1 ZINC000003926620   -0.1500
15     N15     3.0834    4.0686   -2.8671 N.am     1 ZINC000003926620   -0.6900
16     C16     3.0490    5.1066   -3.7495 C.2      1 ZINC000003926620    0.5100
17     O17     2.0031    5.6680   -3.9982 O.2      1 ZINC000003926620   -0.5400
18     C18     4.3276    5.5461   -4.4117 C.3      1 ZINC000003926620    0.1200
19     H19     5.0444    5.8595   -3.6508 H        1 ZINC000003926620    0.0900
20     C20     4.0417    6.7126   -5.3638 C.3      1 ZINC000003926620   -0.1200
21     C21     4.5969    6.2965   -6.7345 C.3      1 ZINC000003926620   -0.1300
22     C22     5.3230    4.9654   -6.5009 C.3      1 ZINC000003926620    0.1000
23     N23     4.8912    4.4487   -5.2001 N.am     1 ZINC000003926620   -0.6100
24     C24     5.0054    3.1667   -4.7964 C.2      1 ZINC000003926620    0.5300
25     O25     4.5957    2.8330   -3.7047 O.2      1 ZINC000003926620   -0.5000
26     C26     5.6445    2.1501   -5.7087 C.3      1 ZINC000003926620    0.1700
27     H27     5.4966    2.4465   -6.7471 H        1 ZINC000003926620    0.1000
28     C28     7.1420    2.0604   -5.4085 C.3      1 ZINC000003926620   -0.2000
29     C29     7.7989    1.1364   -6.4014 C.2      1 ZINC000003926620    0.5000
30     O30     7.1311    0.5994   -7.2687 O.co2    1 ZINC000003926620   -0.6900
31     O31     8.9981    0.9259   -6.3374 O.co2    1 ZINC000003926620   -0.7000
32     N32     5.0074    0.8358   -5.4718 N.am     1 ZINC000003926620   -0.7000
33     C33     5.1584    0.3178   -4.2204 C.2      1 ZINC000003926620    0.5200
34     O34     5.8292    0.8994   -3.3942 O.2      1 ZINC000003926620   -0.5100
35     C35     4.4831   -0.9853   -3.8723 C.3      1 ZINC000003926620    0.1400
36     H36     3.7076   -1.2072   -4.6054 H        1 ZINC000003926620    0.1100
37     C37     5.5148   -2.1148   -3.8505 C.3      1 ZINC000003926620   -0.0500
38     C38     4.8151   -3.4301   -3.6236 C.2      1 ZINC000003926620   -0.1500
39     C39     4.6345   -4.0454   -2.4443 C.2      1 ZINC000003926620    0.0500
40     N40     3.9567   -5.2196   -2.6296 N.pl3    1 ZINC000003926620   -0.6000
41     C41     3.6775   -5.3929   -3.9667 C.ar     1 ZINC000003926620    0.1000
42     C42     3.0262   -6.3880   -4.6878 C.ar     1 ZINC000003926620   -0.1400
43     C43     2.9034   -6.2730   -6.0554 C.ar     1 ZINC000003926620   -0.1000
44     C44     3.4234   -5.1728   -6.7228 C.ar     1 ZINC000003926620   -0.1500
45     C45     4.0670   -4.1834   -6.0340 C.ar     1 ZINC000003926620   -0.0600
46     C46     4.1973   -4.2764   -4.6473 C.ar     1 ZINC000003926620   -0.1000
47     N47     3.8739   -0.8311   -2.5250 N.am     1 ZINC000003926620   -0.7200
48     C48     2.5870   -0.3671   -2.5422 C.2      1 ZINC000003926620    0.5000
49     O49     1.9750   -0.2777   -3.5854 O.2      1 ZINC000003926620   -0.4700
50     H50     2.1601   -2.2227    0.1493 H        1 ZINC000003926620    0.0500
51     H51     0.5884   -2.0463    0.9661 H        1 ZINC000003926620    0.0500
52     H52     1.0114   -3.5823    0.1722 H        1 ZINC000003926620    0.0500
53     H53     1.0599   -2.3711   -2.0306 H        1 ZINC000003926620    0.0700
54     H54    -1.5343   -2.1166   -0.4425 H        1 ZINC000003926620    0.0500
55     H55    -1.4014   -2.1347   -2.2174 H        1 ZINC000003926620    0.0600
56     H56    -0.9681   -3.5830   -1.2776 H        1 ZINC000003926620    0.0500
57     H57    -0.0328   -0.1052   -2.0814 H        1 ZINC000003926620    0.0900
58     H58     0.0069   -0.0886   -0.3020 H        1 ZINC000003926620    0.0700
59     H59     2.2100    1.9378   -0.3136 H        1 ZINC000003926620    0.4000
60     H60     2.5601    3.7205   -0.2105 H        1 ZINC000003926620    0.0700
61     H61     2.1178    6.0838    0.2636 H        1 ZINC000003926620    0.0500
62     H62     2.9792    5.9480   -1.2881 H        1 ZINC000003926620    0.0500
63     H63     1.2257    6.2528   -1.2674 H        1 ZINC000003926620    0.0600
64     H64     0.2702    2.8662   -0.0787 H        1 ZINC000003926620    0.0600
65     H65     0.3784    4.3838    0.8452 H        1 ZINC000003926620    0.0600
66     H66    -0.3660    4.3773   -0.7715 H        1 ZINC000003926620    0.0600
67     H67     3.9019    3.5861   -2.6717 H        1 ZINC000003926620    0.4300
68     H68     2.9677    6.8863   -5.4316 H        1 ZINC000003926620    0.1000
69     H69     4.5448    7.6140   -5.0137 H        1 ZINC000003926620    0.0800
70     H70     3.7819    6.1611   -7.4454 H        1 ZINC000003926620    0.0800
71     H71     5.2965    7.0477   -7.1011 H        1 ZINC000003926620    0.0800
72     H72     5.0591    4.2573   -7.2864 H        1 ZINC000003926620    0.0800
73     H73     6.4008    5.1279   -6.4952 H        1 ZINC000003926620    0.0800
74     H74     7.5879    3.0521   -5.4850 H        1 ZINC000003926620    0.0600
75     H75     7.2880    1.6732   -4.4001 H        1 ZINC000003926620    0.1000
76     H76     4.5124    0.3714   -6.1648 H        1 ZINC000003926620    0.4100
77     H77     6.0422   -2.1436   -4.8040 H        1 ZINC000003926620    0.0900
78     H78     6.2287   -1.9394   -3.0457 H        1 ZINC000003926620    0.0800
79     H79     4.9743   -3.6696   -1.4905 H        1 ZINC000003926620    0.1600
80     H80     3.7098   -5.8377   -1.9241 H        1 ZINC000003926620    0.4100
81     H81     2.6185   -7.2481   -4.1776 H        1 ZINC000003926620    0.1100
82     H82     2.3977   -7.0470   -6.6137 H        1 ZINC000003926620    0.1200
83     H83     3.3189   -5.0982   -7.7952 H        1 ZINC000003926620    0.1200
84     H84     4.4691   -3.3302   -6.5601 H        1 ZINC000003926620    0.1300
85     H85     4.3471   -1.0422   -1.7050 H        1 ZINC000003926620    0.4000
@<TRIPOS>BOND
1     1     2     1
2     1     50    1
3     1     51    1
4     1     52    1
5     2     3     1
6     2     4     1
7     2     53    1
8     3     54    1
9     3     55    1
10    3     56    1
11    4     5     1
12    4     57    1
13    4     58    1
14    5     6     1
15    5     48    1
16    5     7     1
17    7     8     am
18    7     59    1
19    8     9     2
20    8     10    1
21    10    11    1
22    10    12    1
23    10    15    1
24    12    13    1
25    12    14    1
26    12    60    1
27    13    61    1
28    13    62    1
29    13    63    1
30    14    64    1
31    14    65    1
32    14    66    1
33    15    16    am
34    15    67    1
35    16    17    2
36    16    18    1
37    18    19    1
38    18    23    1
39    18    20    1
40    20    21    1
41    20    68    1
42    20    69    1
43    21    22    1
44    21    70    1
45    21    71    1
46    22    23    1
47    22    72    1
48    22    73    1
49    23    24    am
50    24    25    2
51    24    26    1
52    26    27    1
53    26    28    1
54    26    32    1
55    28    29    1
56    28    74    1
57    28    75    1
58    29    30    ar
59    29    31    ar
60    32    33    am
61    32    76    1
62    33    34    2
63    33    35    1
64    35    36    1
65    35    37    1
66    35    47    1
67    37    38    1
68    37    77    1
69    37    78    1
70    38    46    1
71    38    39    2
72    39    40    1
73    39    79    1
74    40    41    1
75    40    80    1
76    41    46    ar
77    41    42    ar
78    42    43    ar
79    42    81    1
80    43    44    ar
81    43    82    1
82    44    45    ar
83    44    83    1
84    45    46    ar
85    45    84    1
86    47    48    am
87    47    85    1
88    48    49    2
@<TRIPOS>SUBSTRUCTURE
1   ZINC000003926620 1     RESIDUE    1   A     ZIN   1
