@<TRIPOS>MOLECULE
ZINC000067810222
  51   54    0    0    0
SMALL
USER_CHARGES
NO_NAME
@<TRIPOS>ATOM
    1 O1        0.0021    -0.0041     0.0020 O.2    1 <0>      -0.4400
    2 C2       -0.0144     1.2085     0.0087 C.2    1 <0>       0.4000
    3 C3        1.2803     1.9797     0.0005 C.3    1 <0>      -0.0600
    4 N4        2.4097     1.0404    -0.0154 N.4    1 <0>      -0.3800
    5 H5        2.3259     0.4021     0.7616 H      1 <0>       0.4300
    6 C6        3.6675     1.7879     0.1009 C.3    1 <0>      -0.0100
    7 C7        4.8424     0.8097     0.1665 C.3    1 <0>      -0.1400
    8 C8        4.8661    -0.0373    -1.1092 C.3    1 <0>      -0.1500
    9 C9        5.9731    -1.0558    -1.0173 C.2    1 <0>       0.4100
   10 O10       6.3080    -1.4914     0.0638 O.2    1 <0>      -0.4300
   11 C11       6.6468    -1.5213    -2.2382 C.ar   1 <0>      -0.2000
   12 C12       6.2666    -1.0164    -3.4868 C.ar   1 <0>      -0.0500
   13 C13       6.9023    -1.4565    -4.6268 C.ar   1 <0>      -0.1700
   14 C14       7.9169    -2.3983    -4.5392 C.ar   1 <0>       0.1500
   15 F15       8.5364    -2.8258    -5.6611 F      1 <0>      -0.1200
   16 C16       8.2986    -2.9029    -3.3047 C.ar   1 <0>      -0.1600
   17 C17       7.6751    -2.4670    -2.1564 C.ar   1 <0>      -0.0200
   18 C18       3.5214    -0.7545    -1.2590 C.3    1 <0>      -0.1300
   19 C19       2.3965     0.2829    -1.2725 C.3    1 <0>      -0.0200
   20 C20      -1.2979     1.9264     0.0187 C.ar   1 <0>      -0.1900
   21 C21      -1.3116     3.3350     0.0205 C.ar   1 <0>      -0.1000
   22 C22      -2.4834     4.0187     0.0296 C.ar   1 <0>      -0.1000
   23 C23      -3.7061     3.3220     0.0374 C.ar   1 <0>      -0.0200
   24 C24      -4.9309     4.0096     0.0468 C.ar   1 <0>      -0.1200
   25 C25      -6.0985     3.3092     0.0537 C.ar   1 <0>      -0.0800
   26 C26      -6.1001     1.9155     0.0517 C.ar   1 <0>      -0.1100
   27 C27      -4.9338     1.2143     0.0431 C.ar   1 <0>      -0.0900
   28 C28      -3.7072     1.9034     0.0352 C.ar   1 <0>      -0.0700
   29 C29      -2.4880     1.2114     0.0204 C.ar   1 <0>       0.0000
   30 H30       1.3211     2.6118    -0.8866 H      1 <0>       0.1700
   31 H31       1.3381     2.6023     0.8933 H      1 <0>       0.1700
   32 H32       3.7847     2.4382    -0.7660 H      1 <0>       0.1300
   33 H33       3.6478     2.3926     1.0075 H      1 <0>       0.1400
   34 H34       5.7755     1.3667     0.2510 H      1 <0>       0.1200
   35 H35       4.7264     0.1591     1.0333 H      1 <0>       0.1000
   36 H36       5.0348     0.6075    -1.9717 H      1 <0>       0.1200
   37 H37       5.4763    -0.2836    -3.5564 H      1 <0>       0.1400
   38 H38       6.6099    -1.0676    -5.5910 H      1 <0>       0.1500
   39 H39       9.0893    -3.6360    -3.2434 H      1 <0>       0.1500
   40 H40       7.9731    -2.8607    -1.1959 H      1 <0>       0.1500
   41 H41       3.5103    -1.3156    -2.1935 H      1 <0>       0.1200
   42 H42       3.3780    -1.4376    -0.4218 H      1 <0>       0.1000
   43 H43       1.4372    -0.2235    -1.3793 H      1 <0>       0.1500
   44 H44       2.5417     0.9647    -2.1105 H      1 <0>       0.1300
   45 H45      -0.3777     3.8775     0.0150 H      1 <0>       0.1300
   46 H46      -2.4778     5.0987     0.0313 H      1 <0>       0.1400
   47 H47      -4.9464     5.0895     0.0488 H      1 <0>       0.1400
   48 H48      -7.0379     3.8419     0.0613 H      1 <0>       0.1300
   49 H49      -7.0404     1.3844     0.0574 H      1 <0>       0.1300
   50 H50      -4.9497     0.1344     0.0417 H      1 <0>       0.1400
   51 H51      -2.4747     0.1315     0.0148 H      1 <0>       0.1400
@<TRIPOS>BOND
   1    1    2 2
   2    2    3 1
   3    2   20 1
   4    3    4 1
   5    3   30 1
   6    3   31 1
   7    4    5 1
   8    4   19 1
   9    4    6 1
  10    6    7 1
  11    6   32 1
  12    6   33 1
  13    7    8 1
  14    7   34 1
  15    7   35 1
  16    8    9 1
  17    8   18 1
  18    8   36 1
  19    9   10 2
  20    9   11 1
  21   11   17 ar
  22   11   12 ar
  23   12   13 ar
  24   12   37 1
  25   13   14 ar
  26   13   38 1
  27   14   15 1
  28   14   16 ar
  29   16   17 ar
  30   16   39 1
  31   17   40 1
  32   18   19 1
  33   18   41 1
  34   18   42 1
  35   19   43 1
  36   19   44 1
  37   20   29 ar
  38   20   21 ar
  39   21   22 ar
  40   21   45 1
  41   22   23 ar
  42   22   46 1
  43   23   28 ar
  44   23   24 ar
  45   24   25 ar
  46   24   47 1
  47   25   26 ar
  48   25   48 1
  49   26   27 ar
  50   26   49 1
  51   27   28 ar
  52   27   50 1
  53   28   29 ar
  54   29   51 1
