@<TRIPOS>MOLECULE
ZINC000013650964
  33   34    0    0    0
SMALL
USER_CHARGES
NO_NAME
@<TRIPOS>ATOM
    1 C1        0.1879     1.3646     2.3860 C.3    1 <0>       0.0700
    2 N2        0.2126    -0.0958     2.2736 N.am   1 <0>      -0.6400
    3 C3        0.6134    -0.6766     1.1253 C.2    1 <0>       0.3100
    4 S4        0.9659     0.2260    -0.1466 S.2    1 <0>      -0.4300
    5 C5        0.7293    -2.1767     1.0401 C.3    1 <0>      -0.3300
    6 C6       -0.6416    -2.7953     1.1350 C.ar   1 <0>      -0.1200
    7 C7       -1.5467    -2.6592     0.0938 C.ar   1 <0>      -0.0700
    8 C8       -2.7964    -3.2456     0.2248 C.ar   1 <0>      -0.1600
    9 C9       -3.0961    -3.9412     1.3806 C.ar   1 <0>       0.1000
   10 N10      -2.2099    -4.0504     2.3512 N.ar   1 <0>      -0.4800
   11 C11      -1.0105    -3.5104     2.2589 C.ar   1 <0>       0.1100
   12 C12       1.6067    -2.6893     2.1853 C.3    1 <0>      -0.1100
   13 C13       2.9734    -2.0125     2.1373 C.3    1 <0>      -0.1400
   14 C14       3.7829    -2.5145     0.9454 C.3    1 <0>      -0.1200
   15 C15       3.1816    -1.9798    -0.3571 C.3    1 <0>      -0.4500
   16 S16       1.4980    -2.6393    -0.5405 S.o    1 <0>       1.3100
   17 O17       1.5528    -4.0555    -0.6441 O.2    1 <0>      -0.8400
   18 H18      -0.4856     1.7757     1.6340 H      1 <0>       0.0900
   19 H19      -0.1611     1.6467     3.3794 H      1 <0>       0.0800
   20 H20       1.1921     1.7582     2.2285 H      1 <0>       0.0900
   21 H21      -0.0596    -0.6448     3.0255 H      1 <0>       0.4000
   22 H22      -1.2848    -2.1092    -0.7980 H      1 <0>       0.1500
   23 H23      -3.5265    -3.1595    -0.5664 H      1 <0>       0.1500
   24 H24      -4.0673    -4.4005     1.4905 H      1 <0>       0.1600
   25 H25      -0.3112    -3.6209     3.0746 H      1 <0>       0.1600
   26 H26       1.1256    -2.4661     3.1376 H      1 <0>       0.0800
   27 H27       1.7333    -3.7676     2.0894 H      1 <0>       0.0900
   28 H28       2.8373    -0.9346     2.0504 H      1 <0>       0.0700
   29 H29       3.5152    -2.2322     3.0573 H      1 <0>       0.0800
   30 H30       4.8130    -2.1699     1.0366 H      1 <0>       0.0800
   31 H31       3.7674    -3.6043     0.9305 H      1 <0>       0.0700
   32 H32       3.1456    -0.8909    -0.3227 H      1 <0>       0.1400
   33 H33       3.7933    -2.3004    -1.2004 H      1 <0>       0.1100
@<TRIPOS>BOND
   1    1    2 1
   2    1   18 1
   3    1   19 1
   4    1   20 1
   5    2    3 am
   6    2   21 1
   7    3    4 2
   8    3    5 1
   9    5   16 1
  10    5    6 1
  11    5   12 1
  12    6   11 ar
  13    6    7 ar
  14    7    8 ar
  15    7   22 1
  16    8    9 ar
  17    8   23 1
  18    9   10 ar
  19    9   24 1
  20   10   11 ar
  21   11   25 1
  22   12   13 1
  23   12   26 1
  24   12   27 1
  25   13   14 1
  26   13   28 1
  27   13   29 1
  28   14   15 1
  29   14   30 1
  30   14   31 1
  31   15   16 1
  32   15   32 1
  33   15   33 1
  34   16   17 2
