@<TRIPOS>MOLECULE
ZINC000035645588
  30   30    0    0    0
SMALL
USER_CHARGES
NO_NAME
@<TRIPOS>ATOM
    1 C1        0.3239     1.1732    -1.2646 C.3    1 <0>      -0.2100
    2 C2        0.1129    -0.0965    -0.4809 C.2    1 <0>       0.4000
    3 O3        0.9599    -0.4743     0.3018 O.2    1 <0>      -0.4400
    4 C4       -1.1134    -0.8742    -0.6638 C.2    1 <0>      -0.2600
    5 C5       -1.3548    -1.9862     0.1306 C.2    1 <0>       0.0300
    6 C6       -2.6077    -2.6466     0.0638 C.ar   1 <0>      -0.0800
    7 C7       -3.7833    -1.9084    -0.1500 C.ar   1 <0>      -0.0700
    8 C8       -4.9969    -2.5605    -0.2133 C.ar   1 <0>       0.0900
    9 O9       -6.1397    -1.8531    -0.4204 O.3    1 <0>      -0.4700
   10 C10      -5.0508    -3.9481    -0.0649 C.ar   1 <0>       0.1700
   11 O11      -6.2454    -4.5885    -0.1278 O.3    1 <0>      -0.4600
   12 C12      -3.8852    -4.6759     0.1466 C.ar   1 <0>      -0.0600
   13 N13      -3.9533    -6.1463     0.3026 N.pl3  1 <0>       0.0300
   14 O14      -2.9341    -6.7869     0.4879 O.2    1 <0>      -0.1600
   15 O15      -5.0285    -6.7156     0.2455 O.2    1 <0>      -0.1300
   16 C16      -2.6774    -4.0419     0.2053 C.ar   1 <0>      -0.0200
   17 C17      -2.0850    -0.4790    -1.6844 C.2    1 <0>       0.4000
   18 C18      -2.8161     0.8329    -1.5610 C.3    1 <0>      -0.2100
   19 O19      -2.3020    -1.2079    -2.6301 O.2    1 <0>      -0.4400
   20 H20       1.2490     1.6504    -0.9412 H      1 <0>       0.0900
   21 H21       0.3885     0.9381    -2.3270 H      1 <0>       0.1000
   22 H22      -0.5133     1.8497    -1.0925 H      1 <0>       0.1000
   23 H23      -0.5884    -2.3486     0.7997 H      1 <0>       0.1600
   24 H24      -3.7371    -0.8354    -0.2638 H      1 <0>       0.1600
   25 H25      -6.3724    -1.7459    -1.3528 H      1 <0>       0.4000
   26 H26      -6.4936    -4.8712    -1.0186 H      1 <0>       0.4100
   27 H27      -1.7757    -4.6131     0.3699 H      1 <0>       0.1700
   28 H28      -2.2931     1.5960    -2.1374 H      1 <0>       0.1100
   29 H29      -3.8308     0.7208    -1.9430 H      1 <0>       0.1000
   30 H30      -2.8533     1.1310    -0.5132 H      1 <0>       0.0900
@<TRIPOS>BOND
   1    1    2 1
   2    1   20 1
   3    1   21 1
   4    1   22 1
   5    2    3 2
   6    2    4 1
   7    4    5 2
   8    4   17 1
   9    5    6 1
  10    5   23 1
  11    6   16 ar
  12    6    7 ar
  13    7    8 ar
  14    7   24 1
  15    8    9 1
  16    8   10 ar
  17    9   25 1
  18   10   11 1
  19   10   12 ar
  20   11   26 1
  21   12   13 1
  22   12   16 ar
  23   13   14 2
  24   13   15 2
  25   16   27 1
  26   17   18 1
  27   17   19 2
  28   18   28 1
  29   18   29 1
  30   18   30 1
