@<TRIPOS>MOLECULE
ZINC000000057125
  45   47    0    0    0
SMALL
USER_CHARGES
NO_NAME
@<TRIPOS>ATOM
    1 C1        0.1653     1.4924     0.0021 C.3    1 <0>      -0.1300
    2 C2        0.0920    -0.0128    -0.0046 C.2    1 <0>      -0.1000
    3 C3        0.2380    -0.7800     1.2842 C.3    1 <0>      -0.1200
    4 C4       -0.0987    -0.6543    -1.1308 C.2    1 <0>      -0.2000
    5 C5       -0.1216     0.1019    -2.4341 C.3    1 <0>       0.1600
    6 N6        0.8545    -0.4844    -3.3560 N.pl3  1 <0>      -0.6900
    7 C7        1.0139     0.0461    -4.6242 C.ar   1 <0>       0.5100
    8 C8        1.9411    -0.5071    -5.5235 C.ar   1 <0>      -0.1100
    9 N9        2.8195    -1.5371    -5.4728 N.2    1 <0>      -0.4600
   10 C10       3.4526    -1.6226    -6.6067 C.2    1 <0>       0.2600
   11 N11       3.0180    -0.6500    -7.4573 N.pl3  1 <0>      -0.4700
   12 C12       3.4895    -0.4208    -8.8252 C.3    1 <0>       0.3200
   13 H13       2.6690    -0.0912    -9.4626 H      1 <0>       0.1200
   14 O14       4.1002    -1.6150    -9.3594 O.3    1 <0>      -0.3500
   15 C15       4.9598    -1.2019   -10.4348 C.3    1 <0>       0.0500
   16 H16       4.4188    -1.2468   -11.3800 H      1 <0>       0.1000
   17 C17       6.1897    -2.1100   -10.4959 C.3    1 <0>       0.0800
   18 O18       5.7885    -3.4311   -10.8642 O.3    1 <0>      -0.5600
   19 C19       5.3900     0.2494   -10.1457 C.3    1 <0>       0.0400
   20 H20       6.4685     0.3054    -9.9980 H      1 <0>       0.0900
   21 O21       4.9867     1.1122   -11.2110 O.3    1 <0>      -0.5400
   22 C22       4.6416     0.6160    -8.8389 C.3    1 <0>       0.0800
   23 H23       5.2882     0.4866    -7.9710 H      1 <0>       0.0900
   24 O24       4.1340     1.9505    -8.8992 O.3    1 <0>      -0.5200
   25 C25       2.0578     0.0745    -6.7974 C.ar   1 <0>       0.3200
   26 N26       1.2936     1.1176    -7.1037 N.ar   1 <0>      -0.5500
   27 C27       0.4378     1.6023    -6.2286 C.ar   1 <0>       0.3600
   28 N28       0.2897     1.0872    -5.0218 N.ar   1 <0>      -0.5900
   29 H29       0.2365     1.8482     1.0299 H      1 <0>       0.0600
   30 H30       1.0439     1.8159    -0.5561 H      1 <0>       0.0700
   31 H31      -0.7316     1.9019    -0.4628 H      1 <0>       0.0700
   32 H32       0.3884    -0.0818     2.1076 H      1 <0>       0.0600
   33 H33      -0.6646    -1.3642     1.4635 H      1 <0>       0.0700
   34 H34       1.0958    -1.4489     1.2137 H      1 <0>       0.0700
   35 H35      -0.2395    -1.7250    -1.1251 H      1 <0>       0.1200
   36 H36      -1.1177     0.0405    -2.8724 H      1 <0>       0.0800
   37 H37       0.1318     1.1464    -2.2527 H      1 <0>       0.0800
   38 H38       1.3890    -1.2444    -3.0775 H      1 <0>       0.4200
   39 H39       4.2106    -2.3559    -6.8393 H      1 <0>       0.2200
   40 H40       6.8903    -1.7234   -11.2361 H      1 <0>       0.0700
   41 H41       6.6713    -2.1357    -9.5184 H      1 <0>       0.0600
   42 H42       6.5189    -4.0621   -10.9226 H      1 <0>       0.3900
   43 H43       5.3809     0.8920   -12.0661 H      1 <0>       0.3900
   44 H44       4.8175     2.6272    -8.9989 H      1 <0>       0.3900
   45 H45      -0.1683     2.4509    -6.5094 H      1 <0>       0.2000
@<TRIPOS>BOND
   1    1    2 1
   2    1   29 1
   3    1   30 1
   4    1   31 1
   5    2    3 1
   6    2    4 2
   7    3   32 1
   8    3   33 1
   9    3   34 1
  10    4    5 1
  11    4   35 1
  12    5    6 1
  13    5   36 1
  14    5   37 1
  15    6    7 1
  16    6   38 1
  17    7   28 ar
  18    7    8 ar
  19    8   25 ar
  20    8    9 1
  21    9   10 2
  22   10   11 1
  23   10   39 1
  24   11   12 1
  25   11   25 1
  26   12   13 1
  27   12   22 1
  28   12   14 1
  29   14   15 1
  30   15   16 1
  31   15   17 1
  32   15   19 1
  33   17   18 1
  34   17   40 1
  35   17   41 1
  36   18   42 1
  37   19   20 1
  38   19   21 1
  39   19   22 1
  40   21   43 1
  41   22   23 1
  42   22   24 1
  43   24   44 1
  44   25   26 ar
  45   26   27 ar
  46   27   28 ar
  47   27   45 1
