@<TRIPOS>MOLECULE
ZINC000014762797
47    49    1     0     0
SMALL
USER_CHARGES
@<TRIPOS>ATOM
1      C1     -0.3285    1.6115   -2.0025 C.3      1 ZINC000014762797    0.0200
2      O2     -0.3498    0.3797   -1.2783 O.3      1 ZINC000014762797   -0.3100
3      C3     -1.5484   -0.2484   -1.1655 C.ar     1 ZINC000014762797    0.1500
4      C4     -2.6804    0.3097   -1.7469 C.ar     1 ZINC000014762797   -0.2100
5      C5     -3.8983   -0.3239   -1.6350 C.ar     1 ZINC000014762797   -0.0400
6      C6     -3.9945   -1.5302   -0.9352 C.ar     1 ZINC000014762797   -0.0900
7      C7     -5.2959   -2.2126   -0.8131 C.2      1 ZINC000014762797    0.1400
8      C8     -5.3632   -3.5484   -1.0731 C.2      1 ZINC000014762797   -0.0500
9      O9     -4.2452   -4.2334   -1.4378 O.3      1 ZINC000014762797   -0.4500
10     C10    -6.6082   -4.2196   -0.9600 C.2      1 ZINC000014762797    0.4000
11     O11    -6.7067   -5.4154   -1.1846 O.2      1 ZINC000014762797   -0.4500
12     C12    -7.7760   -3.4179   -0.5610 C.ar     1 ZINC000014762797   -0.2600
13     C13    -9.0435   -3.9985   -0.4243 C.ar     1 ZINC000014762797    0.2200
14     O14    -9.2176   -5.3236   -0.6601 O.3      1 ZINC000014762797   -0.4700
15     C15   -10.1158   -3.2115   -0.0470 C.ar     1 ZINC000014762797   -0.2000
16     C16    -9.9355   -1.8539    0.1941 C.ar     1 ZINC000014762797    0.2000
17     O17   -10.9954   -1.0903    0.5636 O.3      1 ZINC000014762797   -0.4800
18     C18    -8.6840   -1.2726    0.0613 C.ar     1 ZINC000014762797   -0.1400
19     C19    -8.5058    0.2001    0.3269 C.3      1 ZINC000014762797   -0.0500
20     C20    -8.1795    0.4121    1.7828 C.2      1 ZINC000014762797   -0.1700
21     C21    -7.0814    1.0399    2.1233 C.2      1 ZINC000014762797   -0.1200
22     C22    -6.1093    1.4873    1.0622 C.3      1 ZINC000014762797   -0.1300
23     C23    -6.7902    1.3148    3.5762 C.3      1 ZINC000014762797   -0.1200
24     C24    -7.5963   -2.0450   -0.3160 C.ar     1 ZINC000014762797    0.1900
25     O25    -6.3707   -1.4948   -0.4443 O.3      1 ZINC000014762797   -0.1900
26     C26    -2.8530   -2.0880   -0.3520 C.ar     1 ZINC000014762797   -0.0200
27     C27    -1.6382   -1.4502   -0.4738 C.ar     1 ZINC000014762797   -0.1600
28     H28     0.6872    2.0068   -2.0171 H        1 ZINC000014762797    0.1000
29     H29    -0.6656    1.4380   -3.0244 H        1 ZINC000014762797    0.0600
30     H30    -0.9908    2.3291   -1.5183 H        1 ZINC000014762797    0.0600
31     H31    -2.6052    1.2419   -2.2870 H        1 ZINC000014762797    0.1400
32     H32    -4.7776    0.1108   -2.0869 H        1 ZINC000014762797    0.1300
33     H33    -4.3961   -5.1746   -1.6001 H        1 ZINC000014762797    0.4100
34     H34    -9.0970   -5.8812    0.1207 H        1 ZINC000014762797    0.4000
35     H35   -11.0960   -3.6521    0.0604 H        1 ZINC000014762797    0.1500
36     H36   -11.1314   -1.0426    1.5198 H        1 ZINC000014762797    0.4000
37     H37    -7.6915    0.5841   -0.2875 H        1 ZINC000014762797    0.0900
38     H38    -9.4271    0.7278    0.0804 H        1 ZINC000014762797    0.0900
39     H39    -8.8511    0.0464    2.5455 H        1 ZINC000014762797    0.1100
40     H40    -6.4227    2.4533    0.6664 H        1 ZINC000014762797    0.0700
41     H41    -5.1137    1.5784    1.4967 H        1 ZINC000014762797    0.0600
42     H42    -6.0883    0.7538    0.2562 H        1 ZINC000014762797    0.0800
43     H43    -6.2279    0.4817    3.9980 H        1 ZINC000014762797    0.0700
44     H44    -6.2038    2.2296    3.6624 H        1 ZINC000014762797    0.0600
45     H45    -7.7281    1.4320    4.1189 H        1 ZINC000014762797    0.0600
46     H46    -2.9227   -3.0198    0.1895 H        1 ZINC000014762797    0.1400
47     H47    -0.7558   -1.8805   -0.0239 H        1 ZINC000014762797    0.1400
@<TRIPOS>BOND
1     1     2     1
2     1     28    1
3     1     29    1
4     1     30    1
5     2     3     1
6     3     27    ar
7     3     4     ar
8     4     5     ar
9     4     31    1
10    5     6     ar
11    5     32    1
12    6     7     1
13    6     26    ar
14    7     25    1
15    7     8     2
16    8     9     1
17    8     10    1
18    9     33    1
19    10    11    2
20    10    12    1
21    12    24    ar
22    12    13    ar
23    13    14    1
24    13    15    ar
25    14    34    1
26    15    16    ar
27    15    35    1
28    16    17    1
29    16    18    ar
30    17    36    1
31    18    19    1
32    18    24    ar
33    19    20    1
34    19    37    1
35    19    38    1
36    20    21    2
37    20    39    1
38    21    22    1
39    21    23    1
40    22    40    1
41    22    41    1
42    22    42    1
43    23    43    1
44    23    44    1
45    23    45    1
46    24    25    1
47    26    27    ar
48    26    46    1
49    27    47    1
@<TRIPOS>SUBSTRUCTURE
1   ZINC000014762797 1     RESIDUE    1   A     ZIN   1
