@<TRIPOS>MOLECULE
ZINC000090583842
  51   55    0    0    0
SMALL
USER_CHARGES
NO_NAME
@<TRIPOS>ATOM
    1 C1        0.2182     1.7643    -0.1081 C.ar   1 <0>      -0.1000
    2 C2        1.4573     2.3792    -0.1079 C.ar   1 <0>      -0.1200
    3 C3        2.6083     1.6179    -0.0940 C.ar   1 <0>      -0.0800
    4 C4        2.5206     0.2271    -0.0801 C.ar   1 <0>      -0.0500
    5 C5        3.7543    -0.5965    -0.0646 C.ar   1 <0>       0.1100
    6 C6        3.6643    -1.9901    -0.0564 C.ar   1 <0>      -0.0900
    7 C7        4.8538    -2.7198    -0.0418 C.ar   1 <0>      -0.0500
    8 C8        4.8431    -4.2026    -0.0329 C.ar   1 <0>       0.0000
    9 C9        5.5182    -4.9315    -1.0165 C.ar   1 <0>      -0.1400
   10 C10       5.4824    -6.3100    -0.9707 C.ar   1 <0>       0.1000
   11 N11       4.8230    -6.9390    -0.0167 N.ar   1 <0>      -0.4800
   12 C12       4.1732    -6.2891     0.9298 C.ar   1 <0>       0.1000
   13 C13       4.1625    -4.9098     0.9626 C.ar   1 <0>      -0.1600
   14 C14       6.0628    -2.0018    -0.0364 C.ar   1 <0>       0.3300
   15 N15       7.2743    -2.6775    -0.0224 N.pl3  1 <0>      -0.6500
   16 C16       8.0010    -2.9360    -1.2734 C.3    1 <0>       0.1300
   17 C17       9.4192    -2.3668    -1.1429 C.3    1 <0>       0.1100
   18 N18       9.9991    -2.8365     0.1232 N.pl3  1 <0>      -0.5800
   19 C19      11.2082    -3.5099     0.1372 C.ar   1 <0>       0.5700
   20 N20      11.8430    -3.7230    -1.0060 N.ar   1 <0>      -0.5700
   21 C21      13.0005    -4.3629    -1.0276 C.ar   1 <0>       0.1900
   22 C22      13.5473    -4.8116     0.1644 C.ar   1 <0>      -0.3000
   23 C23      12.8568    -4.5718     1.3420 C.ar   1 <0>       0.1900
   24 N24      11.7060    -3.9213     1.2941 N.ar   1 <0>      -0.5700
   25 C25       9.2723    -2.5781     1.3741 C.3    1 <0>       0.1100
   26 C26       7.8569    -3.1424     1.2442 C.3    1 <0>       0.1400
   27 N27       6.0400    -0.6771    -0.0451 N.ar   1 <0>      -0.2400
   28 N28       4.9443    -0.0101    -0.0640 N.ar   1 <0>      -0.2200
   29 C29       1.2696    -0.3870    -0.0803 C.ar   1 <0>      -0.1000
   30 C30       0.1252     0.3842    -0.0943 C.ar   1 <0>      -0.1200
   31 H31      -0.6800     2.3640    -0.1145 H      1 <0>       0.1300
   32 H32       1.5241     3.4571    -0.1191 H      1 <0>       0.1300
   33 H33       3.5752     2.0990    -0.0943 H      1 <0>       0.1400
   34 H34       2.7054    -2.4869    -0.0608 H      1 <0>       0.1500
   35 H35       6.0594    -4.4232    -1.8007 H      1 <0>       0.1300
   36 H36       6.0008    -6.8818    -1.7261 H      1 <0>       0.1600
   37 H37       3.6463    -6.8443     1.6918 H      1 <0>       0.1600
   38 H38       3.6287    -4.3843     1.7407 H      1 <0>       0.1400
   39 H39       8.0529    -4.0101    -1.4511 H      1 <0>       0.0700
   40 H40       7.4866    -2.4500    -2.1024 H      1 <0>       0.0800
   41 H41      10.0305    -2.7132    -1.9761 H      1 <0>       0.1100
   42 H42       9.3778    -1.2776    -1.1444 H      1 <0>       0.0700
   43 H43      13.5132    -4.5339    -1.9627 H      1 <0>       0.1700
   44 H44      14.4908    -5.3371     0.1753 H      1 <0>       0.1400
   45 H45      13.2553    -4.9086     2.2875 H      1 <0>       0.1700
   46 H46       9.7867    -3.0641     2.2032 H      1 <0>       0.1100
   47 H47       9.2205    -1.5039     1.5518 H      1 <0>       0.0700
   48 H48       7.2467    -2.7952     2.0780 H      1 <0>       0.0800
   49 H49       7.8959    -4.2317     1.2448 H      1 <0>       0.0600
   50 H50       1.1958    -1.4645    -0.0695 H      1 <0>       0.1300
   51 H51      -0.8448    -0.0906    -0.0944 H      1 <0>       0.1300
@<TRIPOS>BOND
   1    1   30 ar
   2    1    2 ar
   3    1   31 1
   4    2    3 ar
   5    2   32 1
   6    3    4 ar
   7    3   33 1
   8    4    5 1
   9    4   29 ar
  10    5   28 ar
  11    5    6 ar
  12    6    7 ar
  13    6   34 1
  14    7    8 1
  15    7   14 ar
  16    8   13 ar
  17    8    9 ar
  18    9   10 ar
  19    9   35 1
  20   10   11 ar
  21   10   36 1
  22   11   12 ar
  23   12   13 ar
  24   12   37 1
  25   13   38 1
  26   14   15 1
  27   14   27 ar
  28   15   26 1
  29   15   16 1
  30   16   17 1
  31   16   39 1
  32   16   40 1
  33   17   18 1
  34   17   41 1
  35   17   42 1
  36   18   19 1
  37   18   25 1
  38   19   24 ar
  39   19   20 ar
  40   20   21 ar
  41   21   22 ar
  42   21   43 1
  43   22   23 ar
  44   22   44 1
  45   23   24 ar
  46   23   45 1
  47   25   26 1
  48   25   46 1
  49   25   47 1
  50   26   48 1
  51   26   49 1
  52   27   28 ar
  53   29   30 ar
  54   29   50 1
  55   30   51 1
