@<TRIPOS>MOLECULE
ZINC000049756387
97    102   1     0     0
SMALL
USER_CHARGES
@<TRIPOS>ATOM
1      C1     -3.4335   -0.2364   -0.4091 C.3      1 ZINC000049756387   -0.1300
2      C2     -2.4879    0.3054    0.6317 C.2      1 ZINC000049756387    0.0300
3      C3     -1.9797    1.5609    0.5267 C.2      1 ZINC000049756387   -0.2500
4      C4     -1.0966    2.0450    1.5136 C.2      1 ZINC000049756387    0.5100
5      O5     -0.6486    3.1726    1.4074 O.2      1 ZINC000049756387   -0.4600
6      O6     -0.7374    1.2952    2.5674 O.3      1 ZINC000049756387   -0.2700
7      C7     -1.2062    0.0395    2.7315 C.ar     1 ZINC000049756387    0.1700
8      C8     -0.8251   -0.7212    3.8257 C.ar     1 ZINC000049756387   -0.1400
9      C9     -1.3186   -2.0088    3.9749 C.ar     1 ZINC000049756387    0.1900
10     N10    -0.9346   -2.7740    5.0766 N.am     1 ZINC000049756387   -0.6600
11     C11    -0.6838   -2.1759    6.2580 C.2      1 ZINC000049756387    0.5100
12     O12    -0.8842   -0.9871    6.3906 O.2      1 ZINC000049756387   -0.4900
13     C13    -0.1542   -2.9843    7.4144 C.3      1 ZINC000049756387    0.1300
14     H14     0.8004   -3.4318    7.1379 H        1 ZINC000049756387    0.1300
15     C15    -1.1532   -4.0891    7.7642 C.3      1 ZINC000049756387   -0.1300
16     C16    -0.5614   -4.9856    8.8536 C.3      1 ZINC000049756387   -0.1200
17     C17    -1.5603   -6.0904    9.2033 C.3      1 ZINC000049756387   -0.1500
18     C18    -0.9685   -6.9869   10.2928 C.3      1 ZINC000049756387   -0.0100
19     N19    -1.9277   -8.0477   10.6286 N.4      1 ZINC000049756387   -0.6400
20     H20    -1.5374   -8.6390   11.3471 H        1 ZINC000049756387    0.4400
21     H21    -2.7845   -7.6329   10.9631 H        1 ZINC000049756387    0.4400
22     H22    -2.1199   -8.5999    9.8063 H        1 ZINC000049756387    0.4400
23     N23     0.0339   -2.1107    8.5753 N.am     1 ZINC000049756387   -0.7100
24     C24     0.9285   -2.4396    9.5282 C.2      1 ZINC000049756387    0.5300
25     O25     1.6431   -3.4084    9.3807 O.2      1 ZINC000049756387   -0.5300
26     C26     1.0408   -1.6037   10.7771 C.3      1 ZINC000049756387    0.1500
27     H27     0.0446   -1.3128   11.1104 H        1 ZINC000049756387    0.1200
28     C28     1.8653   -0.3498   10.4790 C.3      1 ZINC000049756387   -0.1300
29     C29     1.1112    0.5310    9.4807 C.3      1 ZINC000049756387   -0.1000
30     C30    -0.1539    1.0825   10.1412 C.3      1 ZINC000049756387   -0.1200
31     C31    -0.9079    1.9632    9.1428 C.3      1 ZINC000049756387   -0.1200
32     C32    -0.0114    3.1246    8.7088 C.3      1 ZINC000049756387   -0.1200
33     C33     1.2537    2.5731    8.0483 C.3      1 ZINC000049756387   -0.1200
34     C34     2.0077    1.6924    9.0466 C.3      1 ZINC000049756387   -0.1100
35     N35     1.6995   -2.3826   11.8286 N.am     1 ZINC000049756387   -0.7000
36     C36     1.4277   -2.1307   13.1244 C.2      1 ZINC000049756387    0.6500
37     O37     0.5703   -1.3217   13.4192 O.2      1 ZINC000049756387   -0.5600
38     O38     2.1061   -2.7755   14.0922 O.3      1 ZINC000049756387   -0.3600
39     C39     1.7607   -2.4542   15.4654 C.3      1 ZINC000049756387    0.1100
40     C40     2.6300   -3.2792   16.4164 C.3      1 ZINC000049756387    0.0000
41     C41     4.0664   -2.8240   16.3341 C.ar     1 ZINC000049756387   -0.0900
42     C42     4.9704   -2.7960   15.2937 C.ar     1 ZINC000049756387   -0.0900
43     C43     6.2520   -2.3173   15.5021 C.ar     1 ZINC000049756387   -0.1100
44     C44     6.6285   -1.8656   16.7539 C.ar     1 ZINC000049756387   -0.1100
45     C45     5.7302   -1.8895   17.8008 C.ar     1 ZINC000049756387   -0.0900
46     C46     4.4361   -2.3714   17.5980 C.ar     1 ZINC000049756387   -0.0600
47     C47     3.2874   -2.5085   18.5273 C.ar     1 ZINC000049756387   -0.0500
48     C48     3.1580   -2.1957   19.8814 C.ar     1 ZINC000049756387   -0.0900
49     C49     1.9611   -2.4213   20.5294 C.ar     1 ZINC000049756387   -0.1100
50     C50     0.8870   -2.9573   19.8426 C.ar     1 ZINC000049756387   -0.1100
51     C51     1.0081   -3.2697   18.4998 C.ar     1 ZINC000049756387   -0.1000
52     C52     2.2007   -3.0488   17.8446 C.ar     1 ZINC000049756387   -0.1000
53     C53    -2.1961   -2.5443    3.0325 C.ar     1 ZINC000049756387   -0.1600
54     C54    -2.5804   -1.8082    1.9496 C.ar     1 ZINC000049756387   -0.0300
55     C55    -2.0967   -0.5050    1.7869 C.ar     1 ZINC000049756387   -0.1600
56     H56    -4.4590    0.0049   -0.1291 H        1 ZINC000049756387    0.0900
57     H57    -3.2057    0.2126   -1.3759 H        1 ZINC000049756387    0.0900
58     H58    -3.3199   -1.3184   -0.4752 H        1 ZINC000049756387    0.0800
59     H59    -2.2511    2.1865   -0.3108 H        1 ZINC000049756387    0.1700
60     H60    -0.1459   -0.3128    4.5595 H        1 ZINC000049756387    0.1600
61     H61    -0.8481   -3.7364    4.9922 H        1 ZINC000049756387    0.4200
62     H62    -2.0788   -3.6410    8.1255 H        1 ZINC000049756387    0.0800
63     H63    -1.3609   -4.6856    6.8758 H        1 ZINC000049756387    0.0800
64     H64     0.3642   -5.4337    8.4923 H        1 ZINC000049756387    0.0900
65     H65    -0.3537   -4.3891    9.7419 H        1 ZINC000049756387    0.0800
66     H66    -2.4859   -5.6423    9.5647 H        1 ZINC000049756387    0.0900
67     H67    -1.7680   -6.6870    8.3150 H        1 ZINC000049756387    0.0900
68     H68    -0.0429   -7.4351    9.9315 H        1 ZINC000049756387    0.1400
69     H69    -0.7608   -6.3904   11.1811 H        1 ZINC000049756387    0.1300
70     H70    -0.4853   -1.2955    8.6581 H        1 ZINC000049756387    0.4200
71     H71     2.0286    0.2057   11.4025 H        1 ZINC000049756387    0.0900
72     H72     2.8265   -0.6394   10.0544 H        1 ZINC000049756387    0.0800
73     H73     0.8367   -0.0619    8.6082 H        1 ZINC000049756387    0.0800
74     H74    -0.7925    0.2551   10.4504 H        1 ZINC000049756387    0.0600
75     H75     0.1207    1.6753   11.0137 H        1 ZINC000049756387    0.0700
76     H76    -1.1824    1.3704    8.2703 H        1 ZINC000049756387    0.0700
77     H77    -1.8092    2.3562    9.6134 H        1 ZINC000049756387    0.0600
78     H78    -0.5486    3.7521    7.9975 H        1 ZINC000049756387    0.0600
79     H79     0.2631    3.7175    9.5813 H        1 ZINC000049756387    0.0600
80     H80     0.9791    1.9803    7.1758 H        1 ZINC000049756387    0.0600
81     H81     1.8923    3.4005    7.7390 H        1 ZINC000049756387    0.0600
82     H82     2.2822    2.2852    9.9191 H        1 ZINC000049756387    0.0700
83     H83     2.9090    1.2995    8.5761 H        1 ZINC000049756387    0.0600
84     H84     2.3312   -3.0797   11.5921 H        1 ZINC000049756387    0.4200
85     H85     1.9325   -1.3928   15.6445 H        1 ZINC000049756387    0.0800
86     H86     0.7101   -2.6866   15.6396 H        1 ZINC000049756387    0.0800
87     H87     2.5561   -4.3381   16.1685 H        1 ZINC000049756387    0.1100
88     H88     4.6783   -3.1483   14.3154 H        1 ZINC000049756387    0.1300
89     H89     6.9593   -2.2967   14.6862 H        1 ZINC000049756387    0.1300
90     H90     7.6298   -1.4931   16.9126 H        1 ZINC000049756387    0.1300
91     H91     6.0283   -1.5359   18.7767 H        1 ZINC000049756387    0.1300
92     H92     3.9945   -1.7777   20.4217 H        1 ZINC000049756387    0.1300
93     H93     1.8626   -2.1788   21.5772 H        1 ZINC000049756387    0.1300
94     H94    -0.0474   -3.1325   20.3549 H        1 ZINC000049756387    0.1300
95     H95     0.1681   -3.6882   17.9653 H        1 ZINC000049756387    0.1200
96     H96    -2.5735   -3.5481    3.1603 H        1 ZINC000049756387    0.1400
97     H97    -3.2599   -2.2283    1.2228 H        1 ZINC000049756387    0.1500
@<TRIPOS>BOND
1     1     2     1
2     1     56    1
3     1     57    1
4     1     58    1
5     2     55    1
6     2     3     2
7     3     4     1
8     3     59    1
9     4     5     2
10    4     6     1
11    6     7     1
12    7     55    ar
13    7     8     ar
14    8     9     ar
15    8     60    1
16    9     10    1
17    9     53    ar
18    10    11    am
19    10    61    1
20    11    12    2
21    11    13    1
22    13    14    1
23    13    15    1
24    13    23    1
25    15    16    1
26    15    62    1
27    15    63    1
28    16    17    1
29    16    64    1
30    16    65    1
31    17    18    1
32    17    66    1
33    17    67    1
34    18    19    1
35    18    68    1
36    18    69    1
37    19    20    1
38    19    21    1
39    19    22    1
40    23    24    am
41    23    70    1
42    24    25    2
43    24    26    1
44    26    27    1
45    26    28    1
46    26    35    1
47    28    29    1
48    28    71    1
49    28    72    1
50    29    34    1
51    29    30    1
52    29    73    1
53    30    31    1
54    30    74    1
55    30    75    1
56    31    32    1
57    31    76    1
58    31    77    1
59    32    33    1
60    32    78    1
61    32    79    1
62    33    34    1
63    33    80    1
64    33    81    1
65    34    82    1
66    34    83    1
67    35    36    am
68    35    84    1
69    36    37    2
70    36    38    1
71    38    39    1
72    39    40    1
73    39    85    1
74    39    86    1
75    40    52    1
76    40    41    1
77    40    87    1
78    41    46    ar
79    41    42    ar
80    42    43    ar
81    42    88    1
82    43    44    ar
83    43    89    1
84    44    45    ar
85    44    90    1
86    45    46    ar
87    45    91    1
88    46    47    1
89    47    52    ar
90    47    48    ar
91    48    49    ar
92    48    92    1
93    49    50    ar
94    49    93    1
95    50    51    ar
96    50    94    1
97    51    52    ar
98    51    95    1
99    53    54    ar
100   53    96    1
101   54    55    ar
102   54    97    1
@<TRIPOS>SUBSTRUCTURE
1   ZINC000049756387 1     RESIDUE    1   A     ZIN   1
