@<TRIPOS>MOLECULE
ZINC000001532333
35    37    1     0     0
SMALL
USER_CHARGES
@<TRIPOS>ATOM
1      C1      0.5507    1.2842    0.5683 C.3      1 ZINC000001532333   -0.6500
2      S2      0.6519   -0.5227    0.4443 S.o2     1 ZINC000001532333    2.5000
3      O3      1.6276   -1.0304    1.3440 O.2      1 ZINC000001532333   -0.9400
4      O4     -0.6486   -1.0915    0.3767 O.2      1 ZINC000001532333   -0.9400
5      C5      1.3381   -0.8161   -1.1518 C.ar     1 ZINC000001532333   -0.6600
6      C6      0.5028   -0.9548   -2.2459 C.ar     1 ZINC000001532333   -0.0200
7      C7      1.0343   -1.1843   -3.4984 C.ar     1 ZINC000001532333   -0.1300
8      C8      2.4165   -1.2763   -3.6602 C.ar     1 ZINC000001532333    0.0300
9      C9      2.9935   -1.5221   -5.0024 C.2      1 ZINC000001532333   -0.0700
10     C10     3.9268   -0.6989   -5.5757 C.2      1 ZINC000001532333   -0.1200
11     C11     4.4819    0.5221   -4.9594 C.ar     1 ZINC000001532333   -0.0400
12     C12     5.8617    0.7393   -4.9532 C.ar     1 ZINC000001532333   -0.0700
13     C13     6.3744    1.8819   -4.3759 C.ar     1 ZINC000001532333   -0.1500
14     C14     5.5237    2.8134   -3.8022 C.ar     1 ZINC000001532333    0.1100
15     F15     6.0318    3.9307   -3.2376 F        1 ZINC000001532333   -0.1300
16     C16     4.1538    2.6036   -3.8057 C.ar     1 ZINC000001532333   -0.1500
17     C17     3.6290    1.4676   -4.3851 C.ar     1 ZINC000001532333   -0.0600
18     S18     4.3596   -1.3251   -7.1609 S.3      1 ZINC000001532333    0.2100
19     C19     3.2526   -2.6771   -6.9725 C.2      1 ZINC000001532333   -0.2100
20     Br20    2.9759   -4.0345   -8.2596 Br       1 ZINC000001532333    0.0200
21     C21     2.6407   -2.6122   -5.7908 C.2      1 ZINC000001532333   -0.0700
22     C22     3.2533   -1.1357   -2.5534 C.ar     1 ZINC000001532333   -0.1200
23     C23     2.7102   -0.9012   -1.3068 C.ar     1 ZINC000001532333   -0.0200
24     H24     1.5485    1.7116    0.4696 H        1 ZINC000001532333    0.1300
25     H25    -0.0892    1.6677   -0.2264 H        1 ZINC000001532333    0.1300
26     H26     0.1319    1.5591    1.5364 H        1 ZINC000001532333    0.1300
27     H27    -0.5674   -0.8837   -2.1193 H        1 ZINC000001532333    0.1500
28     H28     0.3813   -1.2927   -4.3518 H        1 ZINC000001532333    0.1400
29     H29     6.5256    0.0137   -5.3994 H        1 ZINC000001532333    0.1400
30     H30     7.4411    2.0509   -4.3705 H        1 ZINC000001532333    0.1400
31     H31     3.4957    3.3332   -3.3574 H        1 ZINC000001532333    0.1400
32     H32     2.5613    1.3052   -4.3876 H        1 ZINC000001532333    0.1400
33     H33     1.9173   -3.3480   -5.4718 H        1 ZINC000001532333    0.1500
34     H34     4.3244   -1.2063   -2.6724 H        1 ZINC000001532333    0.1300
35     H35     3.3572   -0.7918   -0.4490 H        1 ZINC000001532333    0.1400
@<TRIPOS>BOND
1     1     2     1
2     1     24    1
3     1     25    1
4     1     26    1
5     2     3     2
6     2     4     2
7     2     5     1
8     5     23    ar
9     5     6     ar
10    6     7     ar
11    6     27    1
12    7     8     ar
13    7     28    1
14    8     9     1
15    8     22    ar
16    9     21    1
17    9     10    2
18    10    11    1
19    10    18    1
20    11    17    ar
21    11    12    ar
22    12    13    ar
23    12    29    1
24    13    14    ar
25    13    30    1
26    14    15    1
27    14    16    ar
28    16    17    ar
29    16    31    1
30    17    32    1
31    18    19    1
32    19    20    1
33    19    21    2
34    21    33    1
35    22    23    ar
36    22    34    1
37    23    35    1
@<TRIPOS>SUBSTRUCTURE
1   ZINC000001532333 1     RESIDUE    1   A     ZIN   1
