@<TRIPOS>MOLECULE
ZINC000001912926
  51   55    0    0    0
SMALL
USER_CHARGES
NO_NAME
@<TRIPOS>ATOM
    1 F1        1.3237     1.2801    -0.2426 F      1 <0>      -0.1800
    2 C2       -0.0424     1.4087     0.0303 C.3    1 <0>       0.3700
    3 F3       -0.2258     2.3245     1.0719 F      1 <0>      -0.1800
    4 C4       -0.7569     1.9000    -1.2022 C.2    1 <0>       0.2300
    5 N5       -1.6565     1.2298    -1.8591 N.2    1 <0>      -0.4300
    6 C6       -2.0952     1.9630    -2.9156 C.ar   1 <0>       0.0400
    7 C7       -3.0329     1.7303    -3.9245 C.ar   1 <0>      -0.0600
    8 C8       -3.2620     2.6941    -4.8804 C.ar   1 <0>      -0.1200
    9 C9       -2.5685     3.8951    -4.8501 C.ar   1 <0>      -0.0900
   10 C10      -1.6394     4.1407    -3.8608 C.ar   1 <0>      -0.0900
   11 C11      -1.3960     3.1813    -2.8894 C.ar   1 <0>       0.0800
   12 N12      -0.5584     3.1165    -1.7891 N.pl3  1 <0>      -0.4100
   13 C13       0.3220     4.1040    -1.3634 C.ar   1 <0>       0.6500
   14 N14       0.3292     5.2894    -1.9615 N.ar   1 <0>      -0.6500
   15 C15       1.1712     6.2347    -1.5547 C.ar   1 <0>       0.6600
   16 N16       1.1783     7.4669    -2.1763 N.pl3  1 <0>      -0.5700
   17 C17       2.1052     8.5262    -1.7476 C.3    1 <0>       0.0900
   18 C18       2.8314     9.0636    -2.9861 C.3    1 <0>       0.0500
   19 O19       1.8668     9.4266    -3.9768 O.3    1 <0>      -0.3800
   20 C20       1.0755     8.3346    -4.4511 C.3    1 <0>       0.0500
   21 C21       0.2632     7.7580    -3.2913 C.3    1 <0>       0.0900
   22 N22       2.0059     5.9927    -0.5490 N.ar   1 <0>      -0.6600
   23 C23       1.9981     4.8059     0.0493 C.ar   1 <0>       0.6600
   24 N24       2.8641     4.5539     1.0940 N.pl3  1 <0>      -0.5700
   25 C25       3.8008     5.5854     1.5671 C.3    1 <0>       0.0900
   26 C26       3.6594     5.7056     3.0888 C.3    1 <0>       0.0500
   27 O27       3.7919     4.4096     3.6776 O.3    1 <0>      -0.3800
   28 C28       2.7812     3.4800     3.2799 C.3    1 <0>       0.0500
   29 C29       2.8737     3.2477     1.7716 C.3    1 <0>       0.0800
   30 N30       1.1517     3.8633    -0.3550 N.ar   1 <0>      -0.6400
   31 H31      -0.4472     0.4398     0.3229 H      1 <0>       0.1500
   32 H32      -3.5760     0.7972    -3.9547 H      1 <0>       0.1400
   33 H33      -3.9871     2.5136    -5.6602 H      1 <0>       0.1400
   34 H34      -2.7572     4.6426    -5.6064 H      1 <0>       0.1400
   35 H35      -1.1025     5.0776    -3.8429 H      1 <0>       0.1400
   36 H36       1.5468     9.3320    -1.2711 H      1 <0>       0.0800
   37 H37       2.8312     8.1167    -1.0452 H      1 <0>       0.1100
   38 H38       3.4193     9.9396    -2.7120 H      1 <0>       0.1100
   39 H39       3.4904     8.2923    -3.3849 H      1 <0>       0.0600
   40 H40       0.4000     8.6862    -5.2309 H      1 <0>       0.1100
   41 H41       1.7280     7.5607    -4.8553 H      1 <0>       0.0600
   42 H42      -0.2325     6.8412    -3.6103 H      1 <0>       0.1100
   43 H43      -0.4815     8.4851    -2.9675 H      1 <0>       0.0800
   44 H44       4.8215     5.2980     1.3148 H      1 <0>       0.0800
   45 H45       3.5616     6.5406     1.0996 H      1 <0>       0.1100
   46 H46       4.4381     6.3627     3.4760 H      1 <0>       0.1100
   47 H47       2.6801     6.1176     3.3320 H      1 <0>       0.0600
   48 H48       2.9281     2.5359     3.8045 H      1 <0>       0.1100
   49 H49       1.7987     3.8839     3.5238 H      1 <0>       0.0600
   50 H50       2.0227     2.6535     1.4388 H      1 <0>       0.1100
   51 H51       3.8011     2.7253     1.5368 H      1 <0>       0.0800
@<TRIPOS>BOND
   1    1    2 1
   2    2    3 1
   3    2    4 1
   4    2   31 1
   5    4   12 1
   6    4    5 2
   7    5    6 1
   8    6   11 ar
   9    6    7 ar
  10    7    8 ar
  11    7   32 1
  12    8    9 ar
  13    8   33 1
  14    9   10 ar
  15    9   34 1
  16   10   11 ar
  17   10   35 1
  18   11   12 1
  19   12   13 1
  20   13   30 ar
  21   13   14 ar
  22   14   15 ar
  23   15   16 1
  24   15   22 ar
  25   16   21 1
  26   16   17 1
  27   17   18 1
  28   17   36 1
  29   17   37 1
  30   18   19 1
  31   18   38 1
  32   18   39 1
  33   19   20 1
  34   20   21 1
  35   20   40 1
  36   20   41 1
  37   21   42 1
  38   21   43 1
  39   22   23 ar
  40   23   24 1
  41   23   30 ar
  42   24   29 1
  43   24   25 1
  44   25   26 1
  45   25   44 1
  46   25   45 1
  47   26   27 1
  48   26   46 1
  49   26   47 1
  50   27   28 1
  51   28   29 1
  52   28   48 1
  53   28   49 1
  54   29   50 1
  55   29   51 1
