@<TRIPOS>MOLECULE
ZINC000003922715
87    90    1     0     0
SMALL
USER_CHARGES
@<TRIPOS>ATOM
1      C1     -0.0187    1.5258    0.0104 C.3      1 ZINC000003922715   -0.1500
2      C2      0.0021   -0.0041    0.0020 C.3      1 ZINC000003922715   -0.0900
3      C3      0.7421   -0.5109    1.2415 C.3      1 ZINC000003922715   -0.1400
4      C4     -1.4333   -0.5336    0.0129 C.3      1 ZINC000003922715   -0.1200
5      C5     -1.4157   -2.0577   -0.1212 C.3      1 ZINC000003922715    0.1500
6      H6     -0.7891   -2.4841    0.6622 H        1 ZINC000003922715    0.1100
7      N7     -0.8765   -2.4263   -1.4325 N.am     1 ZINC000003922715   -0.7200
8      C8      0.4560   -2.5245   -1.6099 C.2      1 ZINC000003922715    0.7000
9      O9      1.2105   -2.3071   -0.6816 O.2      1 ZINC000003922715   -0.5800
10     N10     0.9520   -2.8636   -2.8163 N.am     1 ZINC000003922715   -0.6200
11     C11     0.0285   -3.1099   -3.9011 C.3      1 ZINC000003922715    0.1100
12     C12    -0.3779   -4.6043   -3.9082 C.3      1 ZINC000003922715   -0.1400
13     C13     0.7498   -5.4383   -4.3511 C.3      1 ZINC000003922715   -0.1100
14     C14     1.9696   -5.3831   -3.4365 C.3      1 ZINC000003922715   -0.1200
15     C15     2.8222   -4.1958   -3.8109 C.3      1 ZINC000003922715   -0.1300
16     C16     2.4159   -2.9624   -2.9771 C.3      1 ZINC000003922715    0.1300
17     C17    -2.8192   -2.5900    0.0125 C.2      1 ZINC000003922715    0.5100
18     O18    -3.3197   -3.2157   -0.8979 O.2      1 ZINC000003922715   -0.5200
19     N19    -3.5181   -2.3707    1.1439 N.am     1 ZINC000003922715   -0.7000
20     C20    -4.8824   -2.8882    1.2739 C.3      1 ZINC000003922715    0.1400
21     H21    -4.9577   -3.8471    0.7611 H        1 ZINC000003922715    0.1100
22     C22    -5.8657   -1.8968    0.6484 C.3      1 ZINC000003922715   -0.0500
23     C23    -5.6131   -1.8067   -0.8345 C.2      1 ZINC000003922715   -0.1400
24     C24    -4.8452   -0.9007   -1.4601 C.2      1 ZINC000003922715    0.0500
25     N25    -4.8546   -1.1325   -2.8086 N.pl3    1 ZINC000003922715   -0.4800
26     C26    -4.1276   -0.3404   -3.8038 C.3      1 ZINC000003922715    0.0800
27     C27    -5.6490   -2.2211   -3.0910 C.ar     1 ZINC000003922715    0.1100
28     C28    -5.9988   -2.8714   -4.2696 C.ar     1 ZINC000003922715   -0.1400
29     C29    -6.8373   -3.9640   -4.2254 C.ar     1 ZINC000003922715   -0.1000
30     C30    -7.3377   -4.4238   -3.0154 C.ar     1 ZINC000003922715   -0.1500
31     C31    -7.0070   -3.7999   -1.8453 C.ar     1 ZINC000003922715   -0.0600
32     C32    -6.1540   -2.6951   -1.8661 C.ar     1 ZINC000003922715   -0.0800
33     C33    -5.2134   -3.0713    2.7327 C.2      1 ZINC000003922715    0.5100
34     O34    -4.3906   -2.7966    3.5803 O.2      1 ZINC000003922715   -0.5600
35     N35    -6.4237   -3.5403    3.0954 N.am     1 ZINC000003922715   -0.6700
36     C36    -6.7454   -3.7183    4.5135 C.3      1 ZINC000003922715    0.0900
37     H37    -5.8520   -4.0346    5.0519 H        1 ZINC000003922715    0.0800
38     C38    -7.8332   -4.7842    4.6599 C.3      1 ZINC000003922715   -0.0700
39     C39    -7.2962   -6.1160    4.2027 C.ar     1 ZINC000003922715    0.1400
40     C40    -7.3556   -7.2043    5.0521 C.ar     1 ZINC000003922715   -0.1700
41     C41    -6.8591   -8.4255    4.6216 C.ar     1 ZINC000003922715   -0.0800
42     C42    -6.3193   -8.5060    3.3473 C.ar     1 ZINC000003922715   -0.1900
43     C43    -6.2940   -7.3745    2.5538 C.ar     1 ZINC000003922715    0.1000
44     N44    -6.7799   -6.2307    2.9945 N.ar     1 ZINC000003922715   -0.4700
45     C45    -7.2401   -2.4141    5.0839 C.2      1 ZINC000003922715    0.4900
46     O46    -7.4906   -1.4800    4.3415 O.co2    1 ZINC000003922715   -0.6800
47     O47    -7.3899   -2.2930    6.2878 O.co2    1 ZINC000003922715   -0.7000
48     H48     1.0039    1.9031    0.0027 H        1 ZINC000003922715    0.0500
49     H49    -0.5459    1.8868   -0.8726 H        1 ZINC000003922715    0.0500
50     H50    -0.5289    1.8773    0.9072 H        1 ZINC000003922715    0.0500
51     H51     0.5123   -0.3556   -0.8948 H        1 ZINC000003922715    0.0800
52     H52     0.2319   -0.1594    2.1383 H        1 ZINC000003922715    0.0400
53     H53     0.7568   -1.6008    1.2356 H        1 ZINC000003922715    0.0700
54     H54     1.7647   -0.1336    1.2338 H        1 ZINC000003922715    0.0500
55     H55    -1.9156   -0.2570    0.9504 H        1 ZINC000003922715    0.0800
56     H56    -1.9862   -0.1019   -0.8214 H        1 ZINC000003922715    0.0600
57     H57    -1.4784   -2.5997   -2.1731 H        1 ZINC000003922715    0.4000
58     H58    -0.8601   -2.4928   -3.7684 H        1 ZINC000003922715    0.0700
59     H59     0.5060   -2.8592   -4.8483 H        1 ZINC000003922715    0.0800
60     H60    -0.6739   -4.9024   -2.9024 H        1 ZINC000003922715    0.0700
61     H61    -1.2196   -4.7460   -4.5861 H        1 ZINC000003922715    0.0700
62     H62     0.4114   -6.4725   -4.4147 H        1 ZINC000003922715    0.0600
63     H63     1.0495   -5.1141   -5.3477 H        1 ZINC000003922715    0.0600
64     H64     1.6436   -5.2846   -2.4010 H        1 ZINC000003922715    0.0700
65     H65     2.5508   -6.2982   -3.5496 H        1 ZINC000003922715    0.0600
66     H66     3.8701   -4.4298   -3.6232 H        1 ZINC000003922715    0.0700
67     H67     2.6874   -3.9735   -4.8694 H        1 ZINC000003922715    0.0600
68     H68     2.7853   -2.0639   -3.4712 H        1 ZINC000003922715    0.0600
69     H69     2.8740   -3.0356   -1.9907 H        1 ZINC000003922715    0.0900
70     H70    -3.1177   -1.8703    1.8720 H        1 ZINC000003922715    0.4100
71     H71    -6.8861   -2.2379    0.8231 H        1 ZINC000003922715    0.0900
72     H72    -5.7285   -0.9146    1.1007 H        1 ZINC000003922715    0.0800
73     H73    -4.3008   -0.1062   -0.9714 H        1 ZINC000003922715    0.1500
74     H74    -3.1337   -0.7635   -3.9494 H        1 ZINC000003922715    0.0600
75     H75    -4.6713   -0.3563   -4.7484 H        1 ZINC000003922715    0.0800
76     H76    -4.0371    0.6879   -3.4540 H        1 ZINC000003922715    0.0800
77     H77    -5.6149   -2.5210   -5.2162 H        1 ZINC000003922715    0.1100
78     H78    -7.1080   -4.4674   -5.1418 H        1 ZINC000003922715    0.1200
79     H79    -7.9941   -5.2813   -2.9983 H        1 ZINC000003922715    0.1200
80     H80    -7.4002   -4.1633   -0.9074 H        1 ZINC000003922715    0.1200
81     H81    -7.0818   -3.7601    2.4175 H        1 ZINC000003922715    0.4000
82     H82    -8.1356   -4.8537    5.7048 H        1 ZINC000003922715    0.1000
83     H83    -8.6942   -4.5109    4.0499 H        1 ZINC000003922715    0.0800
84     H84    -7.7830   -7.1050    6.0390 H        1 ZINC000003922715    0.1300
85     H85    -6.8919   -9.2931    5.2640 H        1 ZINC000003922715    0.1300
86     H86    -5.9231   -9.4409    2.9793 H        1 ZINC000003922715    0.1300
87     H87    -5.8748   -7.4288    1.5600 H        1 ZINC000003922715    0.1500
@<TRIPOS>BOND
1     1     2     1
2     1     48    1
3     1     49    1
4     1     50    1
5     2     3     1
6     2     4     1
7     2     51    1
8     3     52    1
9     3     53    1
10    3     54    1
11    4     5     1
12    4     55    1
13    4     56    1
14    5     6     1
15    5     7     1
16    5     17    1
17    7     8     am
18    7     57    1
19    8     9     2
20    8     10    am
21    10    16    1
22    10    11    1
23    11    12    1
24    11    58    1
25    11    59    1
26    12    13    1
27    12    60    1
28    12    61    1
29    13    14    1
30    13    62    1
31    13    63    1
32    14    15    1
33    14    64    1
34    14    65    1
35    15    16    1
36    15    66    1
37    15    67    1
38    16    68    1
39    16    69    1
40    17    18    2
41    17    19    am
42    19    20    1
43    19    70    1
44    20    21    1
45    20    22    1
46    20    33    1
47    22    23    1
48    22    71    1
49    22    72    1
50    23    32    1
51    23    24    2
52    24    25    1
53    24    73    1
54    25    26    1
55    25    27    1
56    26    74    1
57    26    75    1
58    26    76    1
59    27    32    ar
60    27    28    ar
61    28    29    ar
62    28    77    1
63    29    30    ar
64    29    78    1
65    30    31    ar
66    30    79    1
67    31    32    ar
68    31    80    1
69    33    34    2
70    33    35    am
71    35    36    1
72    35    81    1
73    36    37    1
74    36    38    1
75    36    45    1
76    38    39    1
77    38    82    1
78    38    83    1
79    39    44    ar
80    39    40    ar
81    40    41    ar
82    40    84    1
83    41    42    ar
84    41    85    1
85    42    43    ar
86    42    86    1
87    43    44    ar
88    43    87    1
89    45    46    ar
90    45    47    ar
@<TRIPOS>SUBSTRUCTURE
1   ZINC000003922715 1     RESIDUE    1   A     ZIN   1
