@<TRIPOS>MOLECULE
ZINC000003938976
  49   52    0    0    0
SMALL
USER_CHARGES
NO_NAME
@<TRIPOS>ATOM
    1 C1       -0.0804     1.5015     0.0201 C.3    1 <0>      -0.1200
    2 C2       -0.0429    -0.0050     0.0087 C.ar   1 <0>      -0.0800
    3 C3        1.1713    -0.6653     0.0443 C.ar   1 <0>      -0.1100
    4 C4        1.2085    -2.0463     0.0344 C.ar   1 <0>      -0.1200
    5 C5        0.0260    -2.7706    -0.0113 C.ar   1 <0>       0.0700
    6 O6        0.0598    -4.1289    -0.0207 O.3    1 <0>      -0.2200
    7 C7       -0.0413    -4.7612    -1.2190 C.ar   1 <0>       0.1500
    8 C8       -0.0497    -4.0273    -2.3936 C.ar   1 <0>      -0.2000
    9 C9       -0.1527    -4.6719    -3.6125 C.ar   1 <0>      -0.0800
   10 C10      -0.2473    -6.0509    -3.6671 C.ar   1 <0>      -0.1500
   11 C11      -0.2401    -6.7949    -2.5040 C.ar   1 <0>      -0.0700
   12 C12      -0.1314    -6.1561    -1.2711 C.ar   1 <0>      -0.0500
   13 C13      -0.1227    -6.9505    -0.0189 C.2    1 <0>       0.1400
   14 C14      -0.2118    -8.2922    -0.0182 C.2    1 <0>      -0.3200
   15 S15      -0.1659    -8.8468     1.6537 S.3    1 <0>       0.2300
   16 C16      -0.0278    -7.1795     2.2037 C.2    1 <0>       0.3000
   17 N17       0.0647    -6.7768     3.5293 N.pl3  1 <0>      -0.6100
   18 C18       0.0517    -7.7159     4.5370 C.2    1 <0>       0.6300
   19 N19      -0.0421    -8.9661     4.2231 N.2    1 <0>      -0.6600
   20 C20      -0.0854   -10.0463     5.2020 C.3    1 <0>       0.0900
   21 C21       0.4957    -9.5838     6.5399 C.3    1 <0>      -0.1700
   22 C22      -0.1598    -8.2471     6.9184 C.3    1 <0>       0.1300
   23 N23       0.1446    -7.2908     5.8413 N.pl3  1 <0>      -0.7600
   24 N24      -0.0208    -6.3869     1.1772 N.2    1 <0>      -0.4900
   25 C25      -1.1914    -2.1053    -0.0470 C.ar   1 <0>      -0.0900
   26 C26      -2.4778    -2.8887    -0.0967 C.3    1 <0>      -0.1100
   27 C27      -1.2232    -0.7246    -0.0316 C.ar   1 <0>      -0.1100
   28 H28      -0.1193     1.8562     1.0500 H      1 <0>       0.0700
   29 H29       0.8148     1.8909    -0.4648 H      1 <0>       0.0700
   30 H30      -0.9638     1.8470    -0.5168 H      1 <0>       0.0700
   31 H31       2.0915    -0.1010     0.0795 H      1 <0>       0.1300
   32 H32       2.1572    -2.5616     0.0618 H      1 <0>       0.1300
   33 H33       0.0238    -2.9504    -2.3574 H      1 <0>       0.1300
   34 H34      -0.1596    -4.0961    -4.5262 H      1 <0>       0.1300
   35 H35      -0.3274    -6.5473    -4.6229 H      1 <0>       0.1300
   36 H36      -0.3144    -7.8714    -2.5503 H      1 <0>       0.1300
   37 H37      -0.2973    -8.9214    -0.8918 H      1 <0>       0.1700
   38 H38       0.1384    -5.8342     3.7458 H      1 <0>       0.4200
   39 H39      -1.1197   -10.3579     5.3478 H      1 <0>       0.0700
   40 H40       0.4949   -10.8910     4.8309 H      1 <0>       0.0900
   41 H41       0.2826   -10.3269     7.3084 H      1 <0>       0.0900
   42 H42       1.5732    -9.4495     6.4446 H      1 <0>       0.0700
   43 H43      -1.2382    -8.3761     7.0105 H      1 <0>       0.0700
   44 H44       0.2528    -7.8856     7.8603 H      1 <0>       0.0900
   45 H45       0.3996    -6.3781     6.0479 H      1 <0>       0.4000
   46 H46      -2.8226    -3.0859     0.9184 H      1 <0>       0.0700
   47 H47      -3.2333    -2.3132    -0.6316 H      1 <0>       0.0700
   48 H48      -2.3080    -3.8337    -0.6127 H      1 <0>       0.0700
   49 H49      -2.1703    -0.2063    -0.0590 H      1 <0>       0.1300
@<TRIPOS>BOND
   1    1    2 1
   2    1   28 1
   3    1   29 1
   4    1   30 1
   5    2   27 ar
   6    2    3 ar
   7    3    4 ar
   8    3   31 1
   9    4    5 ar
  10    4   32 1
  11    5    6 1
  12    5   25 ar
  13    6    7 1
  14    7   12 ar
  15    7    8 ar
  16    8    9 ar
  17    8   33 1
  18    9   10 ar
  19    9   34 1
  20   10   11 ar
  21   10   35 1
  22   11   12 ar
  23   11   36 1
  24   12   13 1
  25   13   24 1
  26   13   14 2
  27   14   15 1
  28   14   37 1
  29   15   16 1
  30   16   17 1
  31   16   24 2
  32   17   18 1
  33   17   38 1
  34   18   23 1
  35   18   19 2
  36   19   20 1
  37   20   21 1
  38   20   39 1
  39   20   40 1
  40   21   22 1
  41   21   41 1
  42   21   42 1
  43   22   23 1
  44   22   43 1
  45   22   44 1
  46   23   45 1
  47   25   26 1
  48   25   27 ar
  49   26   46 1
  50   26   47 1
  51   26   48 1
  52   27   49 1
