@<TRIPOS>MOLECULE
ZINC000098209057
70    75    1     0     0
SMALL
USER_CHARGES
@<TRIPOS>ATOM
1      O1      0.2127    0.8277   -0.6637 O.2      1 ZINC000098209057   -0.5300
2      C2     -0.2819    1.4626    0.2435 C.2      1 ZINC000098209057    0.5200
3      N3      0.4133    1.6678    1.3798 N.am     1 ZINC000098209057   -0.7000
4      C4      1.7664    1.1238    1.5190 C.3      1 ZINC000098209057    0.1700
5      C5      2.3190    1.4916    2.8719 C.ar     1 ZINC000098209057   -0.1000
6      C6      3.0200    2.6719    3.0330 C.ar     1 ZINC000098209057   -0.0700
7      C7      3.5283    3.0125    4.2725 C.ar     1 ZINC000098209057   -0.1700
8      C8      3.3348    2.1694    5.3557 C.ar     1 ZINC000098209057    0.0800
9      O9      3.8335    2.5028    6.5758 O.3      1 ZINC000098209057   -0.3000
10     C10     4.5471    3.7373    6.6697 C.3      1 ZINC000098209057    0.6100
11     F11     3.7030    4.7926    6.3075 F        1 ZINC000098209057   -0.1600
12     F12     4.9874    3.9225    7.9847 F        1 ZINC000098209057   -0.1300
13     F13     5.6495    3.7054    5.8090 F        1 ZINC000098209057   -0.1600
14     C14     2.6299    0.9832    5.1923 C.ar     1 ZINC000098209057    0.1000
15     F15     2.4394    0.1589    6.2456 F        1 ZINC000098209057   -0.1200
16     C16     2.1188    0.6503    3.9511 C.ar     1 ZINC000098209057   -0.1000
17     C17    -1.6714    2.0275    0.0979 C.3      1 ZINC000098209057    0.1400
18     H18    -1.9498    2.5547    1.0104 H        1 ZINC000098209057    0.1100
19     C19    -1.7116    2.9960   -1.0889 C.3      1 ZINC000098209057    0.0600
20     N20    -3.0978    3.4233   -1.3214 N.3      1 ZINC000098209057   -0.4400
21     C21    -3.1550    4.4157   -2.2740 C.2      1 ZINC000098209057    0.3300
22     N22    -2.1304    4.9079   -2.8916 N.2      1 ZINC000098209057   -0.5100
23     C23    -2.3431    5.8685   -3.7919 C.ar     1 ZINC000098209057    0.3700
24     N24    -1.4596    6.5369   -4.5607 N.ar     1 ZINC000098209057   -0.4800
25     C25    -1.8594    7.4613   -5.4002 C.ar     1 ZINC000098209057    0.3800
26     C26    -0.8280    8.1764   -6.2344 C.3      1 ZINC000098209057   -0.1100
27     C27    -1.3339    9.1007   -7.3437 C.3      1 ZINC000098209057   -0.1500
28     C28    -0.7188    9.6941   -6.0747 C.3      1 ZINC000098209057   -0.1500
29     N29    -3.1296    7.7901   -5.5437 N.ar     1 ZINC000098209057   -0.5100
30     C30    -4.0695    7.1881   -4.8315 C.ar     1 ZINC000098209057    0.2300
31     C31    -3.6995    6.2020   -3.9276 C.ar     1 ZINC000098209057   -0.3300
32     S32    -4.6325    5.1909   -2.8311 S.3      1 ZINC000098209057    0.1400
33     C33    -3.9505    2.2865   -1.6936 C.3      1 ZINC000098209057    0.0300
34     C34    -4.0020    1.2889   -0.5315 C.3      1 ZINC000098209057    0.1300
35     N35    -2.6248    0.9358   -0.1523 N.am     1 ZINC000098209057   -0.9900
36     S36    -2.1592   -0.6478   -0.0194 S.o2     1 ZINC000098209057    2.6900
37     O37    -0.9811   -0.6544    0.7750 O.2      1 ZINC000098209057   -0.9300
38     O38    -3.3279   -1.3827    0.3175 O.2      1 ZINC000098209057   -0.9400
39     C39    -1.6786   -1.1868   -1.6266 C.ar     1 ZINC000098209057   -0.6500
40     C40    -2.6419   -1.5035   -2.5662 C.ar     1 ZINC000098209057   -0.0300
41     C41    -2.2648   -1.9264   -3.8271 C.ar     1 ZINC000098209057   -0.1000
42     C42    -0.9245   -2.0321   -4.1486 C.ar     1 ZINC000098209057   -0.1300
43     C43    -0.5135   -2.4936   -5.5230 C.3      1 ZINC000098209057    0.5000
44     F44    -0.3885   -1.3862   -6.3688 F        1 ZINC000098209057   -0.1700
45     F45     0.7138   -3.1604   -5.4434 F        1 ZINC000098209057   -0.1700
46     F46    -1.4841   -3.3625   -6.0329 F        1 ZINC000098209057   -0.1700
47     C47     0.0387   -1.7141   -3.2094 C.ar     1 ZINC000098209057   -0.1000
48     C48    -0.3384   -1.2876   -1.9498 C.ar     1 ZINC000098209057    0.0200
49     H49     0.0177    2.1756    2.1054 H        1 ZINC000098209057    0.4000
50     H50     1.7334    0.0386    1.4228 H        1 ZINC000098209057    0.0900
51     H51     2.4066    1.5383    0.7401 H        1 ZINC000098209057    0.0900
52     H52     3.1712    3.3288    2.1892 H        1 ZINC000098209057    0.1500
53     H53     4.0761    3.9349    4.3969 H        1 ZINC000098209057    0.1500
54     H54     1.5707   -0.2714    3.8227 H        1 ZINC000098209057    0.1600
55     H55    -1.0946    3.8671   -0.8685 H        1 ZINC000098209057    0.1100
56     H56    -1.3309    2.4960   -1.9795 H        1 ZINC000098209057    0.0800
57     H57     0.0920    7.6224   -6.4210 H        1 ZINC000098209057    0.1300
58     H58    -0.7467    9.1549   -8.2605 H        1 ZINC000098209057    0.1000
59     H59    -2.4127    9.1917   -7.4701 H        1 ZINC000098209057    0.1100
60     H60    -1.3929   10.1754   -5.3662 H        1 ZINC000098209057    0.1000
61     H61     0.2731   10.1386   -6.1565 H        1 ZINC000098209057    0.1100
62     H62    -5.1077    7.4604   -4.9518 H        1 ZINC000098209057    0.1800
63     H63    -4.9572    2.6430   -1.9118 H        1 ZINC000098209057    0.1100
64     H64    -3.5386    1.7964   -2.5757 H        1 ZINC000098209057    0.0700
65     H65    -4.5077    1.7443    0.3199 H        1 ZINC000098209057    0.1000
66     H66    -4.5378    0.3920   -0.8424 H        1 ZINC000098209057    0.1100
67     H67    -3.6890   -1.4209   -2.3150 H        1 ZINC000098209057    0.1400
68     H68    -3.0173   -2.1744   -4.5609 H        1 ZINC000098209057    0.1500
69     H69     1.0858   -1.7964   -3.4607 H        1 ZINC000098209057    0.1500
70     H70     0.4142   -1.0392   -1.2160 H        1 ZINC000098209057    0.1700
@<TRIPOS>BOND
1     1     2     2
2     2     3     am
3     2     17    1
4     3     4     1
5     3     49    1
6     4     5     1
7     4     50    1
8     4     51    1
9     5     16    ar
10    5     6     ar
11    6     7     ar
12    6     52    1
13    7     8     ar
14    7     53    1
15    8     9     1
16    8     14    ar
17    9     10    1
18    10    11    1
19    10    12    1
20    10    13    1
21    14    15    1
22    14    16    ar
23    16    54    1
24    17    18    1
25    17    35    1
26    17    19    1
27    19    20    1
28    19    55    1
29    19    56    1
30    20    21    1
31    20    33    1
32    21    32    1
33    21    22    2
34    22    23    1
35    23    31    ar
36    23    24    ar
37    24    25    ar
38    25    26    1
39    25    29    ar
40    26    28    1
41    26    27    1
42    26    57    1
43    27    28    1
44    27    58    1
45    27    59    1
46    28    60    1
47    28    61    1
48    29    30    ar
49    30    31    ar
50    30    62    1
51    31    32    1
52    33    34    1
53    33    63    1
54    33    64    1
55    34    35    1
56    34    65    1
57    34    66    1
58    35    36    am
59    36    37    2
60    36    38    2
61    36    39    1
62    39    48    ar
63    39    40    ar
64    40    41    ar
65    40    67    1
66    41    42    ar
67    41    68    1
68    42    43    1
69    42    47    ar
70    43    44    1
71    43    45    1
72    43    46    1
73    47    48    ar
74    47    69    1
75    48    70    1
@<TRIPOS>SUBSTRUCTURE
1   ZINC000098209057 1     RESIDUE    1   A     ZIN   1
