@<TRIPOS>MOLECULE
ZINC000003935475
84    88    1     0     0
SMALL
USER_CHARGES
@<TRIPOS>ATOM
1      C1      1.0955    0.8734    0.0649 C.3      1 ZINC000003935475   -0.1800
2      C2      0.8401   -0.6004    0.2483 C.2      1 ZINC000003935475    0.5200
3      O3      1.4633   -1.4098   -0.4055 O.2      1 ZINC000003935475   -0.5200
4      N4     -0.0807   -1.0191    1.1390 N.am     1 ZINC000003935475   -0.6200
5      C5     -0.9013   -0.0417    1.8584 C.3      1 ZINC000003935475    0.0500
6      C6     -0.2609   -2.4515    1.3877 C.3      1 ZINC000003935475    0.2200
7      C7      0.9640   -3.0023    2.0712 C.ar     1 ZINC000003935475   -0.1000
8      C8      1.3430   -4.3146    1.8585 C.ar     1 ZINC000003935475   -0.1100
9      C9      2.4666   -4.8198    2.4854 C.ar     1 ZINC000003935475   -0.1100
10     C10     3.2115   -4.0127    3.3248 C.ar     1 ZINC000003935475   -0.1100
11     C11     2.8331   -2.7002    3.5369 C.ar     1 ZINC000003935475   -0.1100
12     C12     1.7119   -2.1937    2.9066 C.ar     1 ZINC000003935475   -0.1000
13     C13    -1.4871   -2.6660    2.2797 C.3      1 ZINC000003935475   -0.1500
14     C14    -2.7370   -2.1755    1.5458 C.3      1 ZINC000003935475   -0.0200
15     N15    -2.9017   -2.9275    0.2960 N.4      1 ZINC000003935475   -0.3800
16     H16    -2.9495   -3.9141    0.5020 H        1 ZINC000003935475    0.4200
17     C17    -4.1430   -2.5065   -0.3671 C.3      1 ZINC000003935475   -0.0100
18     C18    -4.3804   -3.3751   -1.6041 C.3      1 ZINC000003935475   -0.1600
19     C19    -5.6733   -2.9367   -2.2947 C.3      1 ZINC000003935475   -0.1100
20     C20    -5.9774   -3.8843   -3.4568 C.3      1 ZINC000003935475   -0.0200
21     C21    -6.3129   -5.2507   -2.9169 C.ar     1 ZINC000003935475   -0.0600
22     C22    -6.4746   -5.4354   -1.5567 C.ar     1 ZINC000003935475   -0.1100
23     C23    -6.7824   -6.6884   -1.0602 C.ar     1 ZINC000003935475   -0.1000
24     C24    -6.9286   -7.7580   -1.9246 C.ar     1 ZINC000003935475   -0.0300
25     Cl25   -7.3157   -9.3315   -1.3017 Cl       1 ZINC000003935475   -0.0400
26     C26    -6.7666   -7.5730   -3.2875 C.ar     1 ZINC000003935475   -0.0200
27     Cl27   -6.9498   -8.9145   -4.3739 Cl       1 ZINC000003935475   -0.0300
28     C28    -6.4643   -6.3176   -3.7830 C.ar     1 ZINC000003935475   -0.0900
29     C29    -4.7534   -3.9816   -4.3703 C.3      1 ZINC000003935475   -0.1100
30     C30    -4.3924   -2.5891   -4.8923 C.3      1 ZINC000003935475   -0.1400
31     C31    -5.5633   -2.0353   -5.7103 C.3      1 ZINC000003935475    0.0900
32     N32    -6.7775   -2.0738   -4.8838 N.am     1 ZINC000003935475   -0.6100
33     C33    -7.5207   -0.9641   -4.7032 C.2      1 ZINC000003935475    0.5600
34     O34    -8.4685   -0.9846   -3.9424 O.2      1 ZINC000003935475   -0.5300
35     C35    -7.1832    0.2781   -5.4304 C.ar     1 ZINC000003935475   -0.1400
36     C36    -6.8344    0.2269   -6.7809 C.ar     1 ZINC000003935475   -0.0900
37     C37    -6.5210    1.3898   -7.4537 C.ar     1 ZINC000003935475   -0.1200
38     C38    -6.5515    2.6049   -6.7926 C.ar     1 ZINC000003935475   -0.0900
39     C39    -6.8961    2.6625   -5.4538 C.ar     1 ZINC000003935475   -0.1200
40     C40    -7.2177    1.5077   -4.7709 C.ar     1 ZINC000003935475   -0.0700
41     C41    -7.1664   -3.3452   -4.2584 C.3      1 ZINC000003935475    0.1200
42     C42    -1.7633   -2.6697   -0.5940 C.3      1 ZINC000003935475    0.0000
43     C43    -0.4759   -3.1792    0.0575 C.3      1 ZINC000003935475   -0.1700
44     H44     0.4468    1.2595   -0.7215 H        1 ZINC000003935475    0.1000
45     H45     0.8868    1.3972    0.9977 H        1 ZINC000003935475    0.0900
46     H46     2.1375    1.0297   -0.2143 H        1 ZINC000003935475    0.1000
47     H47    -1.7555    0.2391    1.2423 H        1 ZINC000003935475    0.0600
48     H48    -1.2549   -0.4807    2.7913 H        1 ZINC000003935475    0.0900
49     H49    -0.3042    0.8436    2.0768 H        1 ZINC000003935475    0.0900
50     H50     0.7610   -4.9451    1.2027 H        1 ZINC000003935475    0.1200
51     H51     2.7623   -5.8453    2.3197 H        1 ZINC000003935475    0.1300
52     H52     4.0890   -4.4077    3.8152 H        1 ZINC000003935475    0.1300
53     H53     3.4148   -2.0697    4.1929 H        1 ZINC000003935475    0.1300
54     H54     1.4162   -1.1683    3.0722 H        1 ZINC000003935475    0.1200
55     H55    -1.5911   -3.7271    2.5065 H        1 ZINC000003935475    0.1100
56     H56    -1.3657   -2.1053    3.2065 H        1 ZINC000003935475    0.1200
57     H57    -3.6119   -2.3267    2.1781 H        1 ZINC000003935475    0.1400
58     H58    -2.6321   -1.1144    1.3197 H        1 ZINC000003935475    0.1400
59     H59    -4.9797   -2.6197    0.3223 H        1 ZINC000003935475    0.1300
60     H60    -4.0584   -1.4621   -0.6674 H        1 ZINC000003935475    0.1300
61     H61    -3.5437   -3.2619   -2.2935 H        1 ZINC000003935475    0.0900
62     H62    -4.4650   -4.4195   -1.3038 H        1 ZINC000003935475    0.1000
63     H63    -6.4949   -2.9641   -1.5790 H        1 ZINC000003935475    0.0800
64     H64    -5.5561   -1.9218   -2.6747 H        1 ZINC000003935475    0.0900
65     H65    -6.3602   -4.6004   -0.8813 H        1 ZINC000003935475    0.1400
66     H66    -6.9083   -6.8320    0.0028 H        1 ZINC000003935475    0.1400
67     H67    -6.3381   -6.1726   -4.8457 H        1 ZINC000003935475    0.1400
68     H68    -3.9125   -4.3882   -3.8085 H        1 ZINC000003935475    0.0700
69     H69    -4.9792   -4.6374   -5.2112 H        1 ZINC000003935475    0.0800
70     H70    -4.1906   -1.9261   -4.0509 H        1 ZINC000003935475    0.0700
71     H71    -3.5067   -2.6557   -5.5241 H        1 ZINC000003935475    0.0800
72     H72    -5.3517   -1.0063   -6.0010 H        1 ZINC000003935475    0.1000
73     H73    -5.7081   -2.6465   -6.6011 H        1 ZINC000003935475    0.0800
74     H74    -6.8095   -0.7209   -7.2979 H        1 ZINC000003935475    0.1300
75     H75    -6.2509    1.3517   -8.4987 H        1 ZINC000003935475    0.1300
76     H76    -6.3050    3.5123   -7.3238 H        1 ZINC000003935475    0.1300
77     H77    -6.9176    3.6141   -4.9435 H        1 ZINC000003935475    0.1300
78     H78    -7.4868    1.5541   -3.7260 H        1 ZINC000003935475    0.1300
79     H79    -7.4419   -4.0632   -5.0309 H        1 ZINC000003935475    0.0800
80     H80    -8.0124   -3.1805   -3.5912 H        1 ZINC000003935475    0.1000
81     H81    -1.9193   -3.1856   -1.5415 H        1 ZINC000003935475    0.1300
82     H82    -1.6792   -1.5980   -0.7745 H        1 ZINC000003935475    0.1200
83     H83     0.3683   -2.9852   -0.6041 H        1 ZINC000003935475    0.1500
84     H84    -0.5589   -4.2509    0.2382 H        1 ZINC000003935475    0.1000
@<TRIPOS>BOND
1     1     2     1
2     1     44    1
3     1     45    1
4     1     46    1
5     2     3     2
6     2     4     am
7     4     5     1
8     4     6     1
9     5     47    1
10    5     48    1
11    5     49    1
12    6     43    1
13    6     7     1
14    6     13    1
15    7     12    ar
16    7     8     ar
17    8     9     ar
18    8     50    1
19    9     10    ar
20    9     51    1
21    10    11    ar
22    10    52    1
23    11    12    ar
24    11    53    1
25    12    54    1
26    13    14    1
27    13    55    1
28    13    56    1
29    14    15    1
30    14    57    1
31    14    58    1
32    15    16    1
33    15    17    1
34    15    42    1
35    17    18    1
36    17    59    1
37    17    60    1
38    18    19    1
39    18    61    1
40    18    62    1
41    19    20    1
42    19    63    1
43    19    64    1
44    20    41    1
45    20    21    1
46    20    29    1
47    21    28    ar
48    21    22    ar
49    22    23    ar
50    22    65    1
51    23    24    ar
52    23    66    1
53    24    25    1
54    24    26    ar
55    26    27    1
56    26    28    ar
57    28    67    1
58    29    30    1
59    29    68    1
60    29    69    1
61    30    31    1
62    30    70    1
63    30    71    1
64    31    32    1
65    31    72    1
66    31    73    1
67    32    33    am
68    32    41    1
69    33    34    2
70    33    35    1
71    35    40    ar
72    35    36    ar
73    36    37    ar
74    36    74    1
75    37    38    ar
76    37    75    1
77    38    39    ar
78    38    76    1
79    39    40    ar
80    39    77    1
81    40    78    1
82    41    79    1
83    41    80    1
84    42    43    1
85    42    81    1
86    42    82    1
87    43    83    1
88    43    84    1
@<TRIPOS>SUBSTRUCTURE
1   ZINC000003935475 1     RESIDUE    1   A     ZIN   1
