@<TRIPOS>MOLECULE
ZINC000253661029
62    64    1     0     0
SMALL
USER_CHARGES
@<TRIPOS>ATOM
1      C1     -0.9240    2.7194   -1.4461 C.3      1 ZINC000253661029   -0.1900
2      C2     -1.4996    1.3357   -1.7545 C.3      1 ZINC000253661029   -0.0100
3      N3     -1.0435    0.9002   -3.0812 N.4      1 ZINC000253661029   -0.2500
4      C4     -1.5088   -0.4701   -3.3336 C.3      1 ZINC000253661029   -0.0600
5      C5      0.4242    0.9358   -3.1306 C.3      1 ZINC000253661029    0.0300
6      C6      0.9844   -0.0413   -2.1293 C.2      1 ZINC000253661029   -0.3100
7      C7      1.8426   -0.9846   -2.5252 C.2      1 ZINC000253661029    0.0500
8      C8      2.3858   -1.9322   -1.5543 C.2      1 ZINC000253661029   -0.2400
9      C9      3.3191   -2.7905   -2.0166 C.2      1 ZINC000253661029    0.2200
10     C10     3.6740   -2.7919   -3.4368 C.2      1 ZINC000253661029    0.5200
11     O11     4.6350   -2.1413   -3.8285 O.co2    1 ZINC000253661029   -0.6500
12     O12     3.0101   -3.4436   -4.2334 O.co2    1 ZINC000253661029   -0.6500
13     N13     3.9473   -3.6787   -1.1367 N.am     1 ZINC000253661029   -0.5600
14     C14     5.0593   -4.3824   -0.9631 C.2      1 ZINC000253661029    0.5200
15     O15     5.9155   -4.7551   -1.7372 O.2      1 ZINC000253661029   -0.4400
16     C16     4.8940   -4.5605    0.5280 C.3      1 ZINC000253661029    0.1400
17     H17     4.9543   -5.5945    0.8677 H        1 ZINC000253661029    0.1600
18     N18     5.6858   -3.6333    1.3401 N.am     1 ZINC000253661029   -0.6800
19     C19     6.7995   -4.0660    1.9638 C.2      1 ZINC000253661029    0.5400
20     O20     7.1959   -5.2002    1.7821 O.2      1 ZINC000253661029   -0.4800
21     C21     7.5403   -3.1589    2.8708 C.2      1 ZINC000253661029    0.1800
22     N22     8.6816   -3.5311    3.3738 N.2      1 ZINC000253661029   -0.2000
23     O23     9.2701   -4.7528    2.9664 O.3      1 ZINC000253661029   -0.2100
24     C24    10.5202   -5.0351    3.5985 C.3      1 ZINC000253661029    0.2400
25     F25    11.0145   -6.2570    3.1296 F        1 ZINC000253661029   -0.1800
26     C26     6.9822   -1.8283    3.2054 C.2      1 ZINC000253661029    0.3600
27     N27     5.7794   -1.4790    2.8210 N.2      1 ZINC000253661029   -0.4800
28     S28     5.5465    0.0981    3.4091 S.3      1 ZINC000253661029    0.2600
29     C29     7.0981    0.2043    4.1493 C.2      1 ZINC000253661029    0.3400
30     N30     7.6210    1.2737    4.8529 N.pl3    1 ZINC000253661029   -0.7800
31     N31     7.6761   -0.9502    3.9076 N.2      1 ZINC000253661029   -0.5500
32     C32     3.4860   -4.0819    0.2203 C.3      1 ZINC000253661029    0.1100
33     H33     2.7298   -4.8668    0.2308 H        1 ZINC000253661029    0.1500
34     S34     2.9717   -2.5590    1.0822 S.3      1 ZINC000253661029   -0.2100
35     C35     1.8476   -1.8342   -0.1641 C.3      1 ZINC000253661029   -0.0200
36     C36    -1.5899    1.7994   -4.1064 C.3      1 ZINC000253661029   -0.0300
37     C37    -1.0951    1.3726   -5.4643 C.2      1 ZINC000253661029    0.5100
38     N38    -1.3732    2.1224   -6.5492 N.am     1 ZINC000253661029   -0.8300
39     O39    -0.4467    0.3543   -5.5810 O.2      1 ZINC000253661029   -0.5100
40     H40     0.1648    2.6709   -1.4582 H        1 ZINC000253661029    0.0900
41     H41    -1.2644    3.4305   -2.1988 H        1 ZINC000253661029    0.0700
42     H42    -1.2625    3.0425   -0.4617 H        1 ZINC000253661029    0.1000
43     H43    -1.1592    0.6246   -1.0018 H        1 ZINC000253661029    0.1300
44     H44    -2.5884    1.3842   -1.7424 H        1 ZINC000253661029    0.1200
45     H45    -2.5960   -0.4760   -3.4120 H        1 ZINC000253661029    0.1100
46     H46    -1.0754   -0.8353   -4.2646 H        1 ZINC000253661029    0.1500
47     H47    -1.2003   -1.1158   -2.5114 H        1 ZINC000253661029    0.1200
48     H48     0.7609    0.6641   -4.1310 H        1 ZINC000253661029    0.1500
49     H49     0.7715    1.9408   -2.8909 H        1 ZINC000253661029    0.1200
50     H50     0.6916    0.0213   -1.0917 H        1 ZINC000253661029    0.1300
51     H51     2.1353   -1.0473   -3.5629 H        1 ZINC000253661029    0.1300
52     H52     5.4086   -2.7080    1.4290 H        1 ZINC000253661029    0.4300
53     H53    11.2316   -4.2424    3.3668 H        1 ZINC000253661029    0.0800
54     H54    10.3773   -5.0910    4.6776 H        1 ZINC000253661029    0.0800
55     H55     7.0949    2.0800    4.9715 H        1 ZINC000253661029    0.4300
56     H56     8.5139    1.2177    5.2277 H        1 ZINC000253661029    0.4200
57     H57     1.6692   -0.7884    0.0860 H        1 ZINC000253661029    0.1100
58     H58     0.8984   -2.3693   -0.1382 H        1 ZINC000253661029    0.0900
59     H59    -2.6787    1.7548   -4.0858 H        1 ZINC000253661029    0.1500
60     H60    -1.2642    2.8200   -3.9053 H        1 ZINC000253661029    0.1500
61     H61    -1.8919    2.9367   -6.4559 H        1 ZINC000253661029    0.4100
62     H62    -1.0548    1.8476   -7.4233 H        1 ZINC000253661029    0.4200
@<TRIPOS>BOND
1     1     2     1
2     1     40    1
3     1     41    1
4     1     42    1
5     2     3     1
6     2     43    1
7     2     44    1
8     3     4     1
9     3     5     1
10    3     36    1
11    4     45    1
12    4     46    1
13    4     47    1
14    5     6     1
15    5     48    1
16    5     49    1
17    6     7     2
18    6     50    1
19    7     8     1
20    7     51    1
21    8     35    1
22    8     9     2
23    9     10    1
24    9     13    1
25    10    11    ar
26    10    12    ar
27    13    32    1
28    13    14    am
29    14    15    2
30    14    16    1
31    16    17    1
32    16    18    1
33    16    32    1
34    18    19    am
35    18    52    1
36    19    20    2
37    19    21    1
38    21    22    2
39    21    26    1
40    22    23    1
41    23    24    1
42    24    25    1
43    24    53    1
44    24    54    1
45    26    31    1
46    26    27    2
47    27    28    1
48    28    29    1
49    29    30    1
50    29    31    2
51    30    55    1
52    30    56    1
53    32    33    1
54    32    34    1
55    34    35    1
56    35    57    1
57    35    58    1
58    36    37    1
59    36    59    1
60    36    60    1
61    37    38    am
62    37    39    2
63    38    61    1
64    38    62    1
@<TRIPOS>SUBSTRUCTURE
1   ZINC000253661029 1     RESIDUE    1   A     ZIN   1
