@<TRIPOS>MOLECULE
ZINC000000895132
13    12    1     0     0
SMALL
USER_CHARGES
@<TRIPOS>ATOM
1      C1     -0.0187    1.5258    0.0104 C.3      1 ZINC000000895132   -0.1500
2      C2      0.0021   -0.0041    0.0020 C.3      1 ZINC000000895132   -0.1000
3      C3     -1.4333   -0.5336    0.0129 C.3      1 ZINC000000895132   -0.1800
4      C4     -1.4129   -2.0405    0.0046 C.2      1 ZINC000000895132    0.4900
5      O5     -0.3489   -2.6357   -0.0088 O.co2    1 ZINC000000895132   -0.7000
6      O6     -2.4603   -2.6644    0.0112 O.co2    1 ZINC000000895132   -0.7100
7      H7      1.0039    1.9031    0.0027 H        1 ZINC000000895132    0.0400
8      H8     -0.5459    1.8868   -0.8726 H        1 ZINC000000895132    0.0500
9      H9     -0.5289    1.8773    0.9072 H        1 ZINC000000895132    0.0500
10     H10     0.5123   -0.3556   -0.8948 H        1 ZINC000000895132    0.0600
11     H11     0.5293   -0.3651    0.8851 H        1 ZINC000000895132    0.0600
12     H12    -1.9435   -0.1821    0.9097 H        1 ZINC000000895132    0.0500
13     H13    -1.9605   -0.1726   -0.8702 H        1 ZINC000000895132    0.0500
@<TRIPOS>BOND
1     1     2     1
2     1     7     1
3     1     8     1
4     1     9     1
5     2     3     1
6     2     10    1
7     2     11    1
8     3     4     1
9     3     12    1
10    3     13    1
11    4     5     ar
12    4     6     ar
@<TRIPOS>SUBSTRUCTURE
1   ZINC000000895132 1     RESIDUE    1   A     ZIN   1
