@<TRIPOS>MOLECULE
ZINC000003938759
72    77    1     0     0
SMALL
USER_CHARGES
@<TRIPOS>ATOM
1      C1     -0.1279    1.3098   -0.7068 C.3      1 ZINC000003938759   -0.2000
2      C2     -0.8632    0.4123    0.2549 C.2      1 ZINC000003938759    0.3200
3      O3     -0.4574    0.2759    1.3840 O.2      1 ZINC000003938759   -0.4100
4      C4     -2.1049   -0.3150   -0.1926 C.3      1 ZINC000003938759    0.0900
5      O5     -2.8562    0.5160   -1.0796 O.3      1 ZINC000003938759   -0.5400
6      C6     -2.9568   -0.6740    1.0226 C.3      1 ZINC000003938759   -0.0700
7      C7     -2.2749   -1.7261    1.8591 C.ar     1 ZINC000003938759   -0.1200
8      C8     -2.7224   -1.8898    3.1776 C.ar     1 ZINC000003938759    0.3100
9      O9     -3.7268   -1.1104    3.6495 O.3      1 ZINC000003938759   -0.6600
10     C10    -2.1428   -2.8473    4.0058 C.ar     1 ZINC000003938759   -0.2900
11     C11    -1.0992   -3.6548    3.5070 C.ar     1 ZINC000003938759   -0.1000
12     C12    -0.4855   -4.6748    4.3770 C.2      1 ZINC000003938759    0.4300
13     O13     0.5635   -5.2023    4.0615 O.2      1 ZINC000003938759   -0.4400
14     C14    -1.1617   -5.0481    5.6388 C.ar     1 ZINC000003938759   -0.1200
15     C15    -0.7800   -6.1891    6.3360 C.ar     1 ZINC000003938759   -0.0800
16     C16    -1.4244   -6.5228    7.5148 C.ar     1 ZINC000003938759   -0.1200
17     C17    -2.4453   -5.7294    8.0049 C.ar     1 ZINC000003938759   -0.1100
18     C18    -2.8377   -4.5903    7.3232 C.ar     1 ZINC000003938759   -0.0900
19     C19    -2.2009   -4.2407    6.1374 C.ar     1 ZINC000003938759   -0.1000
20     C20    -2.6072   -3.0281    5.3935 C.2      1 ZINC000003938759    0.4300
21     O21    -3.3157   -2.1917    5.9194 O.2      1 ZINC000003938759   -0.4300
22     C22    -0.6636   -3.4775    2.1966 C.ar     1 ZINC000003938759    0.0500
23     O23     0.3402   -4.2489    1.7105 O.3      1 ZINC000003938759   -0.4700
24     C24    -1.2559   -2.5074    1.3758 C.ar     1 ZINC000003938759   -0.0700
25     C25    -0.7212   -2.3675   -0.0263 C.3      1 ZINC000003938759    0.1500
26     H26     0.2215   -1.8209    0.0016 H        1 ZINC000003938759    0.0700
27     O27    -0.4958   -3.6671   -0.5762 O.3      1 ZINC000003938759   -0.3800
28     C28     0.6376   -3.7427   -1.4433 C.3      1 ZINC000003938759    0.2400
29     H29     1.4914   -3.2595   -0.9684 H        1 ZINC000003938759    0.1100
30     C30     0.9711   -5.2109   -1.7206 C.3      1 ZINC000003938759   -0.1200
31     C31    -0.2103   -5.8674   -2.4415 C.3      1 ZINC000003938759    0.0400
32     H32    -1.0867   -5.8526   -1.7936 H        1 ZINC000003938759    0.0900
33     N33     0.1292   -7.2566   -2.7771 N.3      1 ZINC000003938759   -0.4500
34     C34    -0.4084   -8.1867   -1.7752 C.3      1 ZINC000003938759   -0.0800
35     C35    -1.0722   -8.0185   -3.1434 C.3      1 ZINC000003938759   -0.0300
36     C36    -0.5088   -5.0865   -3.7251 C.3      1 ZINC000003938759    0.0800
37     H37    -1.3831   -5.5136   -4.2163 H        1 ZINC000003938759    0.1000
38     O38     0.6165   -5.1621   -4.6026 O.3      1 ZINC000003938759   -0.7000
39     S39     0.3590   -5.9615   -5.8719 S.o2     1 ZINC000003938759    2.6100
40     C40    -0.6763   -4.8739   -6.8897 C.3      1 ZINC000003938759   -0.7100
41     O41     1.6452   -6.1154   -6.4561 O.2      1 ZINC000003938759   -0.9400
42     O42    -0.3851   -7.0890   -5.4311 O.2      1 ZINC000003938759   -0.9500
43     C43    -0.7851   -3.6231   -3.3703 C.3      1 ZINC000003938759    0.0800
44     H44    -1.6682   -3.5638   -2.7341 H        1 ZINC000003938759    0.1000
45     C45    -1.0254   -2.8238   -4.6526 C.3      1 ZINC000003938759   -0.1700
46     O46     0.3403   -3.0820   -2.6750 O.3      1 ZINC000003938759   -0.3700
47     C47    -1.7134   -1.6133   -0.9083 C.3      1 ZINC000003938759   -0.1200
48     H48     0.7377    1.7456   -0.2077 H        1 ZINC000003938759    0.0800
49     H49     0.2035    0.7274   -1.5664 H        1 ZINC000003938759    0.0900
50     H50    -0.7930    2.1058   -1.0418 H        1 ZINC000003938759    0.0900
51     H51    -3.1433    1.3518   -0.6870 H        1 ZINC000003938759    0.3800
52     H52    -3.1141    0.2191    1.6273 H        1 ZINC000003938759    0.0800
53     H53    -3.9215   -1.0530    0.6854 H        1 ZINC000003938759    0.0800
54     H54     0.0164   -6.8133    5.9587 H        1 ZINC000003938759    0.1300
55     H55    -1.1278   -7.4094    8.0555 H        1 ZINC000003938759    0.1300
56     H56    -2.9403   -6.0005    8.9257 H        1 ZINC000003938759    0.1300
57     H57    -3.6360   -3.9749    7.7111 H        1 ZINC000003938759    0.1400
58     H58     0.0374   -5.0348    1.2353 H        1 ZINC000003938759    0.3600
59     H59     1.8597   -5.2702   -2.3490 H        1 ZINC000003938759    0.1000
60     H60     1.1551   -5.7270   -0.7783 H        1 ZINC000003938759    0.0900
61     H61     0.1452   -9.1076   -1.5916 H        1 ZINC000003938759    0.1200
62     H62    -0.9169   -7.7600   -0.9107 H        1 ZINC000003938759    0.1000
63     H63    -2.0194   -7.4805   -3.1831 H        1 ZINC000003938759    0.0900
64     H64    -0.9572   -8.8281   -3.8641 H        1 ZINC000003938759    0.1200
65     H65    -0.1184   -3.9718   -7.1407 H        1 ZINC000003938759    0.1300
66     H66    -0.9583   -5.3934   -7.8055 H        1 ZINC000003938759    0.1300
67     H67    -1.5743   -4.6031   -6.3343 H        1 ZINC000003938759    0.1300
68     H68    -1.9358   -3.1780   -5.1363 H        1 ZINC000003938759    0.0700
69     H69    -1.1317   -1.7671   -4.4075 H        1 ZINC000003938759    0.0800
70     H70    -0.1800   -2.9570   -5.3275 H        1 ZINC000003938759    0.0700
71     H71    -2.6008   -2.2254   -1.0693 H        1 ZINC000003938759    0.0900
72     H72    -1.2492   -1.3793   -1.8664 H        1 ZINC000003938759    0.0900
@<TRIPOS>BOND
1     1     2     1
2     1     48    1
3     1     49    1
4     1     50    1
5     2     3     2
6     2     4     1
7     4     47    1
8     4     5     1
9     4     6     1
10    5     51    1
11    6     7     1
12    6     52    1
13    6     53    1
14    7     24    ar
15    7     8     ar
16    8     9     1
17    8     10    ar
18    10    20    1
19    10    11    ar
20    11    12    1
21    11    22    ar
22    12    13    2
23    12    14    1
24    14    19    ar
25    14    15    ar
26    15    16    ar
27    15    54    1
28    16    17    ar
29    16    55    1
30    17    18    ar
31    17    56    1
32    18    19    ar
33    18    57    1
34    19    20    1
35    20    21    2
36    22    23    1
37    22    24    ar
38    23    58    1
39    24    25    1
40    25    26    1
41    25    27    1
42    25    47    1
43    27    28    1
44    28    29    1
45    28    46    1
46    28    30    1
47    30    31    1
48    30    59    1
49    30    60    1
50    31    32    1
51    31    33    1
52    31    36    1
53    33    35    1
54    33    34    1
55    34    35    1
56    34    61    1
57    34    62    1
58    35    63    1
59    35    64    1
60    36    37    1
61    36    38    1
62    36    43    1
63    38    39    1
64    39    40    1
65    39    41    2
66    39    42    2
67    40    65    1
68    40    66    1
69    40    67    1
70    43    44    1
71    43    45    1
72    43    46    1
73    45    68    1
74    45    69    1
75    45    70    1
76    47    71    1
77    47    72    1
@<TRIPOS>SUBSTRUCTURE
1   ZINC000003938759 1     RESIDUE    1   A     ZIN   1
