@<TRIPOS>MOLECULE
ZINC000000039102
30    31    1     0     0
SMALL
USER_CHARGES
@<TRIPOS>ATOM
1      C1     -0.0178    1.4608    0.0101 C.3      1 ZINC000000039102    0.0800
2      N2      0.0021   -0.0041    0.0020 N.pl3    1 ZINC000000039102   -0.4800
3      C3      0.0080   -0.7840   -1.1223 C.2      1 ZINC000000039102    0.0400
4      C4      0.0270   -2.0816   -0.7792 C.2      1 ZINC000000039102   -0.1900
5      C5      0.0395   -3.2578   -1.7212 C.3      1 ZINC000000039102   -0.0500
6      C6     -1.3916   -3.7545   -1.9359 C.3      1 ZINC000000039102   -0.0400
7      H7     -1.8482   -3.9752   -0.9711 H        1 ZINC000000039102    0.1300
8      N8     -2.1727   -2.7160   -2.6211 N.4      1 ZINC000000039102   -0.6100
9      H9     -2.1880   -1.8796   -2.0571 H        1 ZINC000000039102    0.4100
10     H10    -1.7501   -2.5117   -3.5143 H        1 ZINC000000039102    0.4300
11     H11    -3.1165   -3.0436   -2.7627 H        1 ZINC000000039102    0.4300
12     C12    -1.3687   -5.0038   -2.7784 C.2      1 ZINC000000039102    0.4900
13     O13    -0.9306   -6.0432   -2.3156 O.co2    1 ZINC000000039102   -0.6300
14     O14    -1.7882   -4.9751   -3.9228 O.co2    1 ZINC000000039102   -0.6700
15     C15     0.0339   -2.1375    0.6846 C.ar     1 ZINC000000039102   -0.1000
16     C16     0.0519   -3.1772    1.6159 C.ar     1 ZINC000000039102   -0.0700
17     C17     0.0536   -2.8911    2.9522 C.ar     1 ZINC000000039102   -0.1400
18     C18     0.0375   -1.5746    3.3914 C.ar     1 ZINC000000039102   -0.0900
19     C19     0.0196   -0.5331    2.4894 C.ar     1 ZINC000000039102   -0.1300
20     C20     0.0236   -0.8010    1.1246 C.ar     1 ZINC000000039102    0.1000
21     H21     1.0048    1.8381    0.0023 H        1 ZINC000000039102    0.0700
22     H22    -0.5450    1.8219   -0.8730 H        1 ZINC000000039102    0.0800
23     H23    -0.5280    1.8123    0.9069 H        1 ZINC000000039102    0.0800
24     H24    -0.0017   -0.4107   -2.1357 H        1 ZINC000000039102    0.1700
25     H25     0.4656   -2.9532   -2.6771 H        1 ZINC000000039102    0.0900
26     H26     0.6420   -4.0593   -1.2938 H        1 ZINC000000039102    0.1200
27     H27     0.0642   -4.2041    1.2815 H        1 ZINC000000039102    0.1300
28     H28     0.0672   -3.6959    3.6723 H        1 ZINC000000039102    0.1300
29     H29     0.0387   -1.3645    4.4507 H        1 ZINC000000039102    0.1300
30     H30     0.0069    0.4880    2.8411 H        1 ZINC000000039102    0.1200
@<TRIPOS>BOND
1     1     2     1
2     1     21    1
3     1     22    1
4     1     23    1
5     2     20    1
6     2     3     1
7     3     4     2
8     3     24    1
9     4     5     1
10    4     15    1
11    5     6     1
12    5     25    1
13    5     26    1
14    6     7     1
15    6     8     1
16    6     12    1
17    8     9     1
18    8     10    1
19    8     11    1
20    12    13    ar
21    12    14    ar
22    15    20    ar
23    15    16    ar
24    16    17    ar
25    16    27    1
26    17    18    ar
27    17    28    1
28    18    19    ar
29    18    29    1
30    19    20    ar
31    19    30    1
@<TRIPOS>SUBSTRUCTURE
1   ZINC000000039102 1     RESIDUE    1   A     ZIN   1
