@<TRIPOS>MOLECULE
ZINC000003807186
67    70    1     0     0
SMALL
USER_CHARGES
@<TRIPOS>ATOM
1      N1     -1.5886   -2.8630   -3.6271 N.pl3    1 ZINC000003807186   -0.8100
2      C2     -1.4215   -4.1688   -3.2071 C.ar     1 ZINC000003807186    0.6400
3      N3     -2.5075   -4.8926   -2.9547 N.ar     1 ZINC000003807186   -0.6300
4      C4     -2.4165   -6.1515   -2.5492 C.ar     1 ZINC000003807186    0.5500
5      N5     -3.5437   -6.8996   -2.2887 N.pl3    1 ZINC000003807186   -0.7900
6      C6     -1.0768   -6.7194   -2.3882 C.ar     1 ZINC000003807186   -0.0900
7      N7     -0.8842   -7.9718   -1.9869 N.ar     1 ZINC000003807186   -0.3600
8      C8      0.3427   -8.4306   -1.8597 C.ar     1 ZINC000003807186    0.0300
9      C9      0.5651   -9.8500   -1.4050 C.3      1 ZINC000003807186    0.1900
10     N10     0.5405   -9.9034    0.0588 N.pl3    1 ZINC000003807186   -0.7400
11     C11     0.7245  -11.1163    0.7134 C.ar     1 ZINC000003807186    0.2300
12     C12     0.9377  -12.2780   -0.0235 C.ar     1 ZINC000003807186   -0.2100
13     C13     1.1201  -13.4799    0.6214 C.ar     1 ZINC000003807186   -0.0200
14     C14     1.0912  -13.5334    2.0181 C.ar     1 ZINC000003807186   -0.1700
15     C15     1.2869  -14.8201    2.7126 C.2      1 ZINC000003807186    0.5500
16     O16     1.4735  -15.8355    2.0702 O.2      1 ZINC000003807186   -0.5500
17     N17     1.2587  -14.8702    4.0591 N.am     1 ZINC000003807186   -0.6900
18     C18     1.4530  -16.1480    4.7488 C.3      1 ZINC000003807186    0.0800
19     H19     2.1672  -16.7558    4.1933 H        1 ZINC000003807186    0.0800
20     C20     1.9902  -15.8903    6.1581 C.3      1 ZINC000003807186   -0.1100
21     C21     3.3831  -15.2639    6.0664 C.3      1 ZINC000003807186   -0.1300
22     C22     3.9202  -15.0062    7.4757 C.3      1 ZINC000003807186    0.1300
23     N23     5.2539  -14.4065    7.3878 N.am     1 ZINC000003807186   -0.7400
24     C24     5.9263  -14.0910    8.5125 C.2      1 ZINC000003807186    0.5700
25     O25     5.4262  -14.3042    9.5994 O.2      1 ZINC000003807186   -0.4900
26     C26     7.2737  -13.4851    8.4238 C.ar     1 ZINC000003807186   -0.1000
27     C27     8.2773  -14.1147    7.6950 C.ar     1 ZINC000003807186   -0.1100
28     C28     9.5354  -13.5451    7.6151 C.ar     1 ZINC000003807186   -0.1400
29     C29     9.8049  -12.3497    8.2565 C.ar     1 ZINC000003807186   -0.1300
30     C30     8.8200  -11.7093    8.9856 C.ar     1 ZINC000003807186   -0.0900
31     C31     7.5457  -12.2648    9.0719 C.ar     1 ZINC000003807186   -0.0900
32     C32     6.4899  -11.5849    9.8493 C.2      1 ZINC000003807186    0.5100
33     O33     6.7627  -10.5991   10.5192 O.co2    1 ZINC000003807186   -0.7000
34     O34     5.3429  -12.0078    9.8229 O.co2    1 ZINC000003807186   -0.6500
35     C35     0.1365  -16.8758    4.8383 C.2      1 ZINC000003807186    0.4900
36     O36     0.1134  -18.0948    4.8494 O.co2    1 ZINC000003807186   -0.7000
37     O37    -0.9055  -16.2457    4.8997 O.co2    1 ZINC000003807186   -0.6900
38     C38     0.8769  -12.3651    2.7552 C.ar     1 ZINC000003807186   -0.0300
39     C39     0.7008  -11.1654    2.1046 C.ar     1 ZINC000003807186   -0.2000
40     C40     1.4389   -7.6161   -2.1419 C.ar     1 ZINC000003807186    0.1600
41     N41     1.2700   -6.3732   -2.5405 N.ar     1 ZINC000003807186   -0.4400
42     C42     0.0337   -5.8872   -2.6760 C.ar     1 ZINC000003807186    0.3800
43     N43    -0.1937   -4.6322   -3.0832 N.ar     1 ZINC000003807186   -0.6000
44     H44    -0.8136   -2.3133   -3.8221 H        1 ZINC000003807186    0.4200
45     H45    -2.4810   -2.4973   -3.7308 H        1 ZINC000003807186    0.4200
46     H46    -4.4233   -6.5066   -2.4012 H        1 ZINC000003807186    0.4200
47     H47    -3.4577   -7.8193   -1.9927 H        1 ZINC000003807186    0.4300
48     H48    -0.2233  -10.4875   -1.8052 H        1 ZINC000003807186    0.0800
49     H49     1.5328  -10.1995   -1.7651 H        1 ZINC000003807186    0.0900
50     H50     0.3958   -9.0927    0.5714 H        1 ZINC000003807186    0.4000
51     H51     0.9595  -12.2361   -1.1025 H        1 ZINC000003807186    0.1200
52     H52     1.2851  -14.3808    0.0492 H        1 ZINC000003807186    0.1300
53     H53     1.1098  -14.0602    4.5716 H        1 ZINC000003807186    0.3900
54     H54     1.3198  -15.2102    6.6837 H        1 ZINC000003807186    0.0700
55     H55     2.0508  -16.8331    6.7018 H        1 ZINC000003807186    0.0800
56     H56     4.0534  -15.9440    5.5408 H        1 ZINC000003807186    0.0600
57     H57     3.3224  -14.3211    5.5227 H        1 ZINC000003807186    0.0600
58     H58     3.2498  -14.3262    8.0013 H        1 ZINC000003807186    0.0700
59     H59     3.9808  -15.9490    8.0194 H        1 ZINC000003807186    0.0600
60     H60     5.6530  -14.2363    6.5203 H        1 ZINC000003807186    0.3900
61     H61     8.0745  -15.0485    7.1918 H        1 ZINC000003807186    0.1200
62     H62    10.3122  -14.0371    7.0486 H        1 ZINC000003807186    0.1200
63     H63    10.7908  -11.9141    8.1878 H        1 ZINC000003807186    0.1200
64     H64     9.0375  -10.7763    9.4842 H        1 ZINC000003807186    0.1300
65     H65     0.8537  -12.4033    3.8343 H        1 ZINC000003807186    0.1300
66     H66     0.5356  -10.2624    2.6735 H        1 ZINC000003807186    0.1200
67     H67     2.4385   -8.0099   -2.0318 H        1 ZINC000003807186    0.1800
@<TRIPOS>BOND
1     1     2     1
2     1     44    1
3     1     45    1
4     2     43    ar
5     2     3     ar
6     3     4     ar
7     4     5     1
8     4     6     ar
9     5     46    1
10    5     47    1
11    6     42    ar
12    6     7     ar
13    7     8     ar
14    8     9     1
15    8     40    ar
16    9     10    1
17    9     48    1
18    9     49    1
19    10    11    1
20    10    50    1
21    11    39    ar
22    11    12    ar
23    12    13    ar
24    12    51    1
25    13    14    ar
26    13    52    1
27    14    15    1
28    14    38    ar
29    15    16    2
30    15    17    am
31    17    18    1
32    17    53    1
33    18    19    1
34    18    20    1
35    18    35    1
36    20    21    1
37    20    54    1
38    20    55    1
39    21    22    1
40    21    56    1
41    21    57    1
42    22    23    1
43    22    58    1
44    22    59    1
45    23    24    am
46    23    60    1
47    24    25    2
48    24    26    1
49    26    31    ar
50    26    27    ar
51    27    28    ar
52    27    61    1
53    28    29    ar
54    28    62    1
55    29    30    ar
56    29    63    1
57    30    31    ar
58    30    64    1
59    31    32    1
60    32    33    ar
61    32    34    ar
62    35    36    ar
63    35    37    ar
64    38    39    ar
65    38    65    1
66    39    66    1
67    40    41    ar
68    40    67    1
69    41    42    ar
70    42    43    ar
@<TRIPOS>SUBSTRUCTURE
1   ZINC000003807186 1     RESIDUE    1   A     ZIN   1
