@<TRIPOS>MOLECULE
ZINC000003824868
28    30    1     0     0
SMALL
USER_CHARGES
@<TRIPOS>ATOM
1      C1     -0.0184    1.5028    0.0103 C.3      1 ZINC000003824868   -0.1000
2      C2      0.0021   -0.0041    0.0020 C.ar     1 ZINC000003824868   -0.0500
3      C3      0.0056   -0.6813   -1.1998 C.ar     1 ZINC000003824868   -0.2400
4      C4      0.0237   -2.0737   -1.2242 C.ar     1 ZINC000003824868    0.3000
5      O5      0.0276   -2.7348   -2.4081 O.3      1 ZINC000003824868   -0.6900
6      C6      0.0382   -2.7852   -0.0229 C.ar     1 ZINC000003824868   -0.2700
7      C7      0.0551   -4.2612   -0.0238 C.2      1 ZINC000003824868    0.4400
8      O8      0.3060   -4.8722   -1.0452 O.2      1 ZINC000003824868   -0.4600
9      C9     -0.2346   -4.9866    1.2255 C.ar     1 ZINC000003824868   -0.2700
10     C10    -0.5092   -6.3578    1.2038 C.ar     1 ZINC000003824868    0.1900
11     O11    -0.5114   -7.0330    0.0279 O.3      1 ZINC000003824868   -0.4900
12     C12    -0.7794   -7.0256    2.3922 C.ar     1 ZINC000003824868   -0.2900
13     C13    -0.7778   -6.3404    3.5962 C.ar     1 ZINC000003824868    0.2800
14     O14    -1.0425   -7.0044    4.7499 O.3      1 ZINC000003824868   -0.7300
15     C15    -0.5058   -4.9741    3.6306 C.ar     1 ZINC000003824868   -0.2100
16     C16    -0.2354   -4.2927    2.4527 C.ar     1 ZINC000003824868   -0.0700
17     C17     0.0522   -2.8416    2.4724 C.2      1 ZINC000003824868    0.4400
18     O18     0.2997   -2.2772    3.5198 O.2      1 ZINC000003824868   -0.4700
19     C19     0.0357   -2.0872    1.2004 C.ar     1 ZINC000003824868   -0.0700
20     C20     0.0229   -0.6976    1.2022 C.ar     1 ZINC000003824868   -0.2100
21     H21     1.0042    1.8801    0.0026 H        1 ZINC000003824868    0.0600
22     H22    -0.5455    1.8639   -0.8728 H        1 ZINC000003824868    0.0500
23     H23    -0.5286    1.8543    0.9071 H        1 ZINC000003824868    0.0500
24     H24    -0.0061   -0.1284   -2.1275 H        1 ZINC000003824868    0.1000
25     H25     0.3485   -7.4028   -0.2149 H        1 ZINC000003824868    0.3800
26     H26    -0.9922   -8.0843    2.3770 H        1 ZINC000003824868    0.1000
27     H27    -0.5061   -4.4463    4.5728 H        1 ZINC000003824868    0.1100
28     H28     0.0248   -0.1584    2.1379 H        1 ZINC000003824868    0.1100
@<TRIPOS>BOND
1     1     2     1
2     1     21    1
3     1     22    1
4     1     23    1
5     2     20    ar
6     2     3     ar
7     3     4     ar
8     3     24    1
9     4     5     1
10    4     6     ar
11    6     19    ar
12    6     7     1
13    7     8     2
14    7     9     1
15    9     16    ar
16    9     10    ar
17    10    11    1
18    10    12    ar
19    11    25    1
20    12    13    ar
21    12    26    1
22    13    14    1
23    13    15    ar
24    15    16    ar
25    15    27    1
26    16    17    1
27    17    18    2
28    17    19    1
29    19    20    ar
30    20    28    1
@<TRIPOS>SUBSTRUCTURE
1   ZINC000003824868 1     RESIDUE    1   A     ZIN   1
