@<TRIPOS>MOLECULE
ZINC000000391922
  35   37    0    0    0
SMALL
USER_CHARGES
NO_NAME
@<TRIPOS>ATOM
    1 C1        0.1559     1.4839    -0.0071 C.3    1 <0>      -0.1300
    2 C2       -0.0181    -0.0130    -0.0032 C.2    1 <0>       0.0300
    3 C3       -0.2011    -0.6971    -1.1625 C.2    1 <0>      -0.2600
    4 C4       -0.3617    -2.0977    -1.1327 C.2    1 <0>       0.5100
    5 O5       -0.5246    -2.6987    -2.1794 O.2    1 <0>      -0.4600
    6 O6       -0.3391    -2.7856     0.0197 O.3    1 <0>      -0.2700
    7 C7       -0.1612    -2.1667     1.2066 C.ar   1 <0>       0.1700
    8 C8       -0.1403    -2.8923     2.3874 C.ar   1 <0>      -0.1400
    9 C9        0.0438    -2.2365     3.5956 C.ar   1 <0>       0.2000
   10 N10       0.0646    -2.9675     4.7839 N.am   1 <0>      -0.6700
   11 C11       0.5750    -4.2148     4.7989 C.2    1 <0>       0.5000
   12 O12       1.1026    -4.6661     3.8045 O.2    1 <0>      -0.4900
   13 C13       0.4902    -5.0487     6.0513 C.3    1 <0>       0.1200
   14 H14      -0.4829    -4.9190     6.5249 H      1 <0>       0.1200
   15 C15       1.6182    -4.6573     7.0315 C.3    1 <0>      -0.1200
   16 C16       2.7217    -5.6768     6.6656 C.3    1 <0>      -0.1600
   17 C17       1.9661    -6.8418     6.0654 C.2    1 <0>       0.5300
   18 O18       2.4195    -7.9553     5.9052 O.2    1 <0>      -0.5200
   19 N19       0.7169    -6.4639     5.7355 N.am   1 <0>      -0.7100
   20 C20       0.2086    -0.8522     3.6319 C.ar   1 <0>      -0.1600
   21 C21       0.1901    -0.1237     2.4781 C.ar   1 <0>      -0.0300
   22 C22       0.0115    -0.7703     1.2498 C.ar   1 <0>      -0.1700
   23 H23       1.2142     1.7264    -0.1037 H      1 <0>       0.0900
   24 H24      -0.3928     1.9113    -0.8464 H      1 <0>       0.0900
   25 H25      -0.2278     1.8968     0.9258 H      1 <0>       0.0800
   26 H26      -0.2240    -0.1696    -2.1046 H      1 <0>       0.1600
   27 H27      -0.2674    -3.9646     2.3668 H      1 <0>       0.1500
   28 H28      -0.2882    -2.5780     5.5992 H      1 <0>       0.4200
   29 H29       1.9549    -3.6364     6.8511 H      1 <0>       0.1000
   30 H30       1.2977    -4.7837     8.0656 H      1 <0>       0.1000
   31 H31       3.4082    -5.2499     5.9344 H      1 <0>       0.1100
   32 H32       3.2615    -5.9916     7.5587 H      1 <0>       0.1100
   33 H33       0.0537    -7.0512     5.3403 H      1 <0>       0.4200
   34 H34       0.3515    -0.3534     4.5791 H      1 <0>       0.1400
   35 H35       0.3180     0.9481     2.5123 H      1 <0>       0.1500
@<TRIPOS>BOND
   1    1    2 1
   2    1   23 1
   3    1   24 1
   4    1   25 1
   5    2   22 1
   6    2    3 2
   7    3    4 1
   8    3   26 1
   9    4    5 2
  10    4    6 1
  11    6    7 1
  12    7   22 ar
  13    7    8 ar
  14    8    9 ar
  15    8   27 1
  16    9   10 1
  17    9   20 ar
  18   10   11 am
  19   10   28 1
  20   11   12 2
  21   11   13 1
  22   13   14 1
  23   13   19 1
  24   13   15 1
  25   15   16 1
  26   15   29 1
  27   15   30 1
  28   16   17 1
  29   16   31 1
  30   16   32 1
  31   17   18 2
  32   17   19 am
  33   19   33 1
  34   20   21 ar
  35   20   34 1
  36   21   22 ar
  37   21   35 1
