@<TRIPOS>MOLECULE
ZINC000001547638
  27   28    0    0    0
SMALL
USER_CHARGES
NO_NAME
@<TRIPOS>ATOM
    1 C1        0.0180    -1.1779    -0.0044 C.1    1 <0>      -0.1700
    2 C2        0.0021    -0.0041     0.0020 C.1    1 <0>      -0.2000
    3 C3       -0.0179     1.4678     0.0101 C.3    1 <0>       0.1700
    4 O4        1.3227     1.9624    -0.0000 O.3    1 <0>      -0.3700
    5 C5        1.4162     3.3883     0.0067 C.3    1 <0>       0.0600
    6 H6        0.5478     3.8137    -0.4962 H      1 <0>       0.0700
    7 C7        1.4702     3.8922     1.4519 C.3    1 <0>       0.0300
    8 N8        2.7263     4.6231     1.6664 N.3    1 <0>      -0.5300
    9 C9        3.8881     3.7449     1.4714 C.3    1 <0>       0.0500
   10 C10       3.9028     3.2359     0.0273 C.3    1 <0>      -0.1500
   11 C11       2.6951     3.8230    -0.7200 C.3    1 <0>      -0.0900
   12 C12       2.7878     5.3534    -0.6737 C.3    1 <0>      -0.1500
   13 C13       2.8065     5.8027     0.7939 C.3    1 <0>       0.0500
   14 H14       0.0322    -2.2278    -0.0102 H      1 <0>       0.2200
   15 H15      -0.5451     1.8289    -0.8729 H      1 <0>       0.0700
   16 H16      -0.5281     1.8193     0.9069 H      1 <0>       0.0700
   17 H17       0.6265     4.5570     1.6369 H      1 <0>       0.0800
   18 H18       1.4218     3.0440     2.1348 H      1 <0>       0.0900
   19 H19       4.8032     4.3029     1.6697 H      1 <0>       0.0800
   20 H20       3.8228     2.8982     2.1548 H      1 <0>       0.0800
   21 H21       4.8237     3.5528    -0.4623 H      1 <0>       0.0700
   22 H22       3.8403     2.1477     0.0229 H      1 <0>       0.0700
   23 H23       2.6830     3.4676    -1.7504 H      1 <0>       0.0800
   24 H24       3.7047     5.6788    -1.1653 H      1 <0>       0.0700
   25 H25       1.9258     5.7870    -1.1806 H      1 <0>       0.0700
   26 H26       1.9535     6.4537     0.9858 H      1 <0>       0.0800
   27 H27       3.7305     6.3441     0.9968 H      1 <0>       0.0800
@<TRIPOS>BOND
   1    1    2 3
   2    1   14 1
   3    2    3 1
   4    3    4 1
   5    3   15 1
   6    3   16 1
   7    4    5 1
   8    5    6 1
   9    5   11 1
  10    5    7 1
  11    7    8 1
  12    7   17 1
  13    7   18 1
  14    8   13 1
  15    8    9 1
  16    9   10 1
  17    9   19 1
  18    9   20 1
  19   10   11 1
  20   10   21 1
  21   10   22 1
  22   11   12 1
  23   11   23 1
  24   12   13 1
  25   12   24 1
  26   12   25 1
  27   13   26 1
  28   13   27 1
