@<TRIPOS>MOLECULE
ZINC000003796018
69    71    1     0     0
SMALL
USER_CHARGES
@<TRIPOS>ATOM
1      C1      0.3192    1.2069   -0.0639 C.3      1 ZINC000003796018   -0.1500
2      C2      0.2121   -0.3161   -0.1630 C.3      1 ZINC000003796018   -0.1200
3      C3     -1.2311   -0.7447    0.1096 C.3      1 ZINC000003796018    0.0600
4      O4     -1.3311   -2.1672    0.0171 O.3      1 ZINC000003796018   -0.3300
5      C5     -2.5751   -2.7067    0.1212 C.ar     1 ZINC000003796018    0.1700
6      C6     -3.1294   -2.9445    1.3752 C.ar     1 ZINC000003796018    0.0900
7      O7     -2.4283   -2.6378    2.4994 O.3      1 ZINC000003796018   -0.3000
8      C8     -3.0600   -2.9092    3.7522 C.3      1 ZINC000003796018    0.0200
9      C9     -4.3975   -3.4939    1.4759 C.ar     1 ZINC000003796018   -0.1200
10     C10    -5.1090   -3.8046    0.3322 C.ar     1 ZINC000003796018   -0.0800
11     C11    -6.4882   -4.4016    0.4436 C.3      1 ZINC000003796018    0.1200
12     H12    -6.7118   -4.9850   -0.4496 H        1 ZINC000003796018    0.1000
13     C13    -7.5335   -3.2778    0.6103 C.3      1 ZINC000003796018   -0.1500
14     C14    -8.5162   -3.8924    1.6441 C.3      1 ZINC000003796018   -0.1400
15     C15    -7.5423   -4.7210    2.5191 C.3      1 ZINC000003796018    0.1200
16     H16    -7.0651   -4.0825    3.2626 H        1 ZINC000003796018    0.0800
17     C17    -8.2775   -5.8498    3.1947 C.ar     1 ZINC000003796018   -0.0200
18     C18    -8.4644   -7.0467    2.5290 C.ar     1 ZINC000003796018   -0.2100
19     C19    -9.1399   -8.0879    3.1473 C.ar     1 ZINC000003796018    0.1500
20     O20    -9.3229   -9.2653    2.4917 O.3      1 ZINC000003796018   -0.3000
21     C21    -8.7927   -9.3600    1.1680 C.3      1 ZINC000003796018    0.0200
22     C22    -9.6294   -7.9269    4.4380 C.ar     1 ZINC000003796018    0.0300
23     O23   -10.2925   -8.9465    5.0484 O.3      1 ZINC000003796018   -0.3100
24     C24    -9.5082   -9.8661    5.8108 C.3      1 ZINC000003796018    0.0400
25     C25    -9.4394   -6.7219    5.1039 C.ar     1 ZINC000003796018    0.1500
26     O26    -9.9160   -6.5594    6.3672 O.3      1 ZINC000003796018   -0.3000
27     C27    -9.6842   -5.2946    6.9904 C.3      1 ZINC000003796018    0.0200
28     C28    -8.7581   -5.6873    4.4805 C.ar     1 ZINC000003796018   -0.2300
29     O29    -6.5626   -5.2399    1.6027 O.3      1 ZINC000003796018   -0.3600
30     C30    -4.5583   -3.5683   -0.9138 C.ar     1 ZINC000003796018   -0.0400
31     C31    -3.2958   -3.0155   -1.0213 C.ar     1 ZINC000003796018   -0.6400
32     S32    -2.5979   -2.7155   -2.6112 S.o2     1 ZINC000003796018    2.5100
33     O33    -3.6053   -3.1356   -3.5210 O.2      1 ZINC000003796018   -0.9300
34     O34    -2.1773   -1.3592   -2.5589 O.2      1 ZINC000003796018   -0.9200
35     C35    -1.1643   -3.8239   -2.6926 C.3      1 ZINC000003796018   -0.6100
36     C36    -0.5438   -3.7533   -4.0894 C.3      1 ZINC000003796018    0.0900
37     O37     0.5856   -4.6265   -4.1536 O.3      1 ZINC000003796018   -0.5600
38     H38     1.3474    1.5123   -0.2581 H        1 ZINC000003796018    0.0600
39     H39    -0.3413    1.6662   -0.7994 H        1 ZINC000003796018    0.0600
40     H40     0.0278    1.5274    0.9363 H        1 ZINC000003796018    0.0600
41     H41     0.5035   -0.6365   -1.1632 H        1 ZINC000003796018    0.0800
42     H42     0.8726   -0.7754    0.5725 H        1 ZINC000003796018    0.0700
43     H43    -1.5225   -0.4242    1.1099 H        1 ZINC000003796018    0.0600
44     H44    -1.8916   -0.2854   -0.6259 H        1 ZINC000003796018    0.0800
45     H45    -3.9879   -2.3415    3.8217 H        1 ZINC000003796018    0.0600
46     H46    -3.2794   -3.9744    3.8252 H        1 ZINC000003796018    0.0600
47     H47    -2.3945   -2.6187    4.5651 H        1 ZINC000003796018    0.1100
48     H48    -4.8298   -3.6798    2.4480 H        1 ZINC000003796018    0.1400
49     H49    -7.0709   -2.3732    1.0051 H        1 ZINC000003796018    0.0800
50     H50    -8.0397   -3.0757   -0.3336 H        1 ZINC000003796018    0.0900
51     H51    -9.0065   -3.1151    2.2302 H        1 ZINC000003796018    0.0900
52     H52    -9.2490   -4.5347    1.1557 H        1 ZINC000003796018    0.0900
53     H53    -8.0840   -7.1710    1.5258 H        1 ZINC000003796018    0.1400
54     H54    -9.0074  -10.3479    0.7605 H        1 ZINC000003796018    0.1000
55     H55    -9.2522   -8.5991    0.5373 H        1 ZINC000003796018    0.0600
56     H56    -7.7141   -9.2054    1.1968 H        1 ZINC000003796018    0.0600
57     H57   -10.1582  -10.6271    6.2426 H        1 ZINC000003796018    0.0900
58     H58    -8.7731  -10.3419    5.1617 H        1 ZINC000003796018    0.0400
59     H59    -8.9950   -9.3307    6.6096 H        1 ZINC000003796018    0.0400
60     H60   -10.1144   -5.2987    7.9919 H        1 ZINC000003796018    0.1000
61     H61    -8.6114   -5.1134    7.0566 H        1 ZINC000003796018    0.0600
62     H62   -10.1499   -4.5069    6.3982 H        1 ZINC000003796018    0.0600
63     H63    -8.6097   -4.7507    4.9974 H        1 ZINC000003796018    0.1400
64     H64    -5.1174   -3.8124   -1.8050 H        1 ZINC000003796018    0.1500
65     H65    -0.4260   -3.5182   -1.9512 H        1 ZINC000003796018    0.1500
66     H66    -1.4831   -4.8460   -2.4879 H        1 ZINC000003796018    0.1400
67     H67    -1.2820   -4.0591   -4.8308 H        1 ZINC000003796018    0.0700
68     H68    -0.2250   -2.7313   -4.2941 H        1 ZINC000003796018    0.0600
69     H69     1.0296   -4.6328   -5.0126 H        1 ZINC000003796018    0.3900
@<TRIPOS>BOND
1     1     2     1
2     1     38    1
3     1     39    1
4     1     40    1
5     2     3     1
6     2     41    1
7     2     42    1
8     3     4     1
9     3     43    1
10    3     44    1
11    4     5     1
12    5     31    ar
13    5     6     ar
14    6     7     1
15    6     9     ar
16    7     8     1
17    8     45    1
18    8     46    1
19    8     47    1
20    9     10    ar
21    9     48    1
22    10    11    1
23    10    30    ar
24    11    12    1
25    11    29    1
26    11    13    1
27    13    14    1
28    13    49    1
29    13    50    1
30    14    15    1
31    14    51    1
32    14    52    1
33    15    16    1
34    15    17    1
35    15    29    1
36    17    28    ar
37    17    18    ar
38    18    19    ar
39    18    53    1
40    19    20    1
41    19    22    ar
42    20    21    1
43    21    54    1
44    21    55    1
45    21    56    1
46    22    23    1
47    22    25    ar
48    23    24    1
49    24    57    1
50    24    58    1
51    24    59    1
52    25    26    1
53    25    28    ar
54    26    27    1
55    27    60    1
56    27    61    1
57    27    62    1
58    28    63    1
59    30    31    ar
60    30    64    1
61    31    32    1
62    32    33    2
63    32    34    2
64    32    35    1
65    35    36    1
66    35    65    1
67    35    66    1
68    36    37    1
69    36    67    1
70    36    68    1
71    37    69    1
@<TRIPOS>SUBSTRUCTURE
1   ZINC000003796018 1     RESIDUE    1   A     ZIN   1
