@<TRIPOS>MOLECULE
ZINC000051951669
73    79    1     0     0
SMALL
USER_CHARGES
@<TRIPOS>ATOM
1      N1     -1.1781   -7.4140   -2.2344 N.pl3    1 ZINC000051951669   -0.8000
2      C2     -0.8319   -6.2773   -1.5288 C.2      1 ZINC000051951669    0.5900
3      N3     -1.6425   -5.2955   -1.1967 N.2      1 ZINC000051951669   -0.6000
4      C4     -0.9650   -4.3616   -0.5188 C.2      1 ZINC000051951669    0.5100
5      N5     -1.5039   -3.1799   -0.0094 N.pl3    1 ZINC000051951669   -0.6300
6      C6     -2.8791   -2.9463   -0.0925 C.ar     1 ZINC000051951669    0.1900
7      C7     -3.3596   -1.6463   -0.1845 C.ar     1 ZINC000051951669   -0.1500
8      C8     -4.7198   -1.4171   -0.2676 C.ar     1 ZINC000051951669   -0.0800
9      C9     -5.5980   -2.4871   -0.2587 C.ar     1 ZINC000051951669   -0.1200
10     C10    -7.0876   -2.2283   -0.3511 C.3      1 ZINC000051951669   -0.0700
11     C11    -7.7199   -2.5463    1.0060 C.3      1 ZINC000051951669   -0.1400
12     C12    -8.0526   -4.0212    1.1164 C.3      1 ZINC000051951669    0.0400
13     H13    -8.6571   -4.3046    0.2548 H        1 ZINC000051951669    0.1300
14     N14    -8.8507   -4.2290    2.3321 N.4      1 ZINC000051951669   -0.4000
15     H15    -8.3341   -3.9256    3.1440 H        1 ZINC000051951669    0.4200
16     C16   -10.1342   -3.4877    2.2351 C.3      1 ZINC000051951669   -0.0100
17     C17   -11.0468   -4.2251    3.2470 C.3      1 ZINC000051951669   -0.1500
18     C18   -10.6311   -5.7040    3.0734 C.3      1 ZINC000051951669   -0.1400
19     C19    -9.2166   -5.6559    2.4642 C.3      1 ZINC000051951669   -0.0100
20     C20    -6.8438   -4.9338    1.1768 C.3      1 ZINC000051951669   -0.1400
21     C21    -6.0938   -4.9377   -0.1576 C.3      1 ZINC000051951669   -0.0700
22     C22    -5.1267   -3.7719   -0.1675 C.ar     1 ZINC000051951669   -0.0700
23     C23    -3.7683   -4.0149   -0.0891 C.ar     1 ZINC000051951669   -0.1200
24     N24     0.2870   -4.7365   -0.4099 N.2      1 ZINC000051951669   -0.3500
25     N25     0.3998   -5.9801   -1.0521 N.pl3    1 ZINC000051951669   -0.3600
26     C26     1.5553   -6.7530   -1.1810 C.ar     1 ZINC000051951669    0.3200
27     C27     2.8116   -6.1451   -1.1293 C.ar     1 ZINC000051951669   -0.1100
28     C28     3.9191   -6.9575   -1.2542 C.ar     1 ZINC000051951669   -0.0400
29     C29     3.7217   -8.3329   -1.4114 C.ar     1 ZINC000051951669    0.1100
30     N30     2.4925   -8.8211   -1.4643 N.ar     1 ZINC000051951669   -0.1900
31     N31     1.4604   -8.0641   -1.3468 N.ar     1 ZINC000051951669   -0.2800
32     C32     4.9116   -9.2131   -1.4822 C.ar     1 ZINC000051951669   -0.0500
33     C33     5.0391  -10.1717   -2.4808 C.ar     1 ZINC000051951669   -0.0800
34     C34     6.1727  -10.9601   -2.5299 C.ar     1 ZINC000051951669   -0.1200
35     C35     7.1753  -10.7932   -1.5918 C.ar     1 ZINC000051951669   -0.1000
36     C36     7.0476   -9.8457   -0.5909 C.ar     1 ZINC000051951669   -0.1200
37     C37     5.9151   -9.0621   -0.5246 C.ar     1 ZINC000051951669   -0.0500
38     C38     5.7305   -8.0690    0.5893 C.3      1 ZINC000051951669   -0.0900
39     C39     5.9849   -6.6440    0.1078 C.3      1 ZINC000051951669   -0.1100
40     C40     5.3130   -6.4007   -1.2414 C.3      1 ZINC000051951669   -0.0900
41     H41    -0.5075   -8.0875   -2.4283 H        1 ZINC000051951669    0.4300
42     H42    -2.0925   -7.5402   -2.5323 H        1 ZINC000051951669    0.4200
43     H43    -0.9239   -2.5204    0.4025 H        1 ZINC000051951669    0.4300
44     H44    -2.6704   -0.8149   -0.1906 H        1 ZINC000051951669    0.1300
45     H45    -5.0961   -0.4073   -0.3390 H        1 ZINC000051951669    0.1300
46     H46    -7.2628   -1.1818   -0.6007 H        1 ZINC000051951669    0.0900
47     H47    -7.5238   -2.8688   -1.1177 H        1 ZINC000051951669    0.0800
48     H48    -7.0218   -2.2764    1.7984 H        1 ZINC000051951669    0.0900
49     H49    -8.6337   -1.9634    1.1208 H        1 ZINC000051951669    0.0900
50     H50    -9.9997   -2.4460    2.5266 H        1 ZINC000051951669    0.1400
51     H51   -10.5430   -3.5565    1.2271 H        1 ZINC000051951669    0.1300
52     H52   -10.8488   -3.8856    4.2636 H        1 ZINC000051951669    0.1000
53     H53   -12.0972   -4.0871    2.9907 H        1 ZINC000051951669    0.1200
54     H54   -10.6088   -6.2067    4.0403 H        1 ZINC000051951669    0.1000
55     H55   -11.3179   -6.2132    2.3972 H        1 ZINC000051951669    0.1000
56     H56    -9.2186   -6.1303    1.4828 H        1 ZINC000051951669    0.1300
57     H57    -8.5112   -6.1625    3.1229 H        1 ZINC000051951669    0.1300
58     H58    -6.1731   -4.5884    1.9635 H        1 ZINC000051951669    0.0900
59     H59    -7.1716   -5.9477    1.4063 H        1 ZINC000051951669    0.0900
60     H60    -5.5427   -5.8719   -0.2654 H        1 ZINC000051951669    0.0900
61     H61    -6.8042   -4.8312   -0.9774 H        1 ZINC000051951669    0.0800
62     H62    -3.4003   -5.0281   -0.0215 H        1 ZINC000051951669    0.1400
63     H63     2.9122   -5.0780   -0.9967 H        1 ZINC000051951669    0.1600
64     H64     4.2564  -10.2997   -3.2138 H        1 ZINC000051951669    0.1300
65     H65     6.2763  -11.7077   -3.3024 H        1 ZINC000051951669    0.1300
66     H66     8.0631  -11.4063   -1.6403 H        1 ZINC000051951669    0.1300
67     H67     7.8346   -9.7204    0.1380 H        1 ZINC000051951669    0.1300
68     H68     4.7105   -8.1416    0.9669 H        1 ZINC000051951669    0.0700
69     H69     6.4259   -8.3031    1.3953 H        1 ZINC000051951669    0.0800
70     H70     5.5862   -5.9413    0.8394 H        1 ZINC000051951669    0.0700
71     H71     7.0586   -6.4855    0.0071 H        1 ZINC000051951669    0.0800
72     H72     5.8986   -6.8816   -2.0250 H        1 ZINC000051951669    0.0900
73     H73     5.2720   -5.3285   -1.4330 H        1 ZINC000051951669    0.0900
@<TRIPOS>BOND
1     1     2     1
2     1     41    1
3     1     42    1
4     2     25    1
5     2     3     2
6     3     4     1
7     4     5     1
8     4     24    2
9     5     6     1
10    5     43    1
11    6     23    ar
12    6     7     ar
13    7     8     ar
14    7     44    1
15    8     9     ar
16    8     45    1
17    9     22    ar
18    9     10    1
19    10    11    1
20    10    46    1
21    10    47    1
22    11    12    1
23    11    48    1
24    11    49    1
25    12    13    1
26    12    14    1
27    12    20    1
28    14    15    1
29    14    19    1
30    14    16    1
31    16    17    1
32    16    50    1
33    16    51    1
34    17    18    1
35    17    52    1
36    17    53    1
37    18    19    1
38    18    54    1
39    18    55    1
40    19    56    1
41    19    57    1
42    20    21    1
43    20    58    1
44    20    59    1
45    21    22    1
46    21    60    1
47    21    61    1
48    22    23    ar
49    23    62    1
50    24    25    1
51    25    26    1
52    26    31    ar
53    26    27    ar
54    27    28    ar
55    27    63    1
56    28    40    1
57    28    29    ar
58    29    30    ar
59    29    32    1
60    30    31    ar
61    32    37    ar
62    32    33    ar
63    33    34    ar
64    33    64    1
65    34    35    ar
66    34    65    1
67    35    36    ar
68    35    66    1
69    36    37    ar
70    36    67    1
71    37    38    1
72    38    39    1
73    38    68    1
74    38    69    1
75    39    40    1
76    39    70    1
77    39    71    1
78    40    72    1
79    40    73    1
@<TRIPOS>SUBSTRUCTURE
1   ZINC000051951669 1     RESIDUE    1   A     ZIN   1
