@<TRIPOS>MOLECULE
ZINC000003986763
46    49    1     0     0
SMALL
USER_CHARGES
@<TRIPOS>ATOM
1      O1      0.2796    0.4744    0.1050 O.2      1 ZINC000003986763   -0.5500
2      C2      0.0811    1.6729    0.0537 C.2      1 ZINC000003986763    0.7200
3      N3      1.1201    2.5304    0.0934 N.am     1 ZINC000003986763   -0.6800
4      C4      2.4194    2.0475    0.2957 C.ar     1 ZINC000003986763    0.1300
5      C5      2.7555    0.7642   -0.1111 C.ar     1 ZINC000003986763   -0.1000
6      C6      4.0381    0.2905    0.0893 C.ar     1 ZINC000003986763   -0.1100
7      C7      4.9871    1.0931    0.6946 C.ar     1 ZINC000003986763   -0.1100
8      C8      4.6569    2.3730    1.1019 C.ar     1 ZINC000003986763   -0.1300
9      C9      3.3770    2.8553    0.8997 C.ar     1 ZINC000003986763    0.0700
10     F10     3.0544    4.1055    1.2971 F        1 ZINC000003986763   -0.1400
11     N11    -1.1777    2.1437   -0.0483 N.am     1 ZINC000003986763   -0.7400
12     C12    -2.3067    1.2115   -0.0974 C.3      1 ZINC000003986763    0.3100
13     H13    -1.9412    0.2062   -0.3072 H        1 ZINC000003986763    0.1700
14     N14    -3.0054    1.2204    1.1872 N.2      1 ZINC000003986763   -0.5000
15     C15    -3.4739    2.3037    1.6979 C.2      1 ZINC000003986763    0.2900
16     C16    -4.1716    2.2014    3.0007 C.ar     1 ZINC000003986763   -0.0800
17     C17    -5.1137    3.1621    3.3678 C.ar     1 ZINC000003986763   -0.0900
18     C18    -5.7606    3.0612    4.5824 C.ar     1 ZINC000003986763   -0.1300
19     C19    -5.4764    2.0097    5.4354 C.ar     1 ZINC000003986763   -0.1000
20     C20    -4.5426    1.0539    5.0771 C.ar     1 ZINC000003986763   -0.1300
21     C21    -3.8933    1.1408    3.8627 C.ar     1 ZINC000003986763   -0.0600
22     C22    -3.3683    3.6371    1.0851 C.ar     1 ZINC000003986763   -0.1400
23     C23    -3.0932    4.7218    1.9314 C.ar     1 ZINC000003986763   -0.0600
24     C24    -2.9794    5.9947    1.4216 C.ar     1 ZINC000003986763   -0.1300
25     C25    -3.1362    6.2139    0.0633 C.ar     1 ZINC000003986763   -0.0700
26     C26    -3.4082    5.1592   -0.7803 C.ar     1 ZINC000003986763   -0.1400
27     C27    -3.5278    3.8608   -0.2812 C.ar     1 ZINC000003986763    0.1600
28     N28    -3.8076    2.8525   -1.1903 N.am     1 ZINC000003986763   -0.6600
29     C29    -3.2635    1.6355   -1.1781 C.2      1 ZINC000003986763    0.5100
30     O30    -3.5501    0.8515   -2.0579 O.2      1 ZINC000003986763   -0.5000
31     H31     0.9683    3.4819   -0.0183 H        1 ZINC000003986763    0.4100
32     H32     2.0151    0.1358   -0.5838 H        1 ZINC000003986763    0.1600
33     H33     4.2995   -0.7085   -0.2271 H        1 ZINC000003986763    0.1300
34     H34     5.9885    0.7197    0.8501 H        1 ZINC000003986763    0.1400
35     H35     5.4006    2.9976    1.5744 H        1 ZINC000003986763    0.1400
36     H36    -1.3360    3.0998   -0.0891 H        1 ZINC000003986763    0.4000
37     H37    -5.3361    3.9836    2.7029 H        1 ZINC000003986763    0.1300
38     H38    -6.4900    3.8047    4.8679 H        1 ZINC000003986763    0.1300
39     H39    -5.9853    1.9349    6.3850 H        1 ZINC000003986763    0.1300
40     H40    -4.3244    0.2357    5.7475 H        1 ZINC000003986763    0.1300
41     H41    -3.1648    0.3938    3.5839 H        1 ZINC000003986763    0.1300
42     H42    -2.9702    4.5564    2.9915 H        1 ZINC000003986763    0.1400
43     H43    -2.7679    6.8233    2.0811 H        1 ZINC000003986763    0.1400
44     H44    -3.0455    7.2135   -0.3354 H        1 ZINC000003986763    0.1400
45     H45    -3.5299    5.3385   -1.8384 H        1 ZINC000003986763    0.1400
46     H46    -4.4494    3.0476   -1.8910 H        1 ZINC000003986763    0.4200
@<TRIPOS>BOND
1     1     2     2
2     2     3     am
3     2     11    am
4     3     4     1
5     3     31    1
6     4     9     ar
7     4     5     ar
8     5     6     ar
9     5     32    1
10    6     7     ar
11    6     33    1
12    7     8     ar
13    7     34    1
14    8     9     ar
15    8     35    1
16    9     10    1
17    11    12    1
18    11    36    1
19    12    13    1
20    12    29    1
21    12    14    1
22    14    15    2
23    15    16    1
24    15    22    1
25    16    21    ar
26    16    17    ar
27    17    18    ar
28    17    37    1
29    18    19    ar
30    18    38    1
31    19    20    ar
32    19    39    1
33    20    21    ar
34    20    40    1
35    21    41    1
36    22    27    ar
37    22    23    ar
38    23    24    ar
39    23    42    1
40    24    25    ar
41    24    43    1
42    25    26    ar
43    25    44    1
44    26    27    ar
45    26    45    1
46    27    28    1
47    28    29    am
48    28    46    1
49    29    30    2
@<TRIPOS>SUBSTRUCTURE
1   ZINC000003986763 1     RESIDUE    1   A     ZIN   1
