@<TRIPOS>MOLECULE
ZINC000043206677
58    61    1     0     0
SMALL
USER_CHARGES
@<TRIPOS>ATOM
1      C1      5.9157   -0.6547    6.1004 C.3      1 ZINC000043206677   -0.1200
2      C2      5.2022   -1.3235    4.9538 C.ar     1 ZINC000043206677   -0.0800
3      C3      5.7823   -1.3488    3.6993 C.ar     1 ZINC000043206677   -0.1200
4      C4      5.1278   -1.9623    2.6475 C.ar     1 ZINC000043206677   -0.0800
5      C5      5.7599   -1.9894    1.2797 C.3      1 ZINC000043206677   -0.1200
6      C6      3.8937   -2.5512    2.8504 C.ar     1 ZINC000043206677   -0.1200
7      C7      3.3139   -2.5262    4.1050 C.ar     1 ZINC000043206677   -0.0900
8      C8      1.9684   -3.1678    4.3261 C.3      1 ZINC000043206677    0.1100
9      H9      1.7293   -3.1706    5.3896 H        1 ZINC000043206677    0.1000
10     C10     1.9813   -4.6137    3.7871 C.3      1 ZINC000043206677   -0.1400
11     C11     0.5693   -4.7666    3.1628 C.3      1 ZINC000043206677   -0.1300
12     C12     0.3255   -3.3484    2.5893 C.3      1 ZINC000043206677    0.0400
13     N13     0.9321   -2.4295    3.5811 N.3      1 ZINC000043206677   -0.5100
14     C14     1.5001   -1.2453    2.9230 C.3      1 ZINC000043206677    0.0800
15     C15     0.3888   -0.4213    2.3254 C.ar     1 ZINC000043206677   -0.0700
16     C16     0.0544   -0.5767    0.9927 C.ar     1 ZINC000043206677   -0.1000
17     C17    -0.9635    0.1777    0.4423 C.ar     1 ZINC000043206677   -0.1200
18     C18    -1.6509    1.0916    1.2281 C.ar     1 ZINC000043206677    0.0700
19     O19    -2.6529    1.8346    0.6892 O.3      1 ZINC000043206677   -0.2400
20     C20    -2.3915    3.1311    0.3836 C.ar     1 ZINC000043206677    0.1200
21     C21    -1.1006    3.6271    0.5147 C.ar     1 ZINC000043206677   -0.1800
22     C22    -0.8307    4.9423    0.2057 C.ar     1 ZINC000043206677   -0.0300
23     C23    -1.8568    5.7785   -0.2406 C.ar     1 ZINC000043206677   -0.1500
24     C24    -1.5707    7.1879   -0.5729 C.2      1 ZINC000043206677    0.5700
25     N25    -2.5619    7.9934   -1.0034 N.am     1 ZINC000043206677   -0.8500
26     O26    -0.4409    7.6223   -0.4583 O.2      1 ZINC000043206677   -0.5400
27     C27    -3.1550    5.2773   -0.3722 C.ar     1 ZINC000043206677   -0.0800
28     C28    -3.4167    3.9590   -0.0658 C.ar     1 ZINC000043206677    0.0700
29     F29    -4.6706    3.4725   -0.1928 F        1 ZINC000043206677   -0.1200
30     C30    -1.3137    1.2452    2.5653 C.ar     1 ZINC000043206677   -0.1300
31     C31    -0.2984    0.4847    3.1120 C.ar     1 ZINC000043206677   -0.0800
32     C32     3.9703   -1.9165    5.1578 C.ar     1 ZINC000043206677   -0.1200
33     H33     6.4834   -1.3991    6.6588 H        1 ZINC000043206677    0.0700
34     H34     6.5949    0.1044    5.7125 H        1 ZINC000043206677    0.0700
35     H35     5.1848   -0.1859    6.7593 H        1 ZINC000043206677    0.0700
36     H36     6.7466   -0.8890    3.5408 H        1 ZINC000043206677    0.1200
37     H37     6.3740   -2.8846    1.1810 H        1 ZINC000043206677    0.0700
38     H38     4.9794   -1.9985    0.5189 H        1 ZINC000043206677    0.0600
39     H39     6.3836   -1.1049    1.1500 H        1 ZINC000043206677    0.0700
40     H40     3.3824   -3.0304    2.0286 H        1 ZINC000043206677    0.1200
41     H41     2.7537   -4.7351    3.0277 H        1 ZINC000043206677    0.0700
42     H42     2.1227   -5.3266    4.5995 H        1 ZINC000043206677    0.0800
43     H43     0.5722   -5.5136    2.3690 H        1 ZINC000043206677    0.0800
44     H44    -0.1702   -5.0120    3.9251 H        1 ZINC000043206677    0.0800
45     H45     0.8153   -3.2411    1.6215 H        1 ZINC000043206677    0.0500
46     H46    -0.7432   -3.1544    2.4984 H        1 ZINC000043206677    0.0800
47     H47     2.0421   -0.6474    3.6557 H        1 ZINC000043206677    0.0900
48     H48     2.1833   -1.5605    2.1343 H        1 ZINC000043206677    0.0600
49     H49     0.5898   -1.2882    0.3815 H        1 ZINC000043206677    0.1300
50     H50    -1.2238    0.0564   -0.5988 H        1 ZINC000043206677    0.1300
51     H51    -0.3071    2.9807    0.8597 H        1 ZINC000043206677    0.1500
52     H52     0.1733    5.3266    0.3088 H        1 ZINC000043206677    0.1500
53     H53    -3.4632    7.6468   -1.0948 H        1 ZINC000043206677    0.4000
54     H54    -2.3739    8.9196   -1.2218 H        1 ZINC000043206677    0.4100
55     H55    -3.9510    5.9209   -0.7167 H        1 ZINC000043206677    0.1500
56     H56    -1.8469    1.9562    3.1790 H        1 ZINC000043206677    0.1300
57     H57    -0.0355    0.6038    4.1527 H        1 ZINC000043206677    0.1300
58     H58     3.5173   -1.8970    6.1380 H        1 ZINC000043206677    0.1200
@<TRIPOS>BOND
1     1     2     1
2     1     33    1
3     1     34    1
4     1     35    1
5     2     32    ar
6     2     3     ar
7     3     4     ar
8     3     36    1
9     4     5     1
10    4     6     ar
11    5     37    1
12    5     38    1
13    5     39    1
14    6     7     ar
15    6     40    1
16    7     8     1
17    7     32    ar
18    8     9     1
19    8     13    1
20    8     10    1
21    10    11    1
22    10    41    1
23    10    42    1
24    11    12    1
25    11    43    1
26    11    44    1
27    12    13    1
28    12    45    1
29    12    46    1
30    13    14    1
31    14    15    1
32    14    47    1
33    14    48    1
34    15    31    ar
35    15    16    ar
36    16    17    ar
37    16    49    1
38    17    18    ar
39    17    50    1
40    18    19    1
41    18    30    ar
42    19    20    1
43    20    28    ar
44    20    21    ar
45    21    22    ar
46    21    51    1
47    22    23    ar
48    22    52    1
49    23    24    1
50    23    27    ar
51    24    25    am
52    24    26    2
53    25    53    1
54    25    54    1
55    27    28    ar
56    27    55    1
57    28    29    1
58    30    31    ar
59    30    56    1
60    31    57    1
61    32    58    1
@<TRIPOS>SUBSTRUCTURE
1   ZINC000043206677 1     RESIDUE    1   A     ZIN   1
