@<TRIPOS>MOLECULE
ZINC000003777871
27    28    1     0     0
SMALL
USER_CHARGES
@<TRIPOS>ATOM
1      O1      0.0021   -0.0041    0.0020 O.2      1 ZINC000003777871   -0.5000
2      C2     -0.0144    1.2117    0.0087 C.2      1 ZINC000003777871    0.5700
3      C3     -1.2896    1.9561    0.0311 C.ar     1 ZINC000003777871   -0.2100
4      C4     -2.5042    1.3152    0.2561 C.ar     1 ZINC000003777871   -0.0200
5      C5     -3.6693    2.0552    0.2806 C.ar     1 ZINC000003777871   -0.1500
6      C6     -3.6319    3.4257    0.0836 C.ar     1 ZINC000003777871   -0.0600
7      C7     -2.4311    4.0710   -0.1459 C.ar     1 ZINC000003777871   -0.1500
8      C8     -1.2546    3.3433   -0.1791 C.ar     1 ZINC000003777871    0.1500
9      O9     -0.0635    3.9382   -0.4343 O.3      1 ZINC000003777871   -0.3100
10     C10     1.0990    3.3778    0.1739 C.3      1 ZINC000003777871    0.2900
11     N11     1.1344    1.9249    0.0016 N.am     1 ZINC000003777871   -0.6500
12     C12     2.4166    1.2420   -0.1875 C.3      1 ZINC000003777871    0.1300
13     C13     2.9850    0.8380    1.1743 C.3      1 ZINC000003777871    0.0100
14     O14     2.1266   -0.1306    1.7803 O.3      1 ZINC000003777871   -0.2000
15     N15     2.5651   -0.5733    3.0519 N.pl3    1 ZINC000003777871    0.1200
16     O16     3.5926   -0.1279    3.5308 O.2      1 ZINC000003777871   -0.1400
17     O17     1.9147   -1.3994    3.6667 O.2      1 ZINC000003777871   -0.0800
18     H18    -2.5351    0.2467    0.4102 H        1 ZINC000003777871    0.1400
19     H19    -4.6148    1.5630    0.4538 H        1 ZINC000003777871    0.1400
20     H20    -4.5491    3.9952    0.1091 H        1 ZINC000003777871    0.1400
21     H21    -2.4114    5.1399   -0.2988 H        1 ZINC000003777871    0.1400
22     H22     1.9875    3.8153   -0.2816 H        1 ZINC000003777871    0.1300
23     H23     1.0928    3.6095    1.2389 H        1 ZINC000003777871    0.0700
24     H24     2.2674    0.3512   -0.7977 H        1 ZINC000003777871    0.1100
25     H25     3.1150    1.9126   -0.6882 H        1 ZINC000003777871    0.1300
26     H26     3.9785    0.4100    1.0409 H        1 ZINC000003777871    0.1000
27     H27     3.0510    1.7168    1.8157 H        1 ZINC000003777871    0.0900
@<TRIPOS>BOND
1     1     2     2
2     2     11    am
3     2     3     1
4     3     8     ar
5     3     4     ar
6     4     5     ar
7     4     18    1
8     5     6     ar
9     5     19    1
10    6     7     ar
11    6     20    1
12    7     8     ar
13    7     21    1
14    8     9     1
15    9     10    1
16    10    11    1
17    10    22    1
18    10    23    1
19    11    12    1
20    12    13    1
21    12    24    1
22    12    25    1
23    13    14    1
24    13    26    1
25    13    27    1
26    14    15    1
27    15    16    2
28    15    17    2
@<TRIPOS>SUBSTRUCTURE
1   ZINC000003777871 1     RESIDUE    1   A     ZIN   1
