@<TRIPOS>MOLECULE
ZINC000026844771
53    55    1     0     0
SMALL
USER_CHARGES
@<TRIPOS>ATOM
1      N1     -0.0178    1.3817   -0.0110 N.pl3    1 ZINC000026844771   -0.8200
2      C2      0.0013   -0.0034   -0.0123 C.ar     1 ZINC000026844771    0.6000
3      N3     -1.1514   -0.6598   -0.0067 N.ar     1 ZINC000026844771   -0.5600
4      C4     -1.1853   -1.9885   -0.0081 C.ar     1 ZINC000026844771    0.2500
5      S5     -2.7225   -2.8497   -0.0013 S.3      1 ZINC000026844771    0.1100
6      C6     -3.8332   -1.4918    0.1629 C.ar     1 ZINC000026844771   -0.1400
7      C7     -4.4143   -0.9271   -0.9658 C.ar     1 ZINC000026844771   -0.0500
8      C8     -5.2847    0.1367   -0.8334 C.ar     1 ZINC000026844771   -0.1300
9      C9     -5.5783    0.6401    0.4209 C.ar     1 ZINC000026844771   -0.0900
10     C10    -5.0013    0.0808    1.5465 C.ar     1 ZINC000026844771   -0.1300
11     C11    -4.1344   -0.9869    1.4219 C.ar     1 ZINC000026844771   -0.0500
12     C12     0.0320   -2.6920   -0.0157 C.ar     1 ZINC000026844771   -0.0900
13     N13     0.3721   -4.0041   -0.0187 N.2      1 ZINC000026844771   -0.4500
14     C14     1.6684   -4.1155   -0.0257 C.2      1 ZINC000026844771    0.2600
15     N15     2.2421   -2.8776   -0.0276 N.pl3    1 ZINC000026844771   -0.4800
16     C16     3.6781   -2.5876   -0.0357 C.3      1 ZINC000026844771    0.1200
17     C17     4.1614   -2.3645    1.3987 C.3      1 ZINC000026844771    0.0100
18     O18     5.5621   -2.0816    1.3909 O.3      1 ZINC000026844771   -0.3400
19     C19     6.1169   -1.8560    2.6883 C.3      1 ZINC000026844771   -0.5200
20     P20     6.2805   -3.4464    3.5642 P.3      1 ZINC000026844771    2.3500
21     O21     4.9472   -4.0743    3.7000 O.2      1 ZINC000026844771   -0.9900
22     O22     7.2505   -4.4222    2.7280 O.3      1 ZINC000026844771   -0.7200
23     C23     7.4964   -5.7801    3.0992 C.3      1 ZINC000026844771    0.0600
24     C24     8.4592   -6.4170    2.0951 C.3      1 ZINC000026844771    0.4600
25     F25     9.6656   -5.7086    2.0921 F        1 ZINC000026844771   -0.1700
26     F26     8.6999   -7.7463    2.4586 F        1 ZINC000026844771   -0.1700
27     F27     7.8925   -6.3783    0.8166 F        1 ZINC000026844771   -0.1700
28     O28     6.9055   -3.1923    5.0260 O.3      1 ZINC000026844771   -0.7300
29     C29     7.0613   -4.2292    5.9968 C.3      1 ZINC000026844771    0.0600
30     C30     7.6825   -3.6480    7.2686 C.3      1 ZINC000026844771    0.4600
31     F31     6.8467   -2.6503    7.7818 F        1 ZINC000026844771   -0.1700
32     F32     7.8350   -4.6631    8.2191 F        1 ZINC000026844771   -0.1700
33     F33     8.9336   -3.0991    6.9676 F        1 ZINC000026844771   -0.1700
34     C34     1.2274   -1.9542   -0.0213 C.ar     1 ZINC000026844771    0.3400
35     N35     1.1690   -0.6262   -0.0245 N.ar     1 ZINC000026844771   -0.5800
36     H36     0.8154    1.8783   -0.0190 H        1 ZINC000026844771    0.4100
37     H37    -0.8645    1.8551   -0.0062 H        1 ZINC000026844771    0.4200
38     H38    -4.1853   -1.3195   -1.9456 H        1 ZINC000026844771    0.1300
39     H39    -5.7365    0.5763   -1.7103 H        1 ZINC000026844771    0.1300
40     H40    -6.2594    1.4722    0.5216 H        1 ZINC000026844771    0.1300
41     H41    -5.2324    0.4766    2.5244 H        1 ZINC000026844771    0.1300
42     H42    -3.6842   -1.4232    2.3012 H        1 ZINC000026844771    0.1300
43     H43     2.2102   -5.0498   -0.0291 H        1 ZINC000026844771    0.2300
44     H44     4.2161   -3.4283   -0.4737 H        1 ZINC000026844771    0.1100
45     H45     3.8642   -1.6901   -0.6255 H        1 ZINC000026844771    0.1000
46     H46     3.6235   -1.5238    1.8368 H        1 ZINC000026844771    0.0600
47     H47     3.9753   -3.2620    1.9886 H        1 ZINC000026844771    0.1000
48     H48     7.0988   -1.3936    2.5883 H        1 ZINC000026844771    0.1300
49     H49     5.4602   -1.1954    3.2544 H        1 ZINC000026844771    0.1100
50     H50     7.9379   -5.8102    4.0954 H        1 ZINC000026844771    0.1000
51     H51     6.5564   -6.3320    3.1016 H        1 ZINC000026844771    0.1300
52     H52     6.0865   -4.6568    6.2313 H        1 ZINC000026844771    0.1300
53     H53     7.7124   -5.0065    5.5969 H        1 ZINC000026844771    0.1100
@<TRIPOS>BOND
1     1     2     1
2     1     36    1
3     1     37    1
4     2     35    ar
5     2     3     ar
6     3     4     ar
7     4     5     1
8     4     12    ar
9     5     6     1
10    6     11    ar
11    6     7     ar
12    7     8     ar
13    7     38    1
14    8     9     ar
15    8     39    1
16    9     10    ar
17    9     40    1
18    10    11    ar
19    10    41    1
20    11    42    1
21    12    34    ar
22    12    13    1
23    13    14    2
24    14    15    1
25    14    43    1
26    15    16    1
27    15    34    1
28    16    17    1
29    16    44    1
30    16    45    1
31    17    18    1
32    17    46    1
33    17    47    1
34    18    19    1
35    19    20    1
36    19    48    1
37    19    49    1
38    20    21    2
39    20    22    1
40    20    28    1
41    22    23    1
42    23    24    1
43    23    50    1
44    23    51    1
45    24    25    1
46    24    26    1
47    24    27    1
48    28    29    1
49    29    30    1
50    29    52    1
51    29    53    1
52    30    31    1
53    30    32    1
54    30    33    1
55    34    35    ar
@<TRIPOS>SUBSTRUCTURE
1   ZINC000026844771 1     RESIDUE    1   A     ZIN   1
