@<TRIPOS>MOLECULE
ZINC000000598089
43    45    1     0     0
SMALL
USER_CHARGES
@<TRIPOS>ATOM
1      C1     -1.1336    1.4044    1.1251 C.3      1 ZINC000000598089    0.0200
2      O2     -0.9871   -0.0124    1.0100 O.3      1 ZINC000000598089   -0.3100
3      C3     -2.1142   -0.7314    0.7661 C.ar     1 ZINC000000598089    0.1900
4      C4     -3.3352   -0.0861    0.6345 C.ar     1 ZINC000000598089   -0.2300
5      C5     -4.4794   -0.8192    0.3862 C.ar     1 ZINC000000598089    0.0200
6      C6     -4.4086   -2.1950    0.2693 C.ar     1 ZINC000000598089   -0.7200
7      S7     -5.8700   -3.1273   -0.0469 S.o2     1 ZINC000000598089    2.7000
8      O8     -5.6158   -4.4437    0.4239 O.2      1 ZINC000000598089   -0.9500
9      O9     -6.9578   -2.3351    0.4095 O.2      1 ZINC000000598089   -0.9500
10     N10    -6.0322   -3.2418   -1.6910 N.am     1 ZINC000000598089   -1.0500
11     C11    -5.0817   -3.9442   -2.4408 C.ar     1 ZINC000000598089    0.0500
12     C12    -4.4775   -5.0825   -1.9245 C.ar     1 ZINC000000598089   -0.0900
13     C13    -3.5402   -5.7460   -2.7055 C.ar     1 ZINC000000598089   -0.1900
14     C14    -3.2388   -5.2596   -3.9611 C.ar     1 ZINC000000598089    0.1300
15     N15    -3.8275   -4.1741   -4.4292 N.ar     1 ZINC000000598089   -0.5100
16     C16    -4.7303   -3.5138   -3.7233 C.ar     1 ZINC000000598089    0.3800
17     N17    -5.3263   -2.3735   -4.2571 N.pl3    1 ZINC000000598089   -0.6600
18     C18    -5.0731   -2.0074   -5.5841 C.ar     1 ZINC000000598089    0.1600
19     C19    -4.9080   -2.9862   -6.5555 C.ar     1 ZINC000000598089   -0.1000
20     C20    -4.6587   -2.6242   -7.8646 C.ar     1 ZINC000000598089   -0.1200
21     C21    -4.5727   -1.2833   -8.2094 C.ar     1 ZINC000000598089    0.0800
22     O22    -4.3267   -0.9277   -9.4988 O.3      1 ZINC000000598089   -0.5000
23     C23    -4.7379   -0.3050   -7.2400 C.ar     1 ZINC000000598089   -0.1200
24     C24    -4.9925   -0.6652   -5.9314 C.ar     1 ZINC000000598089   -0.1400
25     C25    -3.1928   -2.8406    0.3996 C.ar     1 ZINC000000598089    0.0200
26     C26    -2.0449   -2.1115    0.6427 C.ar     1 ZINC000000598089   -0.1700
27     H27    -0.1605    1.8557    1.3191 H        1 ZINC000000598089    0.1100
28     H28    -1.5408    1.8042    0.1964 H        1 ZINC000000598089    0.0600
29     H29    -1.8111    1.6340    1.9475 H        1 ZINC000000598089    0.0600
30     H30    -3.3912    0.9886    0.7265 H        1 ZINC000000598089    0.1400
31     H31    -5.4302   -0.3172    0.2837 H        1 ZINC000000598089    0.1400
32     H32    -6.7860   -2.8221   -2.1343 H        1 ZINC000000598089    0.4200
33     H33    -4.7301   -5.4434   -0.9384 H        1 ZINC000000598089    0.1800
34     H34    -3.0515   -6.6344   -2.3334 H        1 ZINC000000598089    0.1400
35     H35    -2.5102   -5.7741   -4.5700 H        1 ZINC000000598089    0.1600
36     H36    -5.9168   -1.8331   -3.7092 H        1 ZINC000000598089    0.4100
37     H37    -4.9742   -4.0302   -6.2870 H        1 ZINC000000598089    0.1400
38     H38    -4.5302   -3.3852   -8.6201 H        1 ZINC000000598089    0.1300
39     H39    -5.1239   -0.8108  -10.0334 H        1 ZINC000000598089    0.3900
40     H40    -4.6708    0.7387   -7.5094 H        1 ZINC000000598089    0.1300
41     H41    -5.1210    0.0967   -5.1767 H        1 ZINC000000598089    0.1300
42     H42    -3.1400   -3.9154    0.3075 H        1 ZINC000000598089    0.1500
43     H43    -1.0955   -2.6162    0.7444 H        1 ZINC000000598089    0.1400
@<TRIPOS>BOND
1     1     2     1
2     1     27    1
3     1     28    1
4     1     29    1
5     2     3     1
6     3     26    ar
7     3     4     ar
8     4     5     ar
9     4     30    1
10    5     6     ar
11    5     31    1
12    6     7     1
13    6     25    ar
14    7     8     2
15    7     9     2
16    7     10    am
17    10    11    1
18    10    32    1
19    11    16    ar
20    11    12    ar
21    12    13    ar
22    12    33    1
23    13    14    ar
24    13    34    1
25    14    15    ar
26    14    35    1
27    15    16    ar
28    16    17    1
29    17    18    1
30    17    36    1
31    18    24    ar
32    18    19    ar
33    19    20    ar
34    19    37    1
35    20    21    ar
36    20    38    1
37    21    22    1
38    21    23    ar
39    22    39    1
40    23    24    ar
41    23    40    1
42    24    41    1
43    25    26    ar
44    25    42    1
45    26    43    1
@<TRIPOS>SUBSTRUCTURE
1   ZINC000000598089 1     RESIDUE    1   A     ZIN   1
