@<TRIPOS>MOLECULE
ZINC000000289566
26    28    1     0     0
SMALL
USER_CHARGES
@<TRIPOS>ATOM
1      O1      0.0021   -0.0041    0.0020 O.2      1 ZINC000000289566   -0.1500
2      N2     -0.0144    1.2138    0.0087 N.pl3    1 ZINC000000289566    0.0200
3      O3      1.0320    1.8371    0.0021 O.2      1 ZINC000000289566   -0.1500
4      C4     -1.3063    1.9364    0.0188 C.ar     1 ZINC000000289566   -0.0300
5      C5     -1.3215    3.3199    0.0207 C.ar     1 ZINC000000289566   -0.0500
6      C6     -2.5221    3.9995    0.0300 C.ar     1 ZINC000000289566   -0.0700
7      C7     -3.7230    3.2883    0.0376 C.ar     1 ZINC000000289566    0.0300
8      C8     -5.0130    4.0099    0.0471 C.2      1 ZINC000000289566    0.2700
9      N9     -5.1443    5.3121    0.0436 N.2      1 ZINC000000289566   -0.4500
10     C10    -6.4671    5.6176    0.0550 C.ar     1 ZINC000000289566    0.0200
11     C11    -7.1795    6.8191    0.0574 C.ar     1 ZINC000000289566   -0.0500
12     C12    -8.5563    6.7965    0.0705 C.ar     1 ZINC000000289566   -0.1200
13     C13    -9.2389    5.5893    0.0813 C.ar     1 ZINC000000289566   -0.0800
14     C14    -8.5486    4.3945    0.0796 C.ar     1 ZINC000000289566   -0.0900
15     C15    -7.1628    4.3973    0.0660 C.ar     1 ZINC000000289566    0.0200
16     O16    -6.2252    3.4238    0.0549 O.3      1 ZINC000000289566   -0.2000
17     C17    -3.7005    1.8927    0.0356 C.ar     1 ZINC000000289566   -0.0800
18     C18    -2.4931    1.2254    0.0205 C.ar     1 ZINC000000289566   -0.0500
19     H19    -0.3915    3.8690    0.0152 H        1 ZINC000000289566    0.1700
20     H20    -2.5326    5.0794    0.0318 H        1 ZINC000000289566    0.1600
21     H21    -6.6527    7.7619    0.0493 H        1 ZINC000000289566    0.1400
22     H22    -9.1081    7.7249    0.0727 H        1 ZINC000000289566    0.1400
23     H23   -10.3188    5.5843    0.0916 H        1 ZINC000000289566    0.1500
24     H24    -9.0875    3.4585    0.0888 H        1 ZINC000000289566    0.1400
25     H25    -4.6263    1.3365    0.0418 H        1 ZINC000000289566    0.1600
26     H26    -2.4743    0.1455    0.0190 H        1 ZINC000000289566    0.1600
@<TRIPOS>BOND
1     1     2     2
2     2     3     2
3     2     4     1
4     4     18    ar
5     4     5     ar
6     5     6     ar
7     5     19    1
8     6     7     ar
9     6     20    1
10    7     8     1
11    7     17    ar
12    8     16    1
13    8     9     2
14    9     10    1
15    10    15    ar
16    10    11    ar
17    11    12    ar
18    11    21    1
19    12    13    ar
20    12    22    1
21    13    14    ar
22    13    23    1
23    14    15    ar
24    14    24    1
25    15    16    1
26    17    18    ar
27    17    25    1
28    18    26    1
@<TRIPOS>SUBSTRUCTURE
1   ZINC000000289566 1     RESIDUE    1   A     ZIN   1
