@<TRIPOS>MOLECULE
ZINC000068250459
65    68    1     0     0
SMALL
USER_CHARGES
@<TRIPOS>ATOM
1      C1     -0.8611    1.6932    6.7086 C.3      1 ZINC000068250459   -0.1800
2      C2     -1.4063    1.8811    5.2915 C.3      1 ZINC000068250459    0.0300
3      C3     -1.7167    3.3608    5.0565 C.3      1 ZINC000068250459   -0.1800
4      N4     -0.4035    1.4304    4.3172 N.4      1 ZINC000068250459   -0.5100
5      H5     -0.7275    1.6322    3.3832 H        1 ZINC000068250459    0.4200
6      H6      0.4670    1.9130    4.4828 H        1 ZINC000068250459    0.4300
7      C7     -0.1963   -0.0167    4.4617 C.3      1 ZINC000068250459    0.0100
8      C8      0.7428   -0.5100    3.3591 C.3      1 ZINC000068250459   -0.0900
9      H9      0.3470   -0.2169    2.3867 H        1 ZINC000068250459    0.1200
10     C10     2.1072    0.1006    3.5508 C.2      1 ZINC000068250459    0.5100
11     O11     2.4362    0.5199    4.6403 O.2      1 ZINC000068250459   -0.5400
12     N12     2.9618    0.1806    2.5117 N.am     1 ZINC000068250459   -0.5900
13     C13     2.5432   -0.2138    1.1580 C.3      1 ZINC000068250459    0.1100
14     C14     2.8879    0.9240    0.1911 C.3      1 ZINC000068250459    0.0400
15     N15     4.3105    1.2639    0.3272 N.3      1 ZINC000068250459   -0.4800
16     C16     4.6982    2.1748   -0.6420 C.ar     1 ZINC000068250459    0.3400
17     N17     4.1889    3.4033   -0.6578 N.ar     1 ZINC000068250459   -0.5500
18     C18     4.5569    4.2706   -1.5791 C.ar     1 ZINC000068250459    0.3100
19     N19     5.4340    3.9641   -2.5130 N.ar     1 ZINC000068250459   -0.5000
20     C20     5.9864    2.7584   -2.5631 C.ar     1 ZINC000068250459    0.1400
21     C21     5.6345    1.8207   -1.6152 C.ar     1 ZINC000068250459   -0.1500
22     C22     6.3794    0.5304   -1.8643 C.3      1 ZINC000068250459   -0.0400
23     H23     5.7058   -0.3207   -1.7646 H        1 ZINC000068250459    0.1000
24     C24     7.5508    0.3966   -0.8893 C.3      1 ZINC000068250459   -0.1400
25     C25     6.8966    0.6375   -3.3155 C.3      1 ZINC000068250459   -0.1100
26     C26     7.0002    2.1666   -3.5160 C.3      1 ZINC000068250459    0.1600
27     H27     8.0043    2.5130   -3.2712 H        1 ZINC000068250459    0.0900
28     O28     6.6716    2.5135   -4.8628 O.3      1 ZINC000068250459   -0.5500
29     C29     4.6116    1.7677    1.6738 C.3      1 ZINC000068250459    0.0500
30     C30     4.3358    0.6703    2.7003 C.3      1 ZINC000068250459    0.1100
31     C31     0.8506   -2.0117    3.4256 C.ar     1 ZINC000068250459   -0.1000
32     C32     1.3256   -2.6201    4.5725 C.ar     1 ZINC000068250459   -0.0900
33     C33     1.4246   -3.9973    4.6341 C.ar     1 ZINC000068250459   -0.1000
34     C34     1.0483   -4.7670    3.5478 C.ar     1 ZINC000068250459   -0.0200
35     Cl35    1.1720   -6.4969    3.6247 Cl       1 ZINC000068250459   -0.0500
36     C36     0.5731   -4.1575    2.4003 C.ar     1 ZINC000068250459   -0.1000
37     C37     0.4691   -2.7805    2.3419 C.ar     1 ZINC000068250459   -0.0900
38     H38     0.1059    2.1889    6.7946 H        1 ZINC000068250459    0.0800
39     H39    -1.5571    2.1275    7.4263 H        1 ZINC000068250459    0.1100
40     H40    -0.7436    0.6293    6.9146 H        1 ZINC000068250459    0.0800
41     H41    -2.3177    1.2953    5.1722 H        1 ZINC000068250459    0.1400
42     H42    -0.7915    3.9361    5.0913 H        1 ZINC000068250459    0.0800
43     H43    -2.1841    3.4833    4.0795 H        1 ZINC000068250459    0.0800
44     H44    -2.3955    3.7171    5.8313 H        1 ZINC000068250459    0.1100
45     H45     0.2462   -0.2249    5.4358 H        1 ZINC000068250459    0.1500
46     H46    -1.1539   -0.5308    4.3802 H        1 ZINC000068250459    0.1500
47     H47     3.0716   -1.1196    0.8607 H        1 ZINC000068250459    0.0900
48     H48     1.4681   -0.3926    1.1447 H        1 ZINC000068250459    0.0900
49     H49     2.6861    0.6058   -0.8317 H        1 ZINC000068250459    0.1000
50     H50     2.2809    1.7982    0.4270 H        1 ZINC000068250459    0.0600
51     H51     4.1268    5.2612   -1.5684 H        1 ZINC000068250459    0.2000
52     H52     7.1688    0.3097    0.1279 H        1 ZINC000068250459    0.0600
53     H53     8.1301   -0.4928   -1.1371 H        1 ZINC000068250459    0.0700
54     H54     8.1881    1.2777   -0.9639 H        1 ZINC000068250459    0.0500
55     H55     7.8758    0.1688   -3.4135 H        1 ZINC000068250459    0.1000
56     H56     6.1841    0.1989   -4.0142 H        1 ZINC000068250459    0.0900
57     H57     6.7195    3.4614   -5.0477 H        1 ZINC000068250459    0.3900
58     H58     5.6600    2.0614    1.7262 H        1 ZINC000068250459    0.0900
59     H59     3.9807    2.6301    1.8890 H        1 ZINC000068250459    0.0600
60     H60     4.4474    1.0738    3.7067 H        1 ZINC000068250459    0.1100
61     H61     5.0349   -0.1529    2.5532 H        1 ZINC000068250459    0.0900
62     H62     1.6196   -2.0192    5.4203 H        1 ZINC000068250459    0.1400
63     H63     1.7961   -4.4725    5.5300 H        1 ZINC000068250459    0.1400
64     H64     0.2795   -4.7577    1.5518 H        1 ZINC000068250459    0.1400
65     H65     0.0978   -2.3046    1.4463 H        1 ZINC000068250459    0.1400
@<TRIPOS>BOND
1     1     2     1
2     1     38    1
3     1     39    1
4     1     40    1
5     2     3     1
6     2     4     1
7     2     41    1
8     3     42    1
9     3     43    1
10    3     44    1
11    4     5     1
12    4     6     1
13    4     7     1
14    7     8     1
15    7     45    1
16    7     46    1
17    8     9     1
18    8     10    1
19    8     31    1
20    10    11    2
21    10    12    am
22    12    30    1
23    12    13    1
24    13    14    1
25    13    47    1
26    13    48    1
27    14    15    1
28    14    49    1
29    14    50    1
30    15    16    1
31    15    29    1
32    16    21    ar
33    16    17    ar
34    17    18    ar
35    18    19    ar
36    18    51    1
37    19    20    ar
38    20    26    1
39    20    21    ar
40    21    22    1
41    22    23    1
42    22    24    1
43    22    25    1
44    24    52    1
45    24    53    1
46    24    54    1
47    25    26    1
48    25    55    1
49    25    56    1
50    26    27    1
51    26    28    1
52    28    57    1
53    29    30    1
54    29    58    1
55    29    59    1
56    30    60    1
57    30    61    1
58    31    37    ar
59    31    32    ar
60    32    33    ar
61    32    62    1
62    33    34    ar
63    33    63    1
64    34    35    1
65    34    36    ar
66    36    37    ar
67    36    64    1
68    37    65    1
@<TRIPOS>SUBSTRUCTURE
1   ZINC000068250459 1     RESIDUE    1   A     ZIN   1
