@<TRIPOS>MOLECULE
ZINC000000043475
  23   24    0    0    0
SMALL
USER_CHARGES
NO_NAME
@<TRIPOS>ATOM
    1 C1       -0.0176     1.4478     0.0100 C.3    1 <0>       0.0500
    2 O2        0.0021    -0.0041     0.0020 O.3    1 <0>      -0.3500
    3 C3        0.6200    -0.6126     1.0317 C.2    1 <0>       0.6600
    4 O4        1.1288     0.0512     1.9129 O.2    1 <0>      -0.5600
    5 N5        0.6741    -1.9582     1.0851 N.am   1 <0>      -0.6100
    6 C6        1.3095    -2.5840     2.1440 C.2    1 <0>       0.5200
    7 N7        1.4250    -3.8791     2.2918 N.2    1 <0>      -0.5100
    8 C8        2.1034    -4.1489     3.4375 C.ar   1 <0>       0.0700
    9 C9        2.4970    -5.3337     4.0640 C.ar   1 <0>      -0.0700
   10 C10       3.1923    -5.2811     5.2515 C.ar   1 <0>      -0.1200
   11 C11       3.5046    -4.0604     5.8308 C.ar   1 <0>      -0.1000
   12 C12       3.1228    -2.8810     5.2250 C.ar   1 <0>      -0.1100
   13 C13       2.4229    -2.9149     4.0286 C.ar   1 <0>       0.0500
   14 N14       1.9136    -1.9417     3.1859 N.pl3  1 <0>      -0.5900
   15 H15       1.0050     1.8251     0.0023 H      1 <0>       0.0700
   16 H16      -0.5448     1.8089    -0.8731 H      1 <0>       0.1100
   17 H17      -0.5278     1.7993     0.9068 H      1 <0>       0.0700
   18 H18       0.2678    -2.4882     0.3816 H      1 <0>       0.4400
   19 H19       2.2566    -6.2878     3.6188 H      1 <0>       0.1300
   20 H20       3.4964    -6.1974     5.7355 H      1 <0>       0.1300
   21 H21       4.0501    -4.0327     6.7626 H      1 <0>       0.1300
   22 H22       3.3685    -1.9337     5.6817 H      1 <0>       0.1200
   23 H23       1.9725    -0.9819     3.3137 H      1 <0>       0.4400
@<TRIPOS>BOND
   1    1    2 1
   2    1   15 1
   3    1   16 1
   4    1   17 1
   5    2    3 1
   6    3    4 2
   7    3    5 am
   8    5    6 1
   9    5   18 1
  10    6   14 1
  11    6    7 2
  12    7    8 1
  13    8   13 ar
  14    8    9 ar
  15    9   10 ar
  16    9   19 1
  17   10   11 ar
  18   10   20 1
  19   11   12 ar
  20   11   21 1
  21   12   13 ar
  22   12   22 1
  23   13   14 1
  24   14   23 1
