@<TRIPOS>MOLECULE
ZINC000003784715
44    46    1     0     0
SMALL
USER_CHARGES
@<TRIPOS>ATOM
1      C1     -0.0187    1.5258    0.0104 C.3      1 ZINC000003784715   -0.1500
2      C2      0.0021   -0.0041    0.0020 C.3      1 ZINC000003784715   -0.0900
3      C3      0.7309   -0.5033    1.2229 C.ar     1 ZINC000003784715   -0.1000
4      C4      2.1004   -0.7122    1.1831 C.ar     1 ZINC000003784715   -0.0800
5      C5      2.7329   -1.1720    2.3276 C.ar     1 ZINC000003784715   -0.1000
6      C6      1.9726   -1.4072    3.4735 C.ar     1 ZINC000003784715    0.0400
7      C7      2.6300   -1.8967    4.7004 C.2      1 ZINC000003784715    0.4200
8      O8      3.8260   -2.0931    4.7100 O.2      1 ZINC000003784715   -0.4200
9      C9      1.8143   -2.1527    5.9415 C.3      1 ZINC000003784715    0.0300
10     O10     2.6706   -2.6177    6.9867 O.3      1 ZINC000003784715   -0.3000
11     C11     2.0887   -2.8972    8.1826 C.ar     1 ZINC000003784715    0.1400
12     C12     0.7207   -2.7330    8.3449 C.ar     1 ZINC000003784715   -0.2100
13     C13     0.1315   -3.0183    9.5613 C.ar     1 ZINC000003784715   -0.0700
14     C14     0.9040   -3.4668   10.6167 C.ar     1 ZINC000003784715   -0.1400
15     C15     0.2586   -3.7768   11.9428 C.3      1 ZINC000003784715   -0.0500
16     C16    -0.1735   -5.2443   11.9690 C.3      1 ZINC000003784715   -0.1000
17     H17    -0.8095   -5.4727   11.1138 H        1 ZINC000003784715    0.1600
18     S18     1.2815   -6.3449   12.0032 S.3      1 ZINC000003784715   -0.1000
19     C19     0.8667   -7.0628   13.5702 C.2      1 ZINC000003784715    0.5400
20     O20     1.5008   -7.9174   14.1581 O.2      1 ZINC000003784715   -0.4300
21     N21    -0.2671   -6.4962   13.9882 N.am     1 ZINC000003784715   -0.6800
22     C22    -0.8826   -5.5702   13.2653 C.2      1 ZINC000003784715    0.5400
23     O23    -1.9128   -5.0345   13.6139 O.2      1 ZINC000003784715   -0.4600
24     C24     2.2675   -3.6317   10.4574 C.ar     1 ZINC000003784715   -0.0600
25     C25     2.8607   -3.3528    9.2414 C.ar     1 ZINC000003784715   -0.1500
26     N26     0.6607   -1.1932    3.4687 N.ar     1 ZINC000003784715   -0.4400
27     C27     0.0383   -0.7525    2.3985 C.ar     1 ZINC000003784715    0.1000
28     H28     1.0039    1.9031    0.0027 H        1 ZINC000003784715    0.0600
29     H29    -0.5459    1.8868   -0.8726 H        1 ZINC000003784715    0.0700
30     H30    -0.5289    1.8773    0.9072 H        1 ZINC000003784715    0.0600
31     H31    -1.0205   -0.3814    0.0098 H        1 ZINC000003784715    0.0800
32     H32     0.5123   -0.3556   -0.8948 H        1 ZINC000003784715    0.0800
33     H33     2.6621   -0.5214    0.2806 H        1 ZINC000003784715    0.1400
34     H34     3.7987   -1.3461    2.3321 H        1 ZINC000003784715    0.1500
35     H35     1.3285   -1.2283    6.2539 H        1 ZINC000003784715    0.1000
36     H36     1.0571   -2.9074    5.7293 H        1 ZINC000003784715    0.1000
37     H37     0.1170   -2.3820    7.5210 H        1 ZINC000003784715    0.1300
38     H38    -0.9334   -2.8906    9.6882 H        1 ZINC000003784715    0.1300
39     H39     0.9725   -3.5939   12.7459 H        1 ZINC000003784715    0.0900
40     H40    -0.6142   -3.1385   12.0802 H        1 ZINC000003784715    0.1000
41     H41    -0.6501   -6.7681   14.8369 H        1 ZINC000003784715    0.4200
42     H42     2.8686   -3.9825   11.2832 H        1 ZINC000003784715    0.1400
43     H43     3.9258   -3.4818    9.1174 H        1 ZINC000003784715    0.1400
44     H44    -1.0290   -0.5903    2.4322 H        1 ZINC000003784715    0.1700
@<TRIPOS>BOND
1     1     2     1
2     1     28    1
3     1     29    1
4     1     30    1
5     2     3     1
6     2     31    1
7     2     32    1
8     3     27    ar
9     3     4     ar
10    4     5     ar
11    4     33    1
12    5     6     ar
13    5     34    1
14    6     7     1
15    6     26    ar
16    7     8     2
17    7     9     1
18    9     10    1
19    9     35    1
20    9     36    1
21    10    11    1
22    11    25    ar
23    11    12    ar
24    12    13    ar
25    12    37    1
26    13    14    ar
27    13    38    1
28    14    15    1
29    14    24    ar
30    15    16    1
31    15    39    1
32    15    40    1
33    16    17    1
34    16    22    1
35    16    18    1
36    18    19    1
37    19    20    2
38    19    21    am
39    21    22    am
40    21    41    1
41    22    23    2
42    24    25    ar
43    24    42    1
44    25    43    1
45    26    27    ar
46    27    44    1
@<TRIPOS>SUBSTRUCTURE
1   ZINC000003784715 1     RESIDUE    1   A     ZIN   1
