@<TRIPOS>MOLECULE
ZINC000137220729
100   100   1     0     0
SMALL
USER_CHARGES
@<TRIPOS>ATOM
1      C1      4.6165    2.5899    1.0119 C.3      1 ZINC000137220729   -0.1500
2      C2      4.4138    1.0738    0.9772 C.3      1 ZINC000137220729   -0.1300
3      C3      5.0025    0.5100   -0.3176 C.3      1 ZINC000137220729   -0.1200
4      C4      4.7997   -1.0061   -0.3523 C.3      1 ZINC000137220729   -0.1200
5      C5      5.3885   -1.5698   -1.6471 C.3      1 ZINC000137220729   -0.1200
6      C6      5.1857   -3.0859   -1.6819 C.3      1 ZINC000137220729   -0.1200
7      C7      5.7745   -3.6497   -2.9767 C.3      1 ZINC000137220729   -0.1200
8      C8      5.5717   -5.1658   -3.0114 C.3      1 ZINC000137220729   -0.1200
9      C9      6.1604   -5.7295   -4.3062 C.3      1 ZINC000137220729   -0.1200
10     C10     5.9577   -7.2456   -4.3409 C.3      1 ZINC000137220729   -0.1200
11     C11     6.5464   -7.8093   -5.6357 C.3      1 ZINC000137220729   -0.1200
12     C12     6.3437   -9.3255   -5.6705 C.3      1 ZINC000137220729   -0.1200
13     C13     6.9324   -9.8892   -6.9653 C.3      1 ZINC000137220729   -0.1200
14     C14     6.7297  -11.4053   -7.0000 C.3      1 ZINC000137220729   -0.1200
15     C15     7.3184  -11.9690   -8.2948 C.3      1 ZINC000137220729   -0.1200
16     C16     7.1157  -13.4851   -8.3296 C.3      1 ZINC000137220729   -0.1200
17     C17     7.7044  -14.0489   -9.6244 C.3      1 ZINC000137220729   -0.1200
18     C18     7.5016  -15.5650   -9.6591 C.3      1 ZINC000137220729    0.0900
19     O19     8.0604  -16.1000  -10.8879 O.3      1 ZINC000137220729   -0.3700
20     C20     7.9637  -17.4298  -11.0751 C.2      1 ZINC000137220729    0.6500
21     O21     7.4272  -18.1243  -10.2347 O.2      1 ZINC000137220729   -0.5800
22     N22     8.4621  -17.9906  -12.1947 N.am     1 ZINC000137220729   -0.5900
23     C23     9.1190  -17.1648  -13.2171 C.3      1 ZINC000137220729    0.1100
24     C24    10.5079  -17.7450  -13.5020 C.3      1 ZINC000137220729   -0.1300
25     C25    10.3718  -19.2220  -13.8792 C.3      1 ZINC000137220729   -0.0900
26     C26    11.7537  -19.7961  -14.1980 C.3      1 ZINC000137220729    0.1400
27     O27    11.6154  -21.1406  -14.6619 O.3      1 ZINC000137220729   -0.7600
28     P28    12.8703  -22.0538  -15.0901 P.3      1 ZINC000137220729    2.2100
29     O29    13.8850  -22.1130  -13.9265 O.co2    1 ZINC000137220729   -1.0900
30     O30    13.5504  -21.4433  -16.3358 O.co2    1 ZINC000137220729   -1.0900
31     O31    12.3593  -23.5416  -15.4327 O.3      1 ZINC000137220729   -0.7600
32     C32    13.2471  -24.6168  -15.7455 C.3      1 ZINC000137220729    0.1000
33     C33    12.4359  -25.8851  -16.0180 C.3      1 ZINC000137220729   -0.0100
34     N34    11.6450  -25.7068  -17.2430 N.4      1 ZINC000137220729   -0.2700
35     C35    12.5329  -25.3178  -18.3468 C.3      1 ZINC000137220729   -0.0600
36     C36    10.9705  -26.9679  -17.5784 C.3      1 ZINC000137220729   -0.0400
37     C37    10.6408  -24.6562  -17.0289 C.3      1 ZINC000137220729   -0.0400
38     C38     9.7563  -19.9942  -12.7099 C.3      1 ZINC000137220729   -0.1300
39     C39     8.3643  -19.4402  -12.4132 C.3      1 ZINC000137220729    0.1300
40     H40     5.6821    2.8150    0.9691 H        1 ZINC000137220729    0.0500
41     H41     4.1147    3.0432    0.1571 H        1 ZINC000137220729    0.0500
42     H42     4.1971    2.9915    1.9344 H        1 ZINC000137220729    0.0500
43     H43     4.9155    0.6204    1.8321 H        1 ZINC000137220729    0.0600
44     H44     3.3481    0.8486    1.0200 H        1 ZINC000137220729    0.0600
45     H45     4.5007    0.9634   -1.1725 H        1 ZINC000137220729    0.0600
46     H46     6.0681    0.7352   -0.3604 H        1 ZINC000137220729    0.0600
47     H47     5.3015   -1.4594    0.5025 H        1 ZINC000137220729    0.0600
48     H48     3.7341   -1.2312   -0.3095 H        1 ZINC000137220729    0.0600
49     H49     4.8867   -1.1165   -2.5020 H        1 ZINC000137220729    0.0600
50     H50     6.4541   -1.3447   -1.6900 H        1 ZINC000137220729    0.0600
51     H51     5.6875   -3.5393   -0.8270 H        1 ZINC000137220729    0.0600
52     H52     4.1201   -3.3111   -1.6391 H        1 ZINC000137220729    0.0600
53     H53     5.2727   -3.1963   -3.8315 H        1 ZINC000137220729    0.0600
54     H54     6.8401   -3.4245   -3.0195 H        1 ZINC000137220729    0.0600
55     H55     6.0735   -5.6191   -2.1565 H        1 ZINC000137220729    0.0600
56     H56     4.5061   -5.3909   -2.9686 H        1 ZINC000137220729    0.0600
57     H57     5.6587   -5.2762   -5.1611 H        1 ZINC000137220729    0.0600
58     H58     7.2261   -5.5044   -4.3490 H        1 ZINC000137220729    0.0600
59     H59     6.4595   -7.6990   -3.4861 H        1 ZINC000137220729    0.0600
60     H60     4.8921   -7.4708   -4.2981 H        1 ZINC000137220729    0.0600
61     H61     6.0447   -7.3560   -6.4906 H        1 ZINC000137220729    0.0600
62     H62     7.6121   -7.5842   -5.6786 H        1 ZINC000137220729    0.0600
63     H63     6.8455   -9.7788   -4.8156 H        1 ZINC000137220729    0.0600
64     H64     5.2780   -9.5506   -5.6277 H        1 ZINC000137220729    0.0600
65     H65     6.4306   -9.4358   -7.8201 H        1 ZINC000137220729    0.0600
66     H66     7.9981   -9.6641   -7.0081 H        1 ZINC000137220729    0.0600
67     H67     7.2314  -11.8587   -6.1452 H        1 ZINC000137220729    0.0600
68     H68     5.6640  -11.6304   -6.9572 H        1 ZINC000137220729    0.0600
69     H69     6.8166  -11.5157   -9.1497 H        1 ZINC000137220729    0.0600
70     H70     8.3840  -11.7439   -8.3376 H        1 ZINC000137220729    0.0600
71     H71     7.6174  -13.9385   -7.4747 H        1 ZINC000137220729    0.0700
72     H72     6.0500  -13.7103   -8.2867 H        1 ZINC000137220729    0.0700
73     H73     7.2026  -13.5955  -10.4792 H        1 ZINC000137220729    0.0700
74     H74     8.7700  -13.8237   -9.6672 H        1 ZINC000137220729    0.0700
75     H75     8.0034  -16.0183   -8.8042 H        1 ZINC000137220729    0.0700
76     H76     6.4360  -15.7901   -9.6163 H        1 ZINC000137220729    0.0700
77     H77     8.5249  -17.1735  -14.1309 H        1 ZINC000137220729    0.0700
78     H78     9.2179  -16.1423  -12.8528 H        1 ZINC000137220729    0.0900
79     H79    10.9678  -17.2000  -14.3263 H        1 ZINC000137220729    0.0800
80     H80    11.1303  -17.6527  -12.6120 H        1 ZINC000137220729    0.0700
81     H81     9.7289  -19.3155  -14.7544 H        1 ZINC000137220729    0.0800
82     H82    12.2285  -19.1920  -14.9711 H        1 ZINC000137220729    0.0600
83     H83    12.3687  -19.7836  -13.2982 H        1 ZINC000137220729    0.0600
84     H84    13.8298  -24.3610  -16.6304 H        1 ZINC000137220729    0.0800
85     H85    13.9194  -24.7891  -14.9050 H        1 ZINC000137220729    0.1000
86     H86    13.1134  -26.7299  -16.1427 H        1 ZINC000137220729    0.1400
87     H87    11.7674  -26.0763  -15.1786 H        1 ZINC000137220729    0.1300
88     H88    13.2780  -26.0973  -18.5057 H        1 ZINC000137220729    0.1200
89     H89    11.9460  -25.1855  -19.2558 H        1 ZINC000137220729    0.1200
90     H90    13.0334  -24.3820  -18.0980 H        1 ZINC000137220729    0.1300
91     H91    10.3117  -27.2565  -16.7593 H        1 ZINC000137220729    0.1200
92     H92    10.3836  -26.8356  -18.4873 H        1 ZINC000137220729    0.1200
93     H93    11.7156  -27.7474  -17.7372 H        1 ZINC000137220729    0.1200
94     H94    11.1354  -23.6864  -16.9751 H        1 ZINC000137220729    0.1400
95     H95     9.9319  -24.6571  -17.8569 H        1 ZINC000137220729    0.1100
96     H96    10.1101  -24.8457  -16.0959 H        1 ZINC000137220729    0.1200
97     H97     9.6812  -21.0499  -12.9705 H        1 ZINC000137220729    0.0900
98     H98    10.3858  -19.8806  -11.8274 H        1 ZINC000137220729    0.0700
99     H99     7.9630  -19.9195  -11.5202 H        1 ZINC000137220729    0.1000
100    H100    7.7062  -19.6325  -13.2607 H        1 ZINC000137220729    0.0700
@<TRIPOS>BOND
1     1     2     1
2     1     40    1
3     1     41    1
4     1     42    1
5     2     3     1
6     2     43    1
7     2     44    1
8     3     4     1
9     3     45    1
10    3     46    1
11    4     5     1
12    4     47    1
13    4     48    1
14    5     6     1
15    5     49    1
16    5     50    1
17    6     7     1
18    6     51    1
19    6     52    1
20    7     8     1
21    7     53    1
22    7     54    1
23    8     9     1
24    8     55    1
25    8     56    1
26    9     10    1
27    9     57    1
28    9     58    1
29    10    11    1
30    10    59    1
31    10    60    1
32    11    12    1
33    11    61    1
34    11    62    1
35    12    13    1
36    12    63    1
37    12    64    1
38    13    14    1
39    13    65    1
40    13    66    1
41    14    15    1
42    14    67    1
43    14    68    1
44    15    16    1
45    15    69    1
46    15    70    1
47    16    17    1
48    16    71    1
49    16    72    1
50    17    18    1
51    17    73    1
52    17    74    1
53    18    19    1
54    18    75    1
55    18    76    1
56    19    20    1
57    20    21    2
58    20    22    am
59    22    39    1
60    22    23    1
61    23    24    1
62    23    77    1
63    23    78    1
64    24    25    1
65    24    79    1
66    24    80    1
67    25    26    1
68    25    38    1
69    25    81    1
70    26    27    1
71    26    82    1
72    26    83    1
73    27    28    1
74    28    29    ar
75    28    30    ar
76    28    31    1
77    31    32    1
78    32    33    1
79    32    84    1
80    32    85    1
81    33    34    1
82    33    86    1
83    33    87    1
84    34    35    1
85    34    36    1
86    34    37    1
87    35    88    1
88    35    89    1
89    35    90    1
90    36    91    1
91    36    92    1
92    36    93    1
93    37    94    1
94    37    95    1
95    37    96    1
96    38    39    1
97    38    97    1
98    38    98    1
99    39    99    1
100   39    100   1
@<TRIPOS>SUBSTRUCTURE
1   ZINC000137220729 1     RESIDUE    1   A     ZIN   1
