@<TRIPOS>MOLECULE
ZINC000038795123
49    52    1     0     0
SMALL
USER_CHARGES
@<TRIPOS>ATOM
1      C1     -0.0184    1.5028    0.0103 C.3      1 ZINC000038795123   -0.0700
2      C2      0.0021   -0.0041    0.0020 C.2      1 ZINC000038795123   -0.1400
3      C3      0.0082   -0.8028   -1.0738 C.2      1 ZINC000038795123   -0.0100
4      C4     -0.0042   -0.3250   -2.5030 C.3      1 ZINC000038795123    0.2000
5      N5      1.3729   -0.1519   -2.9719 N.am     1 ZINC000038795123   -0.6100
6      C6      2.0757   -1.2685   -3.6087 C.3      1 ZINC000038795123    0.0700
7      C7      1.9932    1.0346   -2.8175 C.2      1 ZINC000038795123    0.5500
8      O8      1.4092    1.9623   -2.2884 O.2      1 ZINC000038795123   -0.5300
9      C9      3.3680    1.2075   -3.2857 C.2      1 ZINC000038795123   -0.2200
10     C10     3.9892    2.3958   -3.1311 C.2      1 ZINC000038795123    0.0000
11     C11     5.3711    2.5695   -3.6016 C.ar     1 ZINC000038795123   -0.1500
12     C12     6.0511    1.5136   -4.2162 C.ar     1 ZINC000038795123    0.1600
13     N13     7.2881    1.6688   -4.6373 N.ar     1 ZINC000038795123   -0.5100
14     C14     7.9347    2.8193   -4.4990 C.ar     1 ZINC000038795123    0.3800
15     N15     9.2414    2.9367   -4.9609 N.am     1 ZINC000038795123   -0.6500
16     C16    10.0385    3.9261   -4.5208 C.2      1 ZINC000038795123    0.5300
17     O17    11.1703    4.0164   -4.9468 O.2      1 ZINC000038795123   -0.5100
18     C18     9.5454    4.9233   -3.5072 C.3      1 ZINC000038795123   -0.1400
19     C19     8.0622    5.2121   -3.7435 C.3      1 ZINC000038795123   -0.0800
20     C20     7.3164    3.9123   -3.8952 C.ar     1 ZINC000038795123   -0.1700
21     C21     6.0293    3.8015   -3.4467 C.ar     1 ZINC000038795123   -0.0200
22     O22     0.0273   -2.0922   -0.6935 O.3      1 ZINC000038795123   -0.1900
23     C23     0.0347   -2.1971    0.6508 C.ar     1 ZINC000038795123    0.0600
24     C24     0.0537   -3.2769    1.5240 C.ar     1 ZINC000038795123   -0.1100
25     C25     0.0572   -3.0612    2.8856 C.ar     1 ZINC000038795123   -0.0900
26     C26     0.0419   -1.7724    3.3983 C.ar     1 ZINC000038795123   -0.1400
27     C27     0.0226   -0.6874    2.5496 C.ar     1 ZINC000038795123   -0.0700
28     C28     0.0257   -0.8918    1.1708 C.ar     1 ZINC000038795123   -0.1300
29     H29     1.0042    1.8801    0.0026 H        1 ZINC000038795123    0.0800
30     H30    -0.5455    1.8639   -0.8728 H        1 ZINC000038795123    0.0700
31     H31    -0.5286    1.8543    0.9071 H        1 ZINC000038795123    0.0600
32     H32    -0.5109   -1.0607   -3.1276 H        1 ZINC000038795123    0.1000
33     H33    -0.5310    0.6273   -2.5632 H        1 ZINC000038795123    0.1200
34     H34     1.8995   -1.2428   -4.6841 H        1 ZINC000038795123    0.0600
35     H35     3.1447   -1.1836   -3.4135 H        1 ZINC000038795123    0.0800
36     H36     1.7058   -2.2098   -3.2023 H        1 ZINC000038795123    0.0800
37     H37     3.8862    0.3844   -3.7551 H        1 ZINC000038795123    0.1300
38     H38     3.4711    3.2189   -2.6616 H        1 ZINC000038795123    0.1400
39     H39     5.5569    0.5621   -4.3461 H        1 ZINC000038795123    0.1700
40     H40     9.5813    2.2980   -5.6071 H        1 ZINC000038795123    0.4200
41     H41     9.6804    4.5177   -2.5045 H        1 ZINC000038795123    0.1100
42     H42    10.1143    5.8482   -3.6025 H        1 ZINC000038795123    0.1200
43     H43     7.6599    5.7648   -2.8945 H        1 ZINC000038795123    0.1000
44     H44     7.9475    5.8052   -4.6507 H        1 ZINC000038795123    0.0900
45     H45     5.5321    4.6394   -2.9807 H        1 ZINC000038795123    0.1500
46     H46     0.0653   -4.2850    1.1365 H        1 ZINC000038795123    0.1300
47     H47     0.0716   -3.9045    3.5601 H        1 ZINC000038795123    0.1400
48     H48     0.0449   -1.6188    4.4674 H        1 ZINC000038795123    0.1300
49     H49     0.0104    0.3155    2.9501 H        1 ZINC000038795123    0.1300
@<TRIPOS>BOND
1     1     2     1
2     1     29    1
3     1     30    1
4     1     31    1
5     2     28    1
6     2     3     2
7     3     4     1
8     3     22    1
9     4     5     1
10    4     32    1
11    4     33    1
12    5     6     1
13    5     7     am
14    6     34    1
15    6     35    1
16    6     36    1
17    7     8     2
18    7     9     1
19    9     10    2
20    9     37    1
21    10    11    1
22    10    38    1
23    11    21    ar
24    11    12    ar
25    12    13    ar
26    12    39    1
27    13    14    ar
28    14    20    ar
29    14    15    1
30    15    16    am
31    15    40    1
32    16    17    2
33    16    18    1
34    18    19    1
35    18    41    1
36    18    42    1
37    19    20    1
38    19    43    1
39    19    44    1
40    20    21    ar
41    21    45    1
42    22    23    1
43    23    28    ar
44    23    24    ar
45    24    25    ar
46    24    46    1
47    25    26    ar
48    25    47    1
49    26    27    ar
50    26    48    1
51    27    28    ar
52    27    49    1
@<TRIPOS>SUBSTRUCTURE
1   ZINC000038795123 1     RESIDUE    1   A     ZIN   1
