@<TRIPOS>MOLECULE
ZINC000000131412
29    31    1     0     0
SMALL
USER_CHARGES
@<TRIPOS>ATOM
1      N1     -0.0116    1.0048    0.0076 N.4      1 ZINC000000131412   -0.6400
2      H2      0.0021   -0.0041    0.0020 H        1 ZINC000000131412    0.4400
3      H3      0.9350    1.3541    0.0004 H        1 ZINC000000131412    0.4300
4      H4     -0.4996    1.3391   -0.8099 H        1 ZINC000000131412    0.4400
5      C5     -0.6992    1.4786    1.2162 C.3      1 ZINC000000131412    0.1200
6      H6     -0.7153    2.5684    1.2245 H        1 ZINC000000131412    0.1500
7      C7     -2.1349    0.9427    1.2347 C.3      1 ZINC000000131412   -0.1400
8      C8     -2.7659    1.2227    2.6016 C.3      1 ZINC000000131412   -0.1200
9      C9     -2.1027    0.3313    3.6582 C.3      1 ZINC000000131412   -0.0700
10     C10    -0.6066    0.4602    3.5240 C.2      1 ZINC000000131412   -0.0700
11     C11     0.0240    0.9727    2.4423 C.2      1 ZINC000000131412   -0.0300
12     N12     1.3797    0.9476    2.6404 N.pl3    1 ZINC000000131412   -0.5900
13     C13     1.6581    0.4142    3.8665 C.ar     1 ZINC000000131412    0.1300
14     C14     2.8600    0.1772    4.5292 C.ar     1 ZINC000000131412   -0.1300
15     C15     2.7833   -0.3881    5.7903 C.ar     1 ZINC000000131412   -0.0500
16     C16     1.5733   -0.7115    6.3835 C.ar     1 ZINC000000131412   -0.1100
17     Br17    1.5743   -1.4811    8.1108 Br       1 ZINC000000131412   -0.0300
18     C18     0.3643   -0.4872    5.7486 C.ar     1 ZINC000000131412   -0.0200
19     C19     0.4189    0.0868    4.4760 C.ar     1 ZINC000000131412   -0.1200
20     H20    -2.7174    1.4372    0.4574 H        1 ZINC000000131412    0.1000
21     H21    -2.1241   -0.1319    1.0527 H        1 ZINC000000131412    0.0900
22     H22    -2.6167    2.2701    2.8636 H        1 ZINC000000131412    0.0800
23     H23    -3.8334    1.0059    2.5608 H        1 ZINC000000131412    0.1000
24     H24    -2.4100    0.6527    4.6534 H        1 ZINC000000131412    0.0900
25     H25    -2.3966   -0.7061    3.4986 H        1 ZINC000000131412    0.0900
26     H26     2.0422    1.2615    2.0052 H        1 ZINC000000131412    0.4100
27     H27     3.8102    0.4235    4.0787 H        1 ZINC000000131412    0.1400
28     H28     3.6978   -0.5842    6.3304 H        1 ZINC000000131412    0.1400
29     H29    -0.5759   -0.7413    6.2152 H        1 ZINC000000131412    0.1500
@<TRIPOS>BOND
1     1     2     1
2     1     3     1
3     1     4     1
4     1     5     1
5     5     6     1
6     5     11    1
7     5     7     1
8     7     8     1
9     7     20    1
10    7     21    1
11    8     9     1
12    8     22    1
13    8     23    1
14    9     10    1
15    9     24    1
16    9     25    1
17    10    19    1
18    10    11    2
19    11    12    1
20    12    13    1
21    12    26    1
22    13    19    ar
23    13    14    ar
24    14    15    ar
25    14    27    1
26    15    16    ar
27    15    28    1
28    16    17    1
29    16    18    ar
30    18    19    ar
31    18    29    1
@<TRIPOS>SUBSTRUCTURE
1   ZINC000000131412 1     RESIDUE    1   A     ZIN   1
