@<TRIPOS>MOLECULE
ZINC000006717510
63    66    1     0     0
SMALL
USER_CHARGES
@<TRIPOS>ATOM
1      C1     -0.5369   -0.5122    4.7683 C.3      1 ZINC000006717510    0.0300
2      O2     -0.7297   -1.0436    3.4558 O.3      1 ZINC000006717510   -0.3200
3      C3     -1.8520   -1.7811    3.2475 C.ar     1 ZINC000006717510    0.1700
4      C4     -2.7519   -1.9839    4.2843 C.ar     1 ZINC000006717510   -0.2500
5      C5     -3.8938   -2.7337    4.0742 C.ar     1 ZINC000006717510   -0.0400
6      C6     -4.1433   -3.2836    2.8321 C.ar     1 ZINC000006717510   -0.2200
7      C7     -3.2458   -3.0839    1.7899 C.ar     1 ZINC000006717510    0.2600
8      N8     -3.4982   -3.6397    0.5330 N.pl3    1 ZINC000006717510   -0.6900
9      C9     -4.5746   -4.4816    0.3554 C.ar     1 ZINC000006717510    0.3100
10     C10    -4.4636   -5.8721    0.5967 C.ar     1 ZINC000006717510   -0.1400
11     C11    -3.2560   -6.4409    1.0242 C.ar     1 ZINC000006717510    0.0400
12     C12    -3.1849   -7.7839    1.2474 C.ar     1 ZINC000006717510   -0.6500
13     S13    -1.6667   -8.4980    1.7855 S.o2     1 ZINC000006717510    2.5800
14     O14    -1.6623   -9.8370    1.3097 O.2      1 ZINC000006717510   -0.9200
15     O15    -0.6479   -7.5584    1.4718 O.2      1 ZINC000006717510   -0.9300
16     C16    -1.7300   -8.5949    3.5436 C.ar     1 ZINC000006717510   -0.6700
17     C17    -1.1829   -7.5820    4.3108 C.ar     1 ZINC000006717510    0.0000
18     C18    -1.2289   -7.6502    5.6922 C.ar     1 ZINC000006717510   -0.1400
19     C19    -1.8213   -8.7300    6.3132 C.ar     1 ZINC000006717510   -0.0500
20     C20    -2.3752   -9.7555    5.5449 C.ar     1 ZINC000006717510   -0.1500
21     C21    -3.0122  -10.9157    6.2038 C.2      1 ZINC000006717510    0.5600
22     O22    -3.9514  -11.4759    5.6731 O.2      1 ZINC000006717510   -0.5200
23     N23    -2.5515  -11.3521    7.3928 N.am     1 ZINC000006717510   -0.6200
24     C24    -3.1341  -12.5458    8.0107 C.3      1 ZINC000006717510    0.0900
25     C25    -1.4681  -10.6327    8.0674 C.3      1 ZINC000006717510    0.0600
26     C26    -2.3302   -9.6781    4.1522 C.ar     1 ZINC000006717510    0.0400
27     C27    -4.2980   -8.5973    1.0556 C.ar     1 ZINC000006717510   -0.0200
28     C28    -5.4859   -8.0755    0.6402 C.ar     1 ZINC000006717510   -0.0700
29     C29    -6.6776   -8.9758    0.4393 C.3      1 ZINC000006717510   -0.1100
30     C30    -5.5971   -6.6963    0.4008 C.ar     1 ZINC000006717510    0.1900
31     N31    -6.7571   -6.1630   -0.0078 N.ar     1 ZINC000006717510   -0.4700
32     C32    -6.8886   -4.8817   -0.2379 C.ar     1 ZINC000006717510    0.1900
33     C33    -5.8193   -3.9887   -0.0649 C.ar     1 ZINC000006717510   -0.2200
34     C34    -5.9990   -2.5521   -0.3321 C.2      1 ZINC000006717510    0.5700
35     N35    -7.2209   -2.0706   -0.6346 N.am     1 ZINC000006717510   -0.8500
36     O36    -5.0446   -1.7998   -0.2800 O.2      1 ZINC000006717510   -0.5100
37     C37    -2.1014   -2.3264    1.9978 C.ar     1 ZINC000006717510   -0.2100
38     H38     0.3939    0.0541    4.7979 H        1 ZINC000006717510    0.1000
39     H39    -1.3698    0.1442    5.0204 H        1 ZINC000006717510    0.0600
40     H40    -0.4879   -1.3297    5.4876 H        1 ZINC000006717510    0.0600
41     H41    -2.5594   -1.5555    5.2569 H        1 ZINC000006717510    0.1300
42     H42    -4.5922   -2.8902    4.8830 H        1 ZINC000006717510    0.1200
43     H43    -5.0362   -3.8694    2.6707 H        1 ZINC000006717510    0.1100
44     H44    -2.9158   -3.4330   -0.2146 H        1 ZINC000006717510    0.4200
45     H45    -2.3864   -5.8186    1.1757 H        1 ZINC000006717510    0.1600
46     H46    -0.7176   -6.7345    3.8295 H        1 ZINC000006717510    0.1500
47     H47    -0.7996   -6.8563    6.2854 H        1 ZINC000006717510    0.1400
48     H48    -1.8562   -8.7821    7.3913 H        1 ZINC000006717510    0.1500
49     H49    -3.0010  -13.4002    7.3470 H        1 ZINC000006717510    0.0700
50     H50    -2.6370  -12.7427    8.9606 H        1 ZINC000006717510    0.0800
51     H51    -4.1978  -12.3828    8.1842 H        1 ZINC000006717510    0.0700
52     H52    -1.8877   -9.8318    8.6762 H        1 ZINC000006717510    0.0600
53     H53    -0.9158  -11.3228    8.7053 H        1 ZINC000006717510    0.0800
54     H54    -0.7948  -10.2084    7.3226 H        1 ZINC000006717510    0.0800
55     H55    -2.7570  -10.4681    3.5522 H        1 ZINC000006717510    0.1500
56     H56    -4.2185   -9.6588    1.2385 H        1 ZINC000006717510    0.1500
57     H57    -7.2419   -9.0446    1.3693 H        1 ZINC000006717510    0.0800
58     H58    -7.3155   -8.5649   -0.3432 H        1 ZINC000006717510    0.0800
59     H59    -6.3373   -9.9690    0.1464 H        1 ZINC000006717510    0.0700
60     H60    -7.8445   -4.5011   -0.5662 H        1 ZINC000006717510    0.1700
61     H61    -7.9820   -2.6706   -0.6762 H        1 ZINC000006717510    0.4000
62     H62    -7.3393   -1.1241   -0.8107 H        1 ZINC000006717510    0.4100
63     H63    -1.4024   -2.1692    1.1896 H        1 ZINC000006717510    0.1300
@<TRIPOS>BOND
1     1     2     1
2     1     38    1
3     1     39    1
4     1     40    1
5     2     3     1
6     3     37    ar
7     3     4     ar
8     4     5     ar
9     4     41    1
10    5     6     ar
11    5     42    1
12    6     7     ar
13    6     43    1
14    7     8     1
15    7     37    ar
16    8     9     1
17    8     44    1
18    9     33    ar
19    9     10    ar
20    10    30    ar
21    10    11    ar
22    11    12    ar
23    11    45    1
24    12    13    1
25    12    27    ar
26    13    14    2
27    13    15    2
28    13    16    1
29    16    26    ar
30    16    17    ar
31    17    18    ar
32    17    46    1
33    18    19    ar
34    18    47    1
35    19    20    ar
36    19    48    1
37    20    21    1
38    20    26    ar
39    21    22    2
40    21    23    am
41    23    24    1
42    23    25    1
43    24    49    1
44    24    50    1
45    24    51    1
46    25    52    1
47    25    53    1
48    25    54    1
49    26    55    1
50    27    28    ar
51    27    56    1
52    28    29    1
53    28    30    ar
54    29    57    1
55    29    58    1
56    29    59    1
57    30    31    ar
58    31    32    ar
59    32    33    ar
60    32    60    1
61    33    34    1
62    34    35    am
63    34    36    2
64    35    61    1
65    35    62    1
66    37    63    1
@<TRIPOS>SUBSTRUCTURE
1   ZINC000006717510 1     RESIDUE    1   A     ZIN   1
