@<TRIPOS>MOLECULE
ZINC000005442038
62    63    1     0     0
SMALL
USER_CHARGES
@<TRIPOS>ATOM
1      C1      2.3868   -2.2349    0.4725 C.3      1 ZINC000005442038   -0.1800
2      C2      2.9826   -2.2344   -0.9118 C.2      1 ZINC000005442038    0.5100
3      O3      3.8219   -1.4114   -1.2105 O.2      1 ZINC000005442038   -0.5400
4      N4      2.5827   -3.1485   -1.8179 N.am     1 ZINC000005442038   -0.6100
5      C5      1.4717   -4.0512   -1.5064 C.3      1 ZINC000005442038    0.1000
6      C6      0.1576   -3.4234   -1.9753 C.3      1 ZINC000005442038   -0.1300
7      C7     -1.0132   -4.3088   -1.5438 C.3      1 ZINC000005442038   -0.0300
8      C8     -2.2787   -3.8799   -2.2890 C.3      1 ZINC000005442038   -0.1400
9      C9     -3.4108   -4.8612   -1.9785 C.3      1 ZINC000005442038    0.0500
10     N10    -4.5763   -4.5447   -2.8147 N.3      1 ZINC000005442038   -0.5300
11     C11    -4.8468   -3.1013   -2.8158 C.3      1 ZINC000005442038    0.0500
12     C12    -5.9711   -2.7925   -3.8071 C.3      1 ZINC000005442038   -0.1200
13     C13    -7.2289   -3.5660   -3.4019 C.3      1 ZINC000005442038   -0.1200
14     C14    -6.9073   -5.0625   -3.3614 C.3      1 ZINC000005442038   -0.1200
15     C15    -5.7558   -5.3056   -2.3831 C.3      1 ZINC000005442038    0.0600
16     C16    -1.2312   -4.1651   -0.0596 C.2      1 ZINC000005442038    0.5300
17     N17    -2.3578   -3.5880    0.4033 N.am     1 ZINC000005442038   -0.8500
18     O18    -0.3929   -4.5688    0.7184 O.2      1 ZINC000005442038   -0.5300
19     C19    -0.7019   -5.7470   -1.8689 C.ar     1 ZINC000005442038   -0.0600
20     C20    -0.6558   -6.6894   -0.8592 C.ar     1 ZINC000005442038   -0.1000
21     C21    -0.3702   -8.0089   -1.1573 C.ar     1 ZINC000005442038   -0.1100
22     C22    -0.1300   -8.3862   -2.4651 C.ar     1 ZINC000005442038   -0.1000
23     C23    -0.1758   -7.4444   -3.4760 C.ar     1 ZINC000005442038   -0.1100
24     C24    -0.4676   -6.1252   -3.1791 C.ar     1 ZINC000005442038   -0.0200
25     Cl25   -0.5252   -4.9419   -4.4480 Cl       1 ZINC000005442038   -0.0600
26     C26     3.2590   -3.2394   -3.1142 C.3      1 ZINC000005442038    0.1400
27     C27     3.1037   -1.9150   -3.8644 C.3      1 ZINC000005442038   -0.1700
28     C28     4.7450   -3.5301   -2.8949 C.3      1 ZINC000005442038   -0.1700
29     H29     1.4908   -1.6143    0.4826 H        1 ZINC000005442038    0.0900
30     H30     2.1257   -3.2547    0.7553 H        1 ZINC000005442038    0.0900
31     H31     3.1130   -1.8360    1.1807 H        1 ZINC000005442038    0.0900
32     H32     1.6224   -5.0024   -2.0168 H        1 ZINC000005442038    0.0800
33     H33     1.4305   -4.2189   -0.4302 H        1 ZINC000005442038    0.1000
34     H34     0.0484   -2.4343   -1.5305 H        1 ZINC000005442038    0.0700
35     H35     0.1647   -3.3345   -3.0617 H        1 ZINC000005442038    0.1000
36     H36    -2.5675   -2.8789   -1.9686 H        1 ZINC000005442038    0.0700
37     H37    -2.0851   -3.8762   -3.3617 H        1 ZINC000005442038    0.1100
38     H38    -3.0782   -5.8778   -2.1885 H        1 ZINC000005442038    0.0800
39     H39    -3.6849   -4.7786   -0.9268 H        1 ZINC000005442038    0.0400
40     H40    -5.1474   -2.7874   -1.8163 H        1 ZINC000005442038    0.0300
41     H41    -3.9456   -2.5632   -3.1097 H        1 ZINC000005442038    0.0800
42     H42    -6.1823   -1.7232   -3.7962 H        1 ZINC000005442038    0.0700
43     H43    -5.6657   -3.0936   -4.8091 H        1 ZINC000005442038    0.0700
44     H44    -7.5570   -3.2372   -2.4158 H        1 ZINC000005442038    0.0600
45     H45    -8.0194   -3.3829   -4.1297 H        1 ZINC000005442038    0.0600
46     H46    -7.7873   -5.6151   -3.0322 H        1 ZINC000005442038    0.0700
47     H47    -6.6166   -5.3993   -4.3565 H        1 ZINC000005442038    0.0700
48     H48    -5.5148   -6.3684   -2.3627 H        1 ZINC000005442038    0.0700
49     H49    -6.0522   -4.9813   -1.3856 H        1 ZINC000005442038    0.0300
50     H50    -3.0283   -3.2651   -0.2189 H        1 ZINC000005442038    0.4000
51     H51    -2.4981   -3.4955    1.3586 H        1 ZINC000005442038    0.4000
52     H52    -0.8427   -6.3951    0.1630 H        1 ZINC000005442038    0.1500
53     H53    -0.3343   -8.7451   -0.3678 H        1 ZINC000005442038    0.1300
54     H54     0.0938   -9.4170   -2.6972 H        1 ZINC000005442038    0.1300
55     H55     0.0119   -7.7393   -4.4978 H        1 ZINC000005442038    0.1400
56     H56     2.8141   -4.0434   -3.7005 H        1 ZINC000005442038    0.0800
57     H57     3.6383   -1.1298   -3.3299 H        1 ZINC000005442038    0.0800
58     H58     3.5153   -2.0159   -4.8687 H        1 ZINC000005442038    0.0600
59     H59     2.0469   -1.6558   -3.9292 H        1 ZINC000005442038    0.0500
60     H60     4.8557   -4.4736   -2.3605 H        1 ZINC000005442038    0.0500
61     H61     5.2482   -3.5977   -3.8595 H        1 ZINC000005442038    0.0600
62     H62     5.1899   -2.7260   -2.3086 H        1 ZINC000005442038    0.0800
@<TRIPOS>BOND
1     1     2     1
2     1     29    1
3     1     30    1
4     1     31    1
5     2     3     2
6     2     4     am
7     4     5     1
8     4     26    1
9     5     6     1
10    5     32    1
11    5     33    1
12    6     7     1
13    6     34    1
14    6     35    1
15    7     8     1
16    7     16    1
17    7     19    1
18    8     9     1
19    8     36    1
20    8     37    1
21    9     10    1
22    9     38    1
23    9     39    1
24    10    15    1
25    10    11    1
26    11    12    1
27    11    40    1
28    11    41    1
29    12    13    1
30    12    42    1
31    12    43    1
32    13    14    1
33    13    44    1
34    13    45    1
35    14    15    1
36    14    46    1
37    14    47    1
38    15    48    1
39    15    49    1
40    16    17    am
41    16    18    2
42    17    50    1
43    17    51    1
44    19    24    ar
45    19    20    ar
46    20    21    ar
47    20    52    1
48    21    22    ar
49    21    53    1
50    22    23    ar
51    22    54    1
52    23    24    ar
53    23    55    1
54    24    25    1
55    26    27    1
56    26    28    1
57    26    56    1
58    27    57    1
59    27    58    1
60    27    59    1
61    28    60    1
62    28    61    1
63    28    62    1
@<TRIPOS>SUBSTRUCTURE
1   ZINC000005442038 1     RESIDUE    1   A     ZIN   1
