@<TRIPOS>MOLECULE
ZINC000000538211
  35   37    0    0    0
SMALL
USER_CHARGES
NO_NAME
@<TRIPOS>ATOM
    1 O1        0.0021    -0.0041     0.0020 O.co2  1 <0>      -0.6400
    2 C2       -0.0145     1.2150     0.0087 C.2    1 <0>       0.4900
    3 O3        1.0330     1.8389     0.0021 O.co2  1 <0>      -0.7100
    4 C4       -1.3296     1.9507     0.0190 C.3    1 <0>      -0.1300
    5 C5       -2.4617     0.9559     0.0189 C.2    1 <0>       0.1200
    6 N6       -2.2067    -0.3185     0.0162 N.2    1 <0>      -0.1200
    7 N7       -3.2102    -1.2876     0.0165 N.am   1 <0>      -0.4400
    8 C8       -2.8339    -2.7035     0.0137 C.3    1 <0>       0.1800
    9 C9       -2.7073    -3.1869    -1.4080 C.ar   1 <0>      -0.1400
   10 C10      -3.7401    -3.8957    -1.9914 C.ar   1 <0>      -0.0600
   11 C11      -3.6249    -4.3390    -3.2958 C.ar   1 <0>      -0.1200
   12 C12      -2.4756    -4.0740    -4.0182 C.ar   1 <0>      -0.0600
   13 Br13     -2.3193    -4.6810    -5.8023 Br     1 <0>      -0.0500
   14 C14      -1.4408    -3.3647    -3.4360 C.ar   1 <0>      -0.1400
   15 C15      -1.5582    -2.9158    -2.1319 C.ar   1 <0>       0.1400
   16 F16      -0.5483    -2.2224    -1.5622 F      1 <0>      -0.0800
   17 C17      -4.5181    -0.9558     0.0196 C.2    1 <0>       0.5200
   18 O18      -5.3773    -1.8192     0.0202 O.2    1 <0>      -0.5400
   19 C19      -4.8861     0.4657     0.0228 C.ar   1 <0>      -0.1300
   20 C20      -6.2157     0.8835     0.0262 C.ar   1 <0>      -0.0600
   21 C21      -6.5043     2.2307     0.0290 C.ar   1 <0>      -0.1300
   22 C22      -5.4853     3.1742     0.0281 C.ar   1 <0>      -0.0900
   23 C23      -4.1645     2.7845     0.0248 C.ar   1 <0>      -0.1000
   24 C24      -3.8475     1.4250     0.0280 C.ar   1 <0>      -0.0400
   25 H25      -1.3917     2.5717     0.9126 H      1 <0>       0.0800
   26 H26      -1.4001     2.5813    -0.8673 H      1 <0>       0.0800
   27 H27      -1.8796    -2.8268     0.5258 H      1 <0>       0.1100
   28 H28      -3.5999    -3.2840     0.5280 H      1 <0>       0.1000
   29 H29      -4.6377    -4.1038    -1.4279 H      1 <0>       0.1400
   30 H30      -4.4327    -4.8930    -3.7509 H      1 <0>       0.1400
   31 H31      -0.5432    -3.1577    -3.9999 H      1 <0>       0.1400
   32 H32      -7.0142     0.1563     0.0262 H      1 <0>       0.1400
   33 H33      -7.5340     2.5564     0.0316 H      1 <0>       0.1300
   34 H34      -5.7315     4.2257     0.0296 H      1 <0>       0.1300
   35 H35      -3.3790     3.5258     0.0242 H      1 <0>       0.1400
@<TRIPOS>BOND
   1    1    2 ar
   2    2    3 ar
   3    2    4 1
   4    4    5 1
   5    4   25 1
   6    4   26 1
   7    5   24 1
   8    5    6 2
   9    6    7 1
  10    7    8 1
  11    7   17 am
  12    8    9 1
  13    8   27 1
  14    8   28 1
  15    9   15 ar
  16    9   10 ar
  17   10   11 ar
  18   10   29 1
  19   11   12 ar
  20   11   30 1
  21   12   13 1
  22   12   14 ar
  23   14   15 ar
  24   14   31 1
  25   15   16 1
  26   17   18 2
  27   17   19 1
  28   19   24 ar
  29   19   20 ar
  30   20   21 ar
  31   20   32 1
  32   21   22 ar
  33   21   33 1
  34   22   23 ar
  35   22   34 1
  36   23   24 ar
  37   23   35 1
