@<TRIPOS>MOLECULE
ZINC000001650377
  54   54    0    0    0
SMALL
USER_CHARGES
NO_NAME
@<TRIPOS>ATOM
    1 C1        0.4994     1.6363     0.0570 C.3    1 <0>      -0.1200
    2 C2        0.2094     0.1577     0.0833 C.2    1 <0>      -0.1400
    3 C3        0.3599    -0.6170     1.3671 C.3    1 <0>      -0.1200
    4 C4       -0.1734    -0.4542    -1.0099 C.2    1 <0>      -0.1600
    5 C5       -0.2034     0.2910    -2.3195 C.3    1 <0>      -0.0900
    6 C6        0.6247    -0.4688    -3.3577 C.3    1 <0>      -0.0700
    7 C7        0.5947     0.2764    -4.6672 C.2    1 <0>      -0.1300
    8 C8       -0.5442     0.0616    -5.6305 C.3    1 <0>      -0.1200
    9 C9        1.5586     1.1109    -4.9682 C.2    1 <0>      -0.1600
   10 C10       1.4672     1.9487    -6.2175 C.3    1 <0>      -0.0900
   11 C11       1.6329     3.4257    -5.8542 C.3    1 <0>      -0.0700
   12 C12       1.5415     4.2636    -7.1035 C.2    1 <0>      -0.1300
   13 C13       2.7659     4.4845    -7.9539 C.3    1 <0>      -0.1200
   14 C14       0.3977     4.7999    -7.4502 C.2    1 <0>      -0.1300
   15 C15       0.2793     5.5439    -8.7554 C.3    1 <0>      -0.1700
   16 S16      -0.8537     4.6578    -9.8542 S.3    1 <0>       0.0400
   17 C17      -0.8059     5.7170   -11.2615 C.ar   1 <0>      -0.0700
   18 C18      -0.0129     6.8590   -11.2507 C.ar   1 <0>      -0.1600
   19 C19       0.0225     7.6862   -12.3537 C.ar   1 <0>      -0.1100
   20 C20      -0.7289     7.3884   -13.4805 C.ar   1 <0>      -0.1500
   21 C21      -1.5208     6.2626   -13.5124 C.ar   1 <0>      -0.0700
   22 C22      -1.5651     5.4091   -12.4047 C.ar   1 <0>      -0.1300
   23 C23      -2.4082     4.2054   -12.4312 C.2    1 <0>       0.5200
   24 O24      -3.0745     3.9468   -13.4244 O.co2  1 <0>      -0.6800
   25 O25      -2.4437     3.4618   -11.4599 O.co2  1 <0>      -0.6500
   26 H26       0.7142     1.9824     1.0681 H      1 <0>       0.0600
   27 H27       1.3612     1.8263    -0.5828 H      1 <0>       0.0700
   28 H28      -0.3674     2.1697    -0.3331 H      1 <0>       0.0700
   29 H29      -0.5851    -0.6072     1.9103 H      1 <0>       0.0600
   30 H30       0.6377    -1.6462     1.1400 H      1 <0>       0.0600
   31 H31       1.1358    -0.1579     1.9797 H      1 <0>       0.0600
   32 H32      -0.4676    -1.4927    -0.9727 H      1 <0>       0.1100
   33 H33      -1.2333     0.3745    -2.6665 H      1 <0>       0.0700
   34 H34       0.2149     1.2878    -2.1799 H      1 <0>       0.0700
   35 H35       1.6546    -0.5522    -3.0106 H      1 <0>       0.0600
   36 H36       0.2064    -1.4656    -3.4972 H      1 <0>       0.0700
   37 H37      -1.1958    -0.7264    -5.2528 H      1 <0>       0.0600
   38 H38      -1.1131     0.9858    -5.7323 H      1 <0>       0.0700
   39 H39      -0.1475    -0.2299    -6.6030 H      1 <0>       0.0700
   40 H40       2.4188     1.1983    -4.3211 H      1 <0>       0.1000
   41 H41       2.2552     1.6545    -6.9108 H      1 <0>       0.0700
   42 H42       0.4951     1.7968    -6.6865 H      1 <0>       0.0800
   43 H43       0.8450     3.7200    -5.1609 H      1 <0>       0.0700
   44 H44       2.6050     3.5777    -5.3851 H      1 <0>       0.0600
   45 H45       3.5959     3.9019    -7.5541 H      1 <0>       0.0600
   46 H46       2.5597     4.1687    -8.9766 H      1 <0>       0.0700
   47 H47       3.0277     5.5425    -7.9460 H      1 <0>       0.0600
   48 H48      -0.4603     4.7089    -6.8007 H      1 <0>       0.1100
   49 H49      -0.1056     6.5464    -8.5685 H      1 <0>       0.0800
   50 H50       1.2607     5.6131    -9.2246 H      1 <0>       0.0800
   51 H51       0.5756     7.0988   -10.3775 H      1 <0>       0.1200
   52 H52       0.6397     8.5724   -12.3395 H      1 <0>       0.1100
   53 H53      -0.6929     8.0438   -14.3382 H      1 <0>       0.1100
   54 H54      -2.1039     6.0365   -14.3929 H      1 <0>       0.1300
@<TRIPOS>BOND
   1    1    2 1
   2    1   26 1
   3    1   27 1
   4    1   28 1
   5    2    3 1
   6    2    4 2
   7    3   29 1
   8    3   30 1
   9    3   31 1
  10    4    5 1
  11    4   32 1
  12    5    6 1
  13    5   33 1
  14    5   34 1
  15    6    7 1
  16    6   35 1
  17    6   36 1
  18    7    8 1
  19    7    9 2
  20    8   37 1
  21    8   38 1
  22    8   39 1
  23    9   10 1
  24    9   40 1
  25   10   11 1
  26   10   41 1
  27   10   42 1
  28   11   12 1
  29   11   43 1
  30   11   44 1
  31   12   13 1
  32   12   14 2
  33   13   45 1
  34   13   46 1
  35   13   47 1
  36   14   15 1
  37   14   48 1
  38   15   16 1
  39   15   49 1
  40   15   50 1
  41   16   17 1
  42   17   22 ar
  43   17   18 ar
  44   18   19 ar
  45   18   51 1
  46   19   20 ar
  47   19   52 1
  48   20   21 ar
  49   20   53 1
  50   21   22 ar
  51   21   54 1
  52   22   23 1
  53   23   24 ar
  54   23   25 ar
