@<TRIPOS>MOLECULE
ZINC000009411212
37    39    1     0     0
SMALL
USER_CHARGES
@<TRIPOS>ATOM
1      C1     -0.0184    1.5028    0.0103 C.3      1 ZINC000009411212   -0.1400
2      C2      0.0021   -0.0041    0.0020 C.2      1 ZINC000009411212   -0.1100
3      C3     -1.1234   -0.6744    0.0092 C.2      1 ZINC000009411212   -0.1600
4      C4     -2.4960   -0.0124    0.0193 C.3      1 ZINC000009411212    0.0000
5      H5     -2.4107    1.0622    0.1805 H        1 ZINC000009411212    0.1300
6      C6     -3.3128   -0.6573    1.1072 C.2      1 ZINC000009411212   -0.1500
7      C7     -2.9958   -1.7670    1.6891 C.2      1 ZINC000009411212   -0.1000
8      C8     -3.9327   -2.2812    2.7516 C.3      1 ZINC000009411212   -0.1300
9      C9     -1.7747   -2.5860    1.3958 C.3      1 ZINC000009411212   -0.0800
10     C10    -1.1950   -2.1939    0.0017 C.3      1 ZINC000009411212    0.1700
11     N11     0.1361   -2.7824   -0.1982 N.4      1 ZINC000009411212   -0.6300
12     H12     0.0705   -3.7879   -0.1459 H        1 ZINC000009411212    0.4400
13     H13     0.4893   -2.5151   -1.1048 H        1 ZINC000009411212    0.4400
14     H14     0.7626   -2.4484    0.5187 H        1 ZINC000009411212    0.4400
15     C15    -2.1683   -2.6480   -1.0616 C.2      1 ZINC000009411212   -0.2400
16     C16    -3.0447   -1.8190   -1.6609 C.2      1 ZINC000009411212    0.2400
17     C17    -3.1253   -0.3148   -1.3442 C.3      1 ZINC000009411212   -0.0900
18     N18    -3.9060   -2.3095   -2.6048 N.am     1 ZINC000009411212   -0.6100
19     C19    -3.8946   -3.6012   -2.9676 C.2      1 ZINC000009411212    0.5200
20     O20    -4.6727   -4.0053   -3.8168 O.2      1 ZINC000009411212   -0.5100
21     C21    -2.9837   -4.4874   -2.3673 C.2      1 ZINC000009411212   -0.2000
22     C22    -2.1306   -4.0098   -1.4211 C.2      1 ZINC000009411212   -0.0500
23     H23     1.0042    1.8801    0.0026 H        1 ZINC000009411212    0.0800
24     H24    -0.5455    1.8639   -0.8728 H        1 ZINC000009411212    0.0800
25     H25    -0.5286    1.8543    0.9071 H        1 ZINC000009411212    0.0800
26     H26     0.9446   -0.5313   -0.0098 H        1 ZINC000009411212    0.1100
27     H27    -4.2197   -0.1618    1.4211 H        1 ZINC000009411212    0.1300
28     H28    -4.7711   -1.5933    2.8605 H        1 ZINC000009411212    0.0700
29     H29    -4.3045   -3.2644    2.4632 H        1 ZINC000009411212    0.0700
30     H30    -3.4001   -2.3578    3.6995 H        1 ZINC000009411212    0.0700
31     H31    -1.0272   -2.4108    2.1694 H        1 ZINC000009411212    0.1000
32     H32    -2.0418   -3.6428    1.3859 H        1 ZINC000009411212    0.1000
33     H33    -4.1717   -0.0114   -1.3100 H        1 ZINC000009411212    0.1100
34     H34    -2.6163    0.2445   -2.1291 H        1 ZINC000009411212    0.1100
35     H35    -4.5417   -1.7075   -3.0222 H        1 ZINC000009411212    0.4200
36     H36    -2.9616   -5.5290   -2.6517 H        1 ZINC000009411212    0.1600
37     H37    -1.4247   -4.6745   -0.9455 H        1 ZINC000009411212    0.1300
@<TRIPOS>BOND
1     1     2     1
2     1     23    1
3     1     24    1
4     1     25    1
5     2     3     2
6     2     26    1
7     3     10    1
8     3     4     1
9     4     5     1
10    4     17    1
11    4     6     1
12    6     7     2
13    6     27    1
14    7     8     1
15    7     9     1
16    8     28    1
17    8     29    1
18    8     30    1
19    9     10    1
20    9     31    1
21    9     32    1
22    10    11    1
23    10    15    1
24    11    12    1
25    11    13    1
26    11    14    1
27    15    22    1
28    15    16    2
29    16    17    1
30    16    18    1
31    17    33    1
32    17    34    1
33    18    19    am
34    18    35    1
35    19    20    2
36    19    21    1
37    21    22    2
38    21    36    1
39    22    37    1
@<TRIPOS>SUBSTRUCTURE
1   ZINC000009411212 1     RESIDUE    1   A     ZIN   1
