@<TRIPOS>MOLECULE
ZINC000012914519
66    70    1     0     0
SMALL
USER_CHARGES
@<TRIPOS>ATOM
1      C1     -1.1316    1.2371    0.7452 C.3      1 ZINC000012914519   -0.1900
2      C2     -0.8190   -0.2398    0.4964 C.3      1 ZINC000012914519   -0.0100
3      H3     -0.1178   -0.3280   -0.3334 H        1 ZINC000012914519    0.1500
4      C4     -2.1112   -0.9838    0.1534 C.3      1 ZINC000012914519    0.0600
5      N5     -2.7353   -0.3641   -1.0182 N.am     1 ZINC000012914519   -0.5400
6      C6     -2.6373   -0.9550   -2.2256 C.2      1 ZINC000012914519    0.5500
7      O7     -3.1359   -0.4294   -3.2016 O.2      1 ZINC000012914519   -0.4300
8      C8     -1.9234   -2.2426   -2.3628 C.ar     1 ZINC000012914519   -0.1000
9      C9     -0.8524   -2.5405   -1.5176 C.ar     1 ZINC000012914519   -0.1400
10     C10    -0.1876   -3.7399   -1.6450 C.ar     1 ZINC000012914519   -0.0800
11     C11    -0.5847   -4.6583   -2.6196 C.ar     1 ZINC000012914519    0.0200
12     C12     0.1061   -5.9057   -2.7519 C.1      1 ZINC000012914519    0.2300
13     N13     0.6541   -6.8952   -2.8568 N.1      1 ZINC000012914519   -0.3800
14     C14    -1.6560   -4.3601   -3.4649 C.ar     1 ZINC000012914519   -0.0600
15     C15    -2.3239   -3.1629   -3.3337 C.ar     1 ZINC000012914519   -0.0500
16     C16    -3.4300    0.8361   -0.8844 C.ar     1 ZINC000012914519    0.3500
17     C17    -3.7915    1.2852    0.3807 C.ar     1 ZINC000012914519   -0.2100
18     C18    -4.4809    2.4793    0.4994 C.ar     1 ZINC000012914519   -0.0500
19     C19    -4.7861    3.1855   -0.6559 C.ar     1 ZINC000012914519   -0.1900
20     C20    -4.3958    2.6798   -1.8805 C.ar     1 ZINC000012914519    0.1400
21     N21    -3.7351    1.5411   -1.9626 N.ar     1 ZINC000012914519   -0.4700
22     N22    -0.2233   -0.8246    1.7051 N.4      1 ZINC000012914519   -0.3800
23     H23    -0.9010   -0.8142    2.4526 H        1 ZINC000012914519    0.4200
24     C24     0.9531   -0.0389    2.1002 C.3      1 ZINC000012914519   -0.0100
25     C25     1.5630   -0.6366    3.3700 C.3      1 ZINC000012914519    0.0300
26     N26     1.9475   -2.0321    3.1155 N.3      1 ZINC000012914519   -0.4800
27     C27     2.5597   -2.5970    4.2404 C.ar     1 ZINC000012914519    0.0600
28     C28     1.8656   -2.6832    5.4388 C.ar     1 ZINC000012914519   -0.1400
29     C29     2.4703   -3.2407    6.5498 C.ar     1 ZINC000012914519   -0.1000
30     C30     3.7667   -3.7117    6.4716 C.ar     1 ZINC000012914519   -0.1000
31     C31     4.4694   -3.6285    5.2765 C.ar     1 ZINC000012914519    0.0600
32     C32     3.8641   -3.0782    4.1562 C.ar     1 ZINC000012914519    0.0800
33     O33     4.5326   -2.9939    2.9723 O.3      1 ZINC000012914519   -0.2900
34     C34     5.9569   -3.1300    3.0264 C.3      1 ZINC000012914519    0.0200
35     C35     6.2905   -4.3331    3.9189 C.3      1 ZINC000012914519    0.0200
36     O36     5.7473   -4.0939    5.2201 O.3      1 ZINC000012914519   -0.3000
37     C37     0.7841   -2.8256    2.6948 C.3      1 ZINC000012914519    0.0300
38     C38     0.1809   -2.2098    1.4304 C.3      1 ZINC000012914519   -0.0200
39     H39    -0.2110    1.7672    0.9895 H        1 ZINC000012914519    0.0900
40     H40    -1.5736    1.6711   -0.1517 H        1 ZINC000012914519    0.1100
41     H41    -1.8328    1.3253    1.5750 H        1 ZINC000012914519    0.0900
42     H42    -1.8827   -2.0268   -0.0657 H        1 ZINC000012914519    0.1400
43     H43    -2.7960   -0.9319    0.9999 H        1 ZINC000012914519    0.1100
44     H44    -0.5452   -1.8302   -0.7643 H        1 ZINC000012914519    0.1300
45     H45     0.6409   -3.9702   -0.9916 H        1 ZINC000012914519    0.1400
46     H46    -1.9629   -5.0700   -4.2187 H        1 ZINC000012914519    0.1500
47     H47    -3.1522   -2.9323   -3.9873 H        1 ZINC000012914519    0.1500
48     H48    -3.5380    0.7099    1.2588 H        1 ZINC000012914519    0.1300
49     H49    -4.7752    2.8530    1.4690 H        1 ZINC000012914519    0.1400
50     H50    -5.3234    4.1205   -0.5979 H        1 ZINC000012914519    0.1400
51     H51    -4.6310    3.2258   -2.7822 H        1 ZINC000012914519    0.1700
52     H52     1.6907   -0.0606    1.2979 H        1 ZINC000012914519    0.1400
53     H53     0.6542    0.9918    2.2911 H        1 ZINC000012914519    0.1400
54     H54     2.4447   -0.0626    3.6550 H        1 ZINC000012914519    0.1300
55     H55     0.8302   -0.6025    4.1763 H        1 ZINC000012914519    0.0700
56     H56     0.8526   -2.3143    5.5037 H        1 ZINC000012914519    0.1300
57     H57     1.9281   -3.3079    7.4814 H        1 ZINC000012914519    0.1400
58     H58     4.2354   -4.1456    7.3425 H        1 ZINC000012914519    0.1400
59     H59     6.3487   -3.2967    2.0230 H        1 ZINC000012914519    0.1300
60     H60     6.3968   -2.2262    3.4480 H        1 ZINC000012914519    0.0800
61     H61     5.8461   -5.2360    3.5001 H        1 ZINC000012914519    0.0800
62     H62     7.3718   -4.4521    3.9864 H        1 ZINC000012914519    0.1300
63     H63     1.0975   -3.8487    2.4871 H        1 ZINC000012914519    0.1300
64     H64     0.0385   -2.8277    3.4898 H        1 ZINC000012914519    0.0700
65     H65    -0.6907   -2.7884    1.1246 H        1 ZINC000012914519    0.1400
66     H66     0.9226   -2.2205    0.6317 H        1 ZINC000012914519    0.1400
@<TRIPOS>BOND
1     1     2     1
2     1     39    1
3     1     40    1
4     1     41    1
5     2     3     1
6     2     4     1
7     2     22    1
8     4     5     1
9     4     42    1
10    4     43    1
11    5     6     am
12    5     16    1
13    6     7     2
14    6     8     1
15    8     15    ar
16    8     9     ar
17    9     10    ar
18    9     44    1
19    10    11    ar
20    10    45    1
21    11    12    1
22    11    14    ar
23    12    13    3
24    14    15    ar
25    14    46    1
26    15    47    1
27    16    21    ar
28    16    17    ar
29    17    18    ar
30    17    48    1
31    18    19    ar
32    18    49    1
33    19    20    ar
34    19    50    1
35    20    21    ar
36    20    51    1
37    22    23    1
38    22    38    1
39    22    24    1
40    24    25    1
41    24    52    1
42    24    53    1
43    25    26    1
44    25    54    1
45    25    55    1
46    26    27    1
47    26    37    1
48    27    32    ar
49    27    28    ar
50    28    29    ar
51    28    56    1
52    29    30    ar
53    29    57    1
54    30    31    ar
55    30    58    1
56    31    36    1
57    31    32    ar
58    32    33    1
59    33    34    1
60    34    35    1
61    34    59    1
62    34    60    1
63    35    36    1
64    35    61    1
65    35    62    1
66    37    38    1
67    37    63    1
68    37    64    1
69    38    65    1
70    38    66    1
@<TRIPOS>SUBSTRUCTURE
1   ZINC000012914519 1     RESIDUE    1   A     ZIN   1
