@<TRIPOS>MOLECULE
ZINC000033943510
39    41    1     0     0
SMALL
USER_CHARGES
@<TRIPOS>ATOM
1      C1     -2.4799    5.9659    1.3558 C.1      1 ZINC000033943510   -0.0600
2      C2     -1.7913    5.1073    0.9474 C.1      1 ZINC000033943510   -0.3000
3      C3     -0.9278    4.0307    0.4353 C.3      1 ZINC000033943510    0.1300
4      N4      0.4430    4.5350    0.2792 N.4      1 ZINC000033943510   -0.3900
5      H5      0.7604    4.9231    1.1548 H        1 ZINC000033943510    0.4300
6      C6      0.4665    5.5774   -0.7556 C.3      1 ZINC000033943510   -0.0500
7      C7      1.3284    3.4317   -0.1169 C.3      1 ZINC000033943510    0.0300
8      C8      2.7553    3.9160   -0.1392 C.2      1 ZINC000033943510   -0.1300
9      C9      3.2365    4.2703   -1.2841 C.2      1 ZINC000033943510   -0.0200
10     C10     4.5925    4.7679   -1.5308 C.2      1 ZINC000033943510   -0.1100
11     C11     5.2280    4.3923   -2.6249 C.2      1 ZINC000033943510   -0.0600
12     C12     6.5796    4.9006   -2.9085 C.2      1 ZINC000033943510   -0.1300
13     C13     7.1560    5.7378   -2.0726 C.2      1 ZINC000033943510   -0.0800
14     C14     6.4513    6.1534   -0.8487 C.2      1 ZINC000033943510   -0.1200
15     C15     5.2470    5.6853   -0.5865 C.2      1 ZINC000033943510    0.1000
16     O16     4.6416    6.0293    0.5797 O.3      1 ZINC000033943510   -0.2700
17     C17     4.3778    5.0468    1.4796 C.2      1 ZINC000033943510    0.1000
18     C18     4.9561    5.0855    2.6637 C.2      1 ZINC000033943510   -0.1200
19     C19     4.7110    4.0131    3.6420 C.2      1 ZINC000033943510   -0.0800
20     C20     3.9160    3.0116    3.3311 C.2      1 ZINC000033943510   -0.1300
21     C21     3.2633    2.9728    2.0126 C.2      1 ZINC000033943510   -0.0900
22     C22     3.4674    3.9471    1.1411 C.2      1 ZINC000033943510   -0.0900
23     H23    -3.0959    6.7339    1.7211 H        1 ZINC000033943510    0.2400
24     H24    -0.9307    3.1975    1.1380 H        1 ZINC000033943510    0.1500
25     H25    -1.3028    3.6927   -0.5307 H        1 ZINC000033943510    0.1500
26     H26     1.4610    6.0212   -0.8017 H        1 ZINC000033943510    0.1200
27     H27     0.2204    5.1361   -1.7214 H        1 ZINC000033943510    0.1200
28     H28    -0.2645    6.3482   -0.5115 H        1 ZINC000033943510    0.1200
29     H29     1.2332    2.6147    0.5983 H        1 ZINC000033943510    0.1400
30     H30     1.0486    3.0799   -1.1099 H        1 ZINC000033943510    0.1400
31     H31     2.5796    4.1923   -2.1378 H        1 ZINC000033943510    0.1300
32     H32     4.7545    3.7091   -3.3145 H        1 ZINC000033943510    0.1400
33     H33     7.0985    4.5864   -3.8021 H        1 ZINC000033943510    0.1400
34     H34     8.1442    6.1190   -2.2839 H        1 ZINC000033943510    0.1400
35     H35     6.9221    6.8431   -0.1639 H        1 ZINC000033943510    0.1400
36     H36     5.6116    5.9058    2.9165 H        1 ZINC000033943510    0.1400
37     H37     5.1829    4.0481    4.6128 H        1 ZINC000033943510    0.1400
38     H38     3.7429    2.2181    4.0430 H        1 ZINC000033943510    0.1400
39     H39     2.6138    2.1485    1.7578 H        1 ZINC000033943510    0.1300
@<TRIPOS>BOND
1     1     2     3
2     1     23    1
3     2     3     1
4     3     4     1
5     3     24    1
6     3     25    1
7     4     5     1
8     4     6     1
9     4     7     1
10    6     26    1
11    6     27    1
12    6     28    1
13    7     8     1
14    7     29    1
15    7     30    1
16    8     22    1
17    8     9     2
18    9     10    1
19    9     31    1
20    10    15    1
21    10    11    2
22    11    12    1
23    11    32    1
24    12    13    2
25    12    33    1
26    13    14    1
27    13    34    1
28    14    15    2
29    14    35    1
30    15    16    1
31    16    17    1
32    17    22    1
33    17    18    2
34    18    19    1
35    18    36    1
36    19    20    2
37    19    37    1
38    20    21    1
39    20    38    1
40    21    22    2
41    21    39    1
@<TRIPOS>SUBSTRUCTURE
1   ZINC000033943510 1     RESIDUE    1   A     ZIN   1
