@<TRIPOS>MOLECULE
ZINC000013607514
59    62    1     0     0
SMALL
USER_CHARGES
@<TRIPOS>ATOM
1      C1     -2.0362   -0.4760   -0.3838 C.3      1 ZINC000013607514    0.0300
2      O2     -1.4213   -1.7735   -0.1680 O.3      1 ZINC000013607514   -0.3600
3      C3     -0.5466   -1.8724    0.8453 C.2      1 ZINC000013607514    0.4700
4      O4     -0.3028   -0.9068    1.5294 O.2      1 ZINC000013607514   -0.4900
5      C5      0.1320   -3.1890    1.1300 C.3      1 ZINC000013607514   -0.0700
6      H6      0.7041   -3.4942    0.2522 H        1 ZINC000013607514    0.1200
7      C7     -0.9314   -4.2388    1.4390 C.3      1 ZINC000013607514   -0.1100
8      C8     -0.3156   -5.5954    1.7749 C.3      1 ZINC000013607514    0.0400
9      H9      0.1222   -6.0348    0.8781 H        1 ZINC000013607514    0.1200
10     O10    -1.3374   -6.4827    2.3011 O.3      1 ZINC000013607514   -0.3300
11     C11    -1.1791   -7.7963    2.0749 C.2      1 ZINC000013607514    0.4600
12     C12    -2.1994   -8.7781    2.5908 C.3      1 ZINC000013607514   -0.1500
13     O13    -0.2185   -8.1916    1.4577 O.2      1 ZINC000013607514   -0.5100
14     C14     0.7717   -5.4066    2.8195 C.2      1 ZINC000013607514    0.3600
15     O15     0.7817   -6.0795    3.8163 O.2      1 ZINC000013607514   -0.4100
16     C16     1.8082   -4.3569    2.5074 C.3      1 ZINC000013607514   -0.1100
17     H17     2.2203   -4.6368    1.5026 H        1 ZINC000013607514    0.1000
18     C18     1.1037   -3.0190    2.3104 C.3      1 ZINC000013607514   -0.0200
19     C19     0.2787   -2.6134    3.5314 C.3      1 ZINC000013607514   -0.1700
20     C20     2.1061   -1.9133    1.9932 C.3      1 ZINC000013607514   -0.1200
21     C21     3.2389   -1.8856    3.0241 C.3      1 ZINC000013607514   -0.1000
22     C22     3.9539   -3.2281    3.0237 C.3      1 ZINC000013607514   -0.1300
23     H23     4.3081   -3.4429    2.0094 H        1 ZINC000013607514    0.1100
24     C24     5.1301   -3.2372    3.9635 C.2      1 ZINC000013607514    0.5000
25     O25     5.6745   -2.1830    4.2514 O.2      1 ZINC000013607514   -0.4700
26     O26     5.5781   -4.3824    4.4788 O.3      1 ZINC000013607514   -0.3500
27     C27     4.9514   -5.6606    4.2978 C.3      1 ZINC000013607514    0.1900
28     H28     4.5952   -6.0295    5.2728 H        1 ZINC000013607514    0.1100
29     C29     5.9794   -6.6479    3.8086 C.2      1 ZINC000013607514   -0.2000
30     C30     7.0117   -6.3890    2.9860 C.2      1 ZINC000013607514   -0.0100
31     O31     7.6941   -7.5289    2.7896 O.3      1 ZINC000013607514   -0.1700
32     C32     7.1118   -8.5238    3.4787 C.2      1 ZINC000013607514   -0.0300
33     C33     6.0475   -8.0228    4.1311 C.2      1 ZINC000013607514   -0.2000
34     C34     3.7811   -5.6529    3.3203 C.3      1 ZINC000013607514   -0.1500
35     C35     2.9850   -4.3424    3.4505 C.3      1 ZINC000013607514   -0.0300
36     C36     2.5908   -4.1634    4.9126 C.3      1 ZINC000013607514   -0.1700
37     H37    -1.2623    0.2628   -0.5918 H        1 ZINC000013607514    0.0700
38     H38    -2.7199   -0.5342   -1.2307 H        1 ZINC000013607514    0.1000
39     H39    -2.5881   -0.1824    0.5092 H        1 ZINC000013607514    0.0700
40     H40    -1.5775   -3.9118    2.2513 H        1 ZINC000013607514    0.1000
41     H41    -1.5662   -4.3600    0.5479 H        1 ZINC000013607514    0.1000
42     H42    -2.9871   -8.2400    3.1182 H        1 ZINC000013607514    0.0900
43     H43    -2.6316   -9.3264    1.7538 H        1 ZINC000013607514    0.1100
44     H44    -1.7175   -9.4779    3.2736 H        1 ZINC000013607514    0.1100
45     H45     0.9477   -2.3301    4.3440 H        1 ZINC000013607514    0.0700
46     H46    -0.3592   -1.7678    3.2744 H        1 ZINC000013607514    0.0900
47     H47    -0.3406   -3.4532    3.8467 H        1 ZINC000013607514    0.0500
48     H48     2.5269   -2.0808    0.9998 H        1 ZINC000013607514    0.0600
49     H49     1.6052   -0.9425    2.0085 H        1 ZINC000013607514    0.1100
50     H50     3.9539   -1.1033    2.7375 H        1 ZINC000013607514    0.0800
51     H51     2.8538   -1.6471    4.0100 H        1 ZINC000013607514    0.0800
52     H52     7.2508   -5.4276    2.5558 H        1 ZINC000013607514    0.2000
53     H53     7.4441   -9.5510    3.5075 H        1 ZINC000013607514    0.2100
54     H54     5.3704   -8.5678    4.7721 H        1 ZINC000013607514    0.1500
55     H55     4.1504   -5.7373    2.2968 H        1 ZINC000013607514    0.0800
56     H56     3.1153   -6.4909    3.5313 H        1 ZINC000013607514    0.1000
57     H57     3.4737   -4.2704    5.5427 H        1 ZINC000013607514    0.0600
58     H58     2.1614   -3.1716    5.0543 H        1 ZINC000013607514    0.0700
59     H59     1.8555   -4.9201    5.1860 H        1 ZINC000013607514    0.0900
@<TRIPOS>BOND
1     1     2     1
2     1     37    1
3     1     38    1
4     1     39    1
5     2     3     1
6     3     4     2
7     3     5     1
8     5     6     1
9     5     18    1
10    5     7     1
11    7     8     1
12    7     40    1
13    7     41    1
14    8     9     1
15    8     10    1
16    8     14    1
17    10    11    1
18    11    12    1
19    11    13    2
20    12    42    1
21    12    43    1
22    12    44    1
23    14    15    2
24    14    16    1
25    16    17    1
26    16    35    1
27    16    18    1
28    18    19    1
29    18    20    1
30    19    45    1
31    19    46    1
32    19    47    1
33    20    21    1
34    20    48    1
35    20    49    1
36    21    22    1
37    21    50    1
38    21    51    1
39    22    23    1
40    22    35    1
41    22    24    1
42    24    25    2
43    24    26    1
44    26    27    1
45    27    28    1
46    27    29    1
47    27    34    1
48    29    33    1
49    29    30    2
50    30    31    1
51    30    52    1
52    31    32    1
53    32    33    2
54    32    53    1
55    33    54    1
56    34    35    1
57    34    55    1
58    34    56    1
59    35    36    1
60    36    57    1
61    36    58    1
62    36    59    1
@<TRIPOS>SUBSTRUCTURE
1   ZINC000013607514 1     RESIDUE    1   A     ZIN   1
