@<TRIPOS>MOLECULE
ZINC000001534963
23    22    1     0     0
SMALL
USER_CHARGES
@<TRIPOS>ATOM
1      C1     -0.7076    1.3818    0.0802 C.3      1 ZINC000001534963   -0.1300
2      C2     -0.2070   -0.0385    0.0229 C.2      1 ZINC000001534963    0.0200
3      C3      0.1198   -0.6629    1.1271 C.2      1 ZINC000001534963   -0.2700
4      C4      0.1232    0.0784    2.4392 C.3      1 ZINC000001534963    0.0000
5      H5     -0.0708    1.1358    2.2596 H        1 ZINC000001534963    0.1200
6      N6     -0.9222   -0.4695    3.3138 N.4      1 ZINC000001534963   -0.6100
7      H7     -0.7892   -1.4646    3.4144 H        1 ZINC000001534963    0.4300
8      H8     -0.8671   -0.0296    4.2202 H        1 ZINC000001534963    0.4100
9      H9     -1.8284   -0.2907    2.9077 H        1 ZINC000001534963    0.4200
10     C10     1.4671   -0.0803    3.1024 C.2      1 ZINC000001534963    0.5000
11     O11     2.3558    0.7240    2.8791 O.co2    1 ZINC000001534963   -0.6600
12     O12     1.6656   -1.0129    3.8622 O.co2    1 ZINC000001534963   -0.6800
13     C13    -0.0822   -0.7404   -1.3048 C.3      1 ZINC000001534963   -0.7000
14     P14    -1.6887   -1.4731   -1.7582 P.3      1 ZINC000001534963    2.2000
15     O15    -2.1815   -2.4077   -0.6013 O.co2    1 ZINC000001534963   -1.1700
16     O16    -2.7366   -0.3317   -1.9896 O.co2    1 ZINC000001534963   -1.1700
17     O17    -1.5287   -2.3097   -3.0731 O.co2    1 ZINC000001534963   -1.1800
18     H18     0.1409    2.0659    0.0937 H        1 ZINC000001534963    0.0600
19     H19    -1.3245    1.5852   -0.7951 H        1 ZINC000001534963    0.0900
20     H20    -1.3013    1.5215    0.9836 H        1 ZINC000001534963    0.0500
21     H21     0.3868   -1.7090    1.0972 H        1 ZINC000001534963    0.1200
22     H22     0.2183   -0.0228   -2.0684 H        1 ZINC000001534963    0.0700
23     H23     0.6682   -1.5275   -1.2306 H        1 ZINC000001534963    0.0600
@<TRIPOS>BOND
1     1     2     1
2     1     18    1
3     1     19    1
4     1     20    1
5     2     3     2
6     2     13    1
7     3     4     1
8     3     21    1
9     4     5     1
10    4     6     1
11    4     10    1
12    6     7     1
13    6     8     1
14    6     9     1
15    10    11    ar
16    10    12    ar
17    13    14    1
18    13    22    1
19    13    23    1
20    14    15    ar
21    14    16    ar
22    14    17    ar
@<TRIPOS>SUBSTRUCTURE
1   ZINC000001534963 1     RESIDUE    1   A     ZIN   1
