@<TRIPOS>MOLECULE
ZINC000019313075
42    44    1     0     0
SMALL
USER_CHARGES
@<TRIPOS>ATOM
1      C1     -0.0187    1.5258    0.0104 C.3      1 ZINC000019313075   -0.1500
2      C2      0.0021   -0.0041    0.0020 C.3      1 ZINC000019313075    0.0600
3      O3      0.6932   -0.4774    1.1597 O.3      1 ZINC000019313075   -0.3500
4      C4      0.8012   -1.8144    1.3046 C.2      1 ZINC000019313075    0.5400
5      O5      0.3209   -2.5575    0.4696 O.2      1 ZINC000019313075   -0.5000
6      C6      1.4956   -2.3704    2.4654 C.2      1 ZINC000019313075   -0.2600
7      C7      0.8675   -2.6792    3.6436 C.2      1 ZINC000019313075    0.1400
8      N8     -0.4821   -2.5075    3.8826 N.pl3    1 ZINC000019313075   -0.8300
9      S9      1.9787   -3.3046    4.7724 S.3      1 ZINC000019313075    0.1900
10     C10     3.3242   -3.1569    3.6567 C.2      1 ZINC000019313075   -0.2400
11     C11     2.9176   -2.6564    2.4838 C.2      1 ZINC000019313075   -0.0100
12     C12     3.8687   -2.4162    1.3216 C.3      1 ZINC000019313075   -0.0600
13     C13     5.3015   -2.4411    1.8634 C.3      1 ZINC000019313075    0.0600
14     N14     5.4909   -3.6465    2.6832 N.3      1 ZINC000019313075   -0.5300
15     C15     6.9180   -3.9061    2.9156 C.3      1 ZINC000019313075    0.1000
16     C16     7.0856   -5.2667    3.5415 C.ar     1 ZINC000019313075   -0.0800
17     C17     7.0686   -5.4016    4.9171 C.ar     1 ZINC000019313075   -0.1200
18     C18     7.2224   -6.6496    5.4912 C.ar     1 ZINC000019313075   -0.1200
19     C19     7.3927   -7.7629    4.6896 C.ar     1 ZINC000019313075   -0.1200
20     C20     7.4088   -7.6281    3.3139 C.ar     1 ZINC000019313075   -0.1200
21     C21     7.2508   -6.3806    2.7397 C.ar     1 ZINC000019313075   -0.1000
22     C22     4.7601   -3.5427    3.9534 C.3      1 ZINC000019313075    0.1400
23     H23     1.0039    1.9031    0.0027 H        1 ZINC000019313075    0.0700
24     H24    -0.5459    1.8868   -0.8726 H        1 ZINC000019313075    0.0800
25     H25    -0.5289    1.8773    0.9072 H        1 ZINC000019313075    0.0700
26     H26    -1.0205   -0.3814    0.0098 H        1 ZINC000019313075    0.0700
27     H27     0.5123   -0.3556   -0.8948 H        1 ZINC000019313075    0.0700
28     H28    -1.0552   -2.1449    3.1890 H        1 ZINC000019313075    0.4100
29     H29    -0.8568   -2.7494    4.7440 H        1 ZINC000019313075    0.4100
30     H30     3.7437   -3.2012    0.5758 H        1 ZINC000019313075    0.0900
31     H31     3.6623   -1.4448    0.8722 H        1 ZINC000019313075    0.0800
32     H32     6.0050   -2.4532    1.0310 H        1 ZINC000019313075    0.0900
33     H33     5.4750   -1.5550    2.4740 H        1 ZINC000019313075    0.0400
34     H34     7.4524   -3.8745    1.9661 H        1 ZINC000019313075    0.0900
35     H35     7.3212   -3.1461    3.5849 H        1 ZINC000019313075    0.0500
36     H36     6.9356   -4.5318    5.5434 H        1 ZINC000019313075    0.1200
37     H37     7.2098   -6.7549    6.5660 H        1 ZINC000019313075    0.1200
38     H38     7.5136   -8.7379    5.1381 H        1 ZINC000019313075    0.1200
39     H39     7.5422   -8.4978    2.6877 H        1 ZINC000019313075    0.1200
40     H40     7.2633   -6.2753    1.6650 H        1 ZINC000019313075    0.1200
41     H41     5.2182   -2.7755    4.5775 H        1 ZINC000019313075    0.0500
42     H42     4.7862   -4.5022    4.4700 H        1 ZINC000019313075    0.0900
@<TRIPOS>BOND
1     1     2     1
2     1     23    1
3     1     24    1
4     1     25    1
5     2     3     1
6     2     26    1
7     2     27    1
8     3     4     1
9     4     5     2
10    4     6     1
11    6     11    1
12    6     7     2
13    7     8     1
14    7     9     1
15    8     28    1
16    8     29    1
17    9     10    1
18    10    22    1
19    10    11    2
20    11    12    1
21    12    13    1
22    12    30    1
23    12    31    1
24    13    14    1
25    13    32    1
26    13    33    1
27    14    15    1
28    14    22    1
29    15    16    1
30    15    34    1
31    15    35    1
32    16    21    ar
33    16    17    ar
34    17    18    ar
35    17    36    1
36    18    19    ar
37    18    37    1
38    19    20    ar
39    19    38    1
40    20    21    ar
41    20    39    1
42    21    40    1
43    22    41    1
44    22    42    1
@<TRIPOS>SUBSTRUCTURE
1   ZINC000019313075 1     RESIDUE    1   A     ZIN   1
