@<TRIPOS>MOLECULE
ZINC000013984697
80    83    1     0     0
SMALL
USER_CHARGES
@<TRIPOS>ATOM
1      C1     -0.0173    1.4248    0.0099 C.3      1 ZINC000013984697    0.0200
2      O2      0.0021   -0.0041    0.0020 O.3      1 ZINC000013984697   -0.2800
3      C3      0.6248   -0.6174    1.0398 C.ar     1 ZINC000013984697    0.2500
4      C4      1.1998    0.1363    2.0471 C.ar     1 ZINC000013984697   -0.3000
5      C5      1.8366   -0.4932    3.1092 C.ar     1 ZINC000013984697    0.3100
6      N6      2.4136    0.2677    4.1209 N.pl3    1 ZINC000013984697   -0.8500
7      C7      1.8991   -1.8851    3.1649 C.ar     1 ZINC000013984697   -0.1600
8      Cl8     2.6970   -2.6629    4.4961 Cl       1 ZINC000013984697   -0.0600
9      C9      1.3300   -2.6439    2.1685 C.ar     1 ZINC000013984697    0.0100
10     C10     0.6824   -2.0186    1.0975 C.ar     1 ZINC000013984697   -0.2400
11     C11     0.0722   -2.8275    0.0293 C.2      1 ZINC000013984697    0.5800
12     O12    -0.4903   -2.2818   -0.9008 O.2      1 ZINC000013984697   -0.5100
13     N13     0.1370   -4.1727    0.0822 N.am     1 ZINC000013984697   -0.7300
14     C14    -0.4701   -4.9776   -0.9807 C.3      1 ZINC000013984697    0.1400
15     H15    -0.3619   -4.4623   -1.9351 H        1 ZINC000013984697    0.1200
16     C16    -1.9565   -5.1881   -0.6780 C.3      1 ZINC000013984697   -0.1500
17     C17    -2.0992   -5.9796    0.6237 C.3      1 ZINC000013984697   -0.0100
18     N18    -1.4376   -7.2824    0.4836 N.4      1 ZINC000013984697   -0.3800
19     H19    -1.8331   -7.7765   -0.3022 H        1 ZINC000013984697    0.4200
20     C20    -1.6424   -8.0682    1.7077 C.3      1 ZINC000013984697   -0.0100
21     C21    -3.1308   -8.3844    1.8676 C.3      1 ZINC000013984697   -0.1500
22     C22    -3.3442   -9.2029    3.1426 C.3      1 ZINC000013984697   -0.1200
23     C23    -4.8326   -9.5191    3.3025 C.3      1 ZINC000013984697   -0.1100
24     C24    -5.0460  -10.3376    4.5775 C.3      1 ZINC000013984697   -0.1200
25     C25    -6.5120  -10.6490    4.7350 C.2      1 ZINC000013984697    0.4600
26     O26    -7.3048  -10.2567    3.9120 O.2      1 ZINC000013984697   -0.4900
27     O27    -6.9370  -11.3624    5.7896 O.3      1 ZINC000013984697   -0.3400
28     C28    -8.3625  -11.6245    5.8769 C.3      1 ZINC000013984697    0.0800
29     H29    -8.9132  -10.8083    5.4095 H        1 ZINC000013984697    0.1200
30     C30    -8.6870  -12.9379    5.1616 C.3      1 ZINC000013984697   -0.0200
31     N31    -9.2826  -13.8882    6.1039 N.4      1 ZINC000013984697   -0.3700
32     H32    -9.4909  -14.7418    5.6077 H        1 ZINC000013984697    0.4300
33     C33    -8.3449  -14.1980    7.1857 C.3      1 ZINC000013984697   -0.0100
34     C34    -8.0088  -12.9265    7.9681 C.3      1 ZINC000013984697   -0.1400
35     C35    -8.7739  -11.7451    7.3501 C.3      1 ZINC000013984697   -0.1000
36     C36   -10.2750  -12.0572    7.4091 C.3      1 ZINC000013984697   -0.1400
37     C37   -10.5313  -13.3553    6.6537 C.3      1 ZINC000013984697   -0.0100
38     C38     0.0009   -7.0894    0.2645 C.3      1 ZINC000013984697   -0.0400
39     C39     0.2258   -6.3399   -1.0524 C.3      1 ZINC000013984697    0.0700
40     H40    -0.1912   -6.9188   -1.8765 H        1 ZINC000013984697    0.1000
41     O41     1.6269   -6.1527   -1.2617 O.3      1 ZINC000013984697   -0.3500
42     C42     2.2535   -7.2142   -1.9846 C.3      1 ZINC000013984697    0.0200
43     H43     1.0053    1.8021    0.0021 H        1 ZINC000013984697    0.0600
44     H44    -0.5445    1.7859   -0.8732 H        1 ZINC000013984697    0.1100
45     H45    -0.5275    1.7763    0.9067 H        1 ZINC000013984697    0.0600
46     H46     1.1540    1.2146    2.0077 H        1 ZINC000013984697    0.1500
47     H47     2.3708    1.2361    4.0840 H        1 ZINC000013984697    0.4100
48     H48     2.8587   -0.1701    4.8633 H        1 ZINC000013984697    0.4100
49     H49     1.3799   -3.7217    2.2148 H        1 ZINC000013984697    0.1300
50     H50     0.5856   -4.6079    0.8240 H        1 ZINC000013984697    0.3900
51     H51    -2.4468   -4.2205   -0.5713 H        1 ZINC000013984697    0.1300
52     H52    -2.4190   -5.7432   -1.4941 H        1 ZINC000013984697    0.1000
53     H53    -1.6366   -5.4235    1.4391 H        1 ZINC000013984697    0.1300
54     H54    -3.1563   -6.1311    0.8423 H        1 ZINC000013984697    0.1400
55     H55    -1.0785   -8.9985    1.6409 H        1 ZINC000013984697    0.1300
56     H56    -1.2981   -7.4956    2.5689 H        1 ZINC000013984697    0.1300
57     H57    -3.6948   -7.4541    1.9345 H        1 ZINC000013984697    0.0900
58     H58    -3.4752   -8.9570    1.0064 H        1 ZINC000013984697    0.0900
59     H59    -2.7802  -10.1332    3.0758 H        1 ZINC000013984697    0.0800
60     H60    -2.9998   -8.6303    4.0038 H        1 ZINC000013984697    0.0800
61     H61    -5.3966   -8.5888    3.3693 H        1 ZINC000013984697    0.0800
62     H62    -5.1770  -10.0917    2.4413 H        1 ZINC000013984697    0.0800
63     H63    -4.4820  -11.2679    4.5107 H        1 ZINC000013984697    0.1100
64     H64    -4.7016   -9.7650    5.4387 H        1 ZINC000013984697    0.1100
65     H65    -9.3893  -12.7442    4.3508 H        1 ZINC000013984697    0.1400
66     H66    -7.7708  -13.3620    4.7507 H        1 ZINC000013984697    0.1400
67     H67    -8.7965  -14.9276    7.8579 H        1 ZINC000013984697    0.1400
68     H68    -7.4306  -14.6151    6.7634 H        1 ZINC000013984697    0.1300
69     H69    -8.3065  -13.0490    9.0095 H        1 ZINC000013984697    0.1100
70     H70    -6.9370  -12.7360    7.9125 H        1 ZINC000013984697    0.1100
71     H71    -8.5435  -10.8243    7.8858 H        1 ZINC000013984697    0.1300
72     H72   -10.5827  -12.1768    8.4479 H        1 ZINC000013984697    0.1100
73     H73   -10.8358  -11.2423    6.9515 H        1 ZINC000013984697    0.1100
74     H74   -11.2213  -13.1652    5.8316 H        1 ZINC000013984697    0.1300
75     H75   -10.9715  -14.0871    7.3311 H        1 ZINC000013984697    0.1400
76     H76     0.4188   -6.5097    1.0876 H        1 ZINC000013984697    0.1300
77     H77     0.4943   -8.0602    0.2179 H        1 ZINC000013984697    0.1400
78     H78     1.7911   -7.3070   -2.9673 H        1 ZINC000013984697    0.0600
79     H79     3.3152   -6.9968   -2.1017 H        1 ZINC000013984697    0.1100
80     H80     2.1322   -8.1483   -1.4363 H        1 ZINC000013984697    0.0500
@<TRIPOS>BOND
1     1     2     1
2     1     43    1
3     1     44    1
4     1     45    1
5     2     3     1
6     3     10    ar
7     3     4     ar
8     4     5     ar
9     4     46    1
10    5     6     1
11    5     7     ar
12    6     47    1
13    6     48    1
14    7     8     1
15    7     9     ar
16    9     10    ar
17    9     49    1
18    10    11    1
19    11    12    2
20    11    13    am
21    13    14    1
22    13    50    1
23    14    15    1
24    14    39    1
25    14    16    1
26    16    17    1
27    16    51    1
28    16    52    1
29    17    18    1
30    17    53    1
31    17    54    1
32    18    19    1
33    18    20    1
34    18    38    1
35    20    21    1
36    20    55    1
37    20    56    1
38    21    22    1
39    21    57    1
40    21    58    1
41    22    23    1
42    22    59    1
43    22    60    1
44    23    24    1
45    23    61    1
46    23    62    1
47    24    25    1
48    24    63    1
49    24    64    1
50    25    26    2
51    25    27    1
52    27    28    1
53    28    29    1
54    28    35    1
55    28    30    1
56    30    31    1
57    30    65    1
58    30    66    1
59    31    32    1
60    31    37    1
61    31    33    1
62    33    34    1
63    33    67    1
64    33    68    1
65    34    35    1
66    34    69    1
67    34    70    1
68    35    36    1
69    35    71    1
70    36    37    1
71    36    72    1
72    36    73    1
73    37    74    1
74    37    75    1
75    38    39    1
76    38    76    1
77    38    77    1
78    39    40    1
79    39    41    1
80    41    42    1
81    42    78    1
82    42    79    1
83    42    80    1
@<TRIPOS>SUBSTRUCTURE
1   ZINC000013984697 1     RESIDUE    1   A     ZIN   1
