@<TRIPOS>MOLECULE
ZINC000014690081
50    51    1     0     0
SMALL
USER_CHARGES
@<TRIPOS>ATOM
1      C1      0.4515    1.4705    0.0275 C.3      1 ZINC000014690081   -0.1200
2      C2      0.2271   -0.0196    0.0103 C.ar     1 ZINC000014690081   -0.0800
3      C3      0.2318   -0.7012   -1.1920 C.ar     1 ZINC000014690081   -0.0900
4      C4      0.0278   -2.0710   -1.2276 C.ar     1 ZINC000014690081   -0.1000
5      C5     -0.1846   -2.7723   -0.0415 C.ar     1 ZINC000014690081   -0.0400
6      C6     -0.4018   -4.2236   -0.0620 C.2      1 ZINC000014690081   -0.0200
7      C7     -0.6089   -4.9265    1.0671 C.2      1 ZINC000014690081   -0.1800
8      C8     -0.8254   -6.4150    0.9757 C.3      1 ZINC000014690081   -0.0400
9      C9      0.2625   -7.1385    1.7719 C.3      1 ZINC000014690081   -0.1500
10     C10    -2.1984   -6.7671    1.5518 C.3      1 ZINC000014690081   -0.1500
11     C11    -0.6281   -4.3040    2.3378 C.2      1 ZINC000014690081    0.3600
12     O12    -0.8166   -4.9634    3.3408 O.2      1 ZINC000014690081   -0.3900
13     C13    -0.4136   -2.8248    2.4349 C.2      1 ZINC000014690081    0.3600
14     O14    -0.4238   -2.2611    3.5091 O.2      1 ZINC000014690081   -0.3800
15     C15    -0.1886   -2.0731    1.1830 C.ar     1 ZINC000014690081   -0.1500
16     C16     0.0229   -0.6997    1.2013 C.ar     1 ZINC000014690081   -0.0100
17     C17     0.0263    0.0480    2.5097 C.3      1 ZINC000014690081   -0.1000
18     C18    -1.4110    0.3957    2.9023 C.3      1 ZINC000014690081   -0.1300
19     C19    -1.4075    1.1547    4.2307 C.3      1 ZINC000014690081    0.0800
20     H20    -0.8814    0.5675    4.9833 H        1 ZINC000014690081    0.1100
21     O21    -0.7480    2.4109    4.0598 O.3      1 ZINC000014690081   -0.5500
22     C22    -2.8487    1.3932    4.6856 C.3      1 ZINC000014690081    0.1000
23     C23    -3.5549    0.0483    4.8686 C.3      1 ZINC000014690081   -0.1400
24     C24    -2.8453    2.1523    6.0140 C.3      1 ZINC000014690081   -0.1800
25     O25    -3.5385    2.1630    3.6989 O.3      1 ZINC000014690081   -0.5500
26     H26     1.5181    1.6763    0.1177 H        1 ZINC000014690081    0.0800
27     H27     0.0745    1.9054   -0.8981 H        1 ZINC000014690081    0.0700
28     H28    -0.0758    1.9075    0.8755 H        1 ZINC000014690081    0.0800
29     H29     0.3957   -0.1607   -2.1125 H        1 ZINC000014690081    0.1400
30     H30     0.0329   -2.5945   -2.1722 H        1 ZINC000014690081    0.1400
31     H31    -0.3956   -4.7420   -1.0095 H        1 ZINC000014690081    0.1400
32     H32    -0.7789   -6.7256   -0.0681 H        1 ZINC000014690081    0.0800
33     H33     0.2160   -6.8280    2.8157 H        1 ZINC000014690081    0.0700
34     H34     0.1060   -8.2151    1.7058 H        1 ZINC000014690081    0.0600
35     H35     1.2407   -6.8877    1.3615 H        1 ZINC000014690081    0.0500
36     H36    -2.9734   -6.2517    0.9845 H        1 ZINC000014690081    0.0500
37     H37    -2.3549   -7.8437    1.4857 H        1 ZINC000014690081    0.0600
38     H38    -2.2449   -6.4566    2.5956 H        1 ZINC000014690081    0.0700
39     H39     0.4735   -0.5759    3.2836 H        1 ZINC000014690081    0.1000
40     H40     0.6057    0.9651    2.4027 H        1 ZINC000014690081    0.0800
41     H41    -1.8582    1.0196    2.1284 H        1 ZINC000014690081    0.0700
42     H42    -1.9903   -0.5214    3.0093 H        1 ZINC000014690081    0.0800
43     H43    -1.1629    2.9868    3.4031 H        1 ZINC000014690081    0.3700
44     H44    -3.0288   -0.5389    5.6212 H        1 ZINC000014690081    0.0700
45     H45    -4.5817    0.2181    5.1927 H        1 ZINC000014690081    0.0700
46     H46    -3.5574   -0.4925    3.9222 H        1 ZINC000014690081    0.0600
47     H47    -2.3422    3.1104    5.8837 H        1 ZINC000014690081    0.0700
48     H48    -3.8720    2.3221    6.3381 H        1 ZINC000014690081    0.0600
49     H49    -2.3191    1.5651    6.7666 H        1 ZINC000014690081    0.0700
50     H50    -3.1451    3.0303    3.5309 H        1 ZINC000014690081    0.3700
@<TRIPOS>BOND
1     1     2     1
2     1     26    1
3     1     27    1
4     1     28    1
5     2     16    ar
6     2     3     ar
7     3     4     ar
8     3     29    1
9     4     5     ar
10    4     30    1
11    5     15    ar
12    5     6     1
13    6     7     2
14    6     31    1
15    7     8     1
16    7     11    1
17    8     9     1
18    8     10    1
19    8     32    1
20    9     33    1
21    9     34    1
22    9     35    1
23    10    36    1
24    10    37    1
25    10    38    1
26    11    12    2
27    11    13    1
28    13    14    2
29    13    15    1
30    15    16    ar
31    16    17    1
32    17    18    1
33    17    39    1
34    17    40    1
35    18    19    1
36    18    41    1
37    18    42    1
38    19    20    1
39    19    21    1
40    19    22    1
41    21    43    1
42    22    23    1
43    22    24    1
44    22    25    1
45    23    44    1
46    23    45    1
47    23    46    1
48    24    47    1
49    24    48    1
50    24    49    1
51    25    50    1
@<TRIPOS>SUBSTRUCTURE
1   ZINC000014690081 1     RESIDUE    1   A     ZIN   1
