@<TRIPOS>MOLECULE
ZINC000001541054
  54   56    0    0    0
SMALL
USER_CHARGES
NO_NAME
@<TRIPOS>ATOM
    1 C1       -0.2393     1.9279     0.2988 C.3    1 <0>      -0.1100
    2 C2       -0.3521     0.4255     0.2655 C.ar   1 <0>      -0.0800
    3 C3       -0.4874    -0.2302    -0.9446 C.ar   1 <0>      -0.1200
    4 C4       -0.5911    -1.6054    -0.9824 C.ar   1 <0>      -0.0900
    5 C5       -0.5596    -2.3397     0.2043 C.ar   1 <0>      -0.0600
    6 C6       -0.6489    -3.7999     0.4527 C.ar   1 <0>      -0.0500
    7 C7       -0.7903    -4.8750    -0.4262 C.ar   1 <0>      -0.0900
    8 C8       -0.8489    -6.1631     0.0646 C.ar   1 <0>      -0.1200
    9 C9       -0.7685    -6.3945     1.4257 C.ar   1 <0>      -0.0800
   10 C10      -0.8338    -7.8042     1.9544 C.3    1 <0>      -0.1100
   11 C11      -0.6278    -5.3334     2.3029 C.ar   1 <0>      -0.0900
   12 C12      -0.5683    -4.0431     1.8214 C.ar   1 <0>      -0.0800
   13 C13      -0.4203    -2.7096     2.5120 C.3    1 <0>      -0.0100
   14 C14       0.9004    -2.6594     3.2829 C.3    1 <0>       0.1100
   15 O15       0.9744    -1.4202     4.0361 O.3    1 <0>      -0.3700
   16 C16       2.0822    -1.2188     4.7742 C.2    1 <0>       0.6500
   17 O17       2.9632    -2.0555     4.7885 O.2    1 <0>      -0.5800
   18 N18       2.2141    -0.0890     5.4972 N.am   1 <0>      -0.6700
   19 C19       3.4195     0.1302     6.3003 C.3    1 <0>       0.0900
   20 H20       4.2815    -0.2936     5.7850 H      1 <0>       0.0900
   21 C21       3.6328     1.6320     6.5006 C.3    1 <0>      -0.1100
   22 C22       3.8812     2.2971     5.1453 C.3    1 <0>      -0.1000
   23 C23       3.9495     3.8148     5.3269 C.3    1 <0>      -0.1400
   24 C24       5.2039     1.7929     4.5646 C.3    1 <0>      -0.1500
   25 C25       3.2578    -0.5375     7.6416 C.2    1 <0>       0.4900
   26 O26       4.2358    -0.9623     8.2329 O.co2  1 <0>      -0.6900
   27 O27       2.1491    -0.6530     8.1353 O.co2  1 <0>      -0.6900
   28 C28      -0.4231    -1.6705     1.4177 C.ar   1 <0>      -0.0700
   29 C29      -0.3144    -0.2965     1.4456 C.ar   1 <0>      -0.0900
   30 H30       0.8098     2.2152     0.2283 H      1 <0>       0.0700
   31 H31      -0.7895     2.3522    -0.5411 H      1 <0>       0.0700
   32 H32      -0.6568     2.3030     1.2332 H      1 <0>       0.0700
   33 H33      -0.5124     0.3366    -1.8636 H      1 <0>       0.1200
   34 H34      -0.6970    -2.1135    -1.9295 H      1 <0>       0.1200
   35 H35      -0.8542    -4.6986    -1.4898 H      1 <0>       0.1200
   36 H36      -0.9583    -6.9939    -0.6167 H      1 <0>       0.1300
   37 H37       0.1728    -8.2189     2.0087 H      1 <0>       0.0700
   38 H38      -1.2787    -7.7989     2.9494 H      1 <0>       0.0700
   39 H39      -1.4426    -8.4146     1.2874 H      1 <0>       0.0700
   40 H40      -0.5652    -5.5163     3.3655 H      1 <0>       0.1300
   41 H41      -1.2569    -2.5435     3.1907 H      1 <0>       0.1100
   42 H42       0.9533    -3.5050     3.9685 H      1 <0>       0.0800
   43 H43       1.7329    -2.7081     2.5809 H      1 <0>       0.0700
   44 H44       1.5108     0.5790     5.4857 H      1 <0>       0.4000
   45 H45       2.7458     2.0666     6.9615 H      1 <0>       0.0700
   46 H46       4.4947     1.7934     7.1480 H      1 <0>       0.0800
   47 H47       3.0672     2.0489     4.4642 H      1 <0>       0.0700
   48 H48       4.7298     4.0597     6.0474 H      1 <0>       0.0500
   49 H49       4.1774     4.2852     4.3704 H      1 <0>       0.0500
   50 H50       2.9899     4.1805     5.6922 H      1 <0>       0.0500
   51 H51       5.1552     0.7117     4.4352 H      1 <0>       0.0600
   52 H52       5.3808     2.2668     3.5990 H      1 <0>       0.0500
   53 H53       6.0178     2.0411     5.2457 H      1 <0>       0.0500
   54 H54      -0.2033     0.2170     2.3891 H      1 <0>       0.1300
@<TRIPOS>BOND
   1    1    2 1
   2    1   30 1
   3    1   31 1
   4    1   32 1
   5    2   29 ar
   6    2    3 ar
   7    3    4 ar
   8    3   33 1
   9    4    5 ar
  10    4   34 1
  11    5   28 ar
  12    5    6 1
  13    6   12 ar
  14    6    7 ar
  15    7    8 ar
  16    7   35 1
  17    8    9 ar
  18    8   36 1
  19    9   10 1
  20    9   11 ar
  21   10   37 1
  22   10   38 1
  23   10   39 1
  24   11   12 ar
  25   11   40 1
  26   12   13 1
  27   13   14 1
  28   13   28 1
  29   13   41 1
  30   14   15 1
  31   14   42 1
  32   14   43 1
  33   15   16 1
  34   16   17 2
  35   16   18 am
  36   18   19 1
  37   18   44 1
  38   19   20 1
  39   19   21 1
  40   19   25 1
  41   21   22 1
  42   21   45 1
  43   21   46 1
  44   22   23 1
  45   22   24 1
  46   22   47 1
  47   23   48 1
  48   23   49 1
  49   23   50 1
  50   24   51 1
  51   24   52 1
  52   24   53 1
  53   25   26 ar
  54   25   27 ar
  55   28   29 ar
  56   29   54 1
