@<TRIPOS>MOLECULE
ZINC000000598184
60    63    1     0     0
SMALL
USER_CHARGES
@<TRIPOS>ATOM
1      C1     -0.0178    1.4608    0.0101 C.3      1 ZINC000000598184    0.0800
2      N2      0.0021   -0.0041    0.0020 N.am     1 ZINC000000598184   -0.6300
3      C3      0.0241   -0.7433    1.2666 C.3      1 ZINC000000598184    0.1200
4      C4     -1.4105   -1.0203    1.7205 C.3      1 ZINC000000598184   -0.1000
5      C5     -1.3878   -1.7807    3.0214 C.ar     1 ZINC000000598184   -0.0800
6      C6     -1.3634   -3.1628    3.0138 C.ar     1 ZINC000000598184   -0.1100
7      C7     -1.3426   -3.8604    4.2070 C.ar     1 ZINC000000598184   -0.1200
8      C8     -1.3458   -3.1758    5.4080 C.ar     1 ZINC000000598184   -0.1300
9      C9     -1.3693   -1.7936    5.4156 C.ar     1 ZINC000000598184   -0.1200
10     C10    -1.3858   -1.0960    4.2223 C.ar     1 ZINC000000598184   -0.1200
11     C11     0.0001   -0.6716   -1.1688 C.2      1 ZINC000000598184    0.5100
12     O12     0.0165   -1.8843   -1.1755 O.2      1 ZINC000000598184   -0.5100
13     C13    -0.0226    0.0888   -2.4697 C.3      1 ZINC000000598184   -0.0900
14     C14    -0.0203   -0.8842   -3.6205 C.ar     1 ZINC000000598184   -0.1000
15     C15    -1.2327   -1.4316   -4.0811 C.ar     1 ZINC000000598184    0.0000
16     C16    -2.4545   -1.0845   -3.4836 C.ar     1 ZINC000000598184   -0.1500
17     C17    -3.6166   -1.6258   -3.9446 C.ar     1 ZINC000000598184   -0.0800
18     C18    -3.6193   -2.5246   -5.0069 C.ar     1 ZINC000000598184   -0.2400
19     C19    -2.4428   -2.8914   -5.6214 C.ar     1 ZINC000000598184    0.1600
20     O20    -2.4559   -3.7685   -6.6570 O.3      1 ZINC000000598184   -0.3000
21     C21    -3.7292   -4.2758   -7.0615 C.3      1 ZINC000000598184    0.1000
22     C22    -3.5472   -5.2277   -8.2155 C.ar     1 ZINC000000598184   -0.0900
23     C23    -3.5762   -4.7536   -9.5137 C.ar     1 ZINC000000598184   -0.0900
24     C24    -3.4092   -5.6268  -10.5723 C.ar     1 ZINC000000598184   -0.1200
25     C25    -3.2128   -6.9740  -10.3326 C.ar     1 ZINC000000598184   -0.1100
26     C26    -3.1829   -7.4479   -9.0344 C.ar     1 ZINC000000598184   -0.1200
27     C27    -3.3456   -6.5741   -7.9757 C.ar     1 ZINC000000598184   -0.0900
28     C28    -1.2227   -2.3469   -5.1647 C.ar     1 ZINC000000598184   -0.0800
29     C29    -0.0065   -2.6951   -5.7641 C.ar     1 ZINC000000598184   -0.0500
30     C30     1.1729   -2.1390   -5.2882 C.ar     1 ZINC000000598184   -0.1400
31     C31     2.4570   -2.5004   -5.9137 C.2      1 ZINC000000598184    0.5200
32     O32     2.4813   -3.2881   -6.8493 O.co2    1 ZINC000000598184   -0.6800
33     O33     3.4988   -2.0128   -5.4975 O.co2    1 ZINC000000598184   -0.6900
34     C34     1.1497   -1.2277   -4.2153 C.ar     1 ZINC000000598184   -0.0400
35     H35     1.0048    1.8381    0.0023 H        1 ZINC000000598184    0.0600
36     H36    -0.5450    1.8219   -0.8730 H        1 ZINC000000598184    0.0700
37     H37    -0.5280    1.8123    0.9069 H        1 ZINC000000598184    0.0700
38     H38     0.5496   -1.6879    1.1262 H        1 ZINC000000598184    0.0900
39     H39     0.5371   -0.1514    2.0246 H        1 ZINC000000598184    0.0800
40     H40    -1.9359   -0.0757    1.8610 H        1 ZINC000000598184    0.0700
41     H41    -1.9235   -1.6122    0.9626 H        1 ZINC000000598184    0.0800
42     H42    -1.3609   -3.6977    2.0755 H        1 ZINC000000598184    0.1200
43     H43    -1.3242   -4.9402    4.2011 H        1 ZINC000000598184    0.1200
44     H44    -1.3302   -3.7208    6.3403 H        1 ZINC000000598184    0.1200
45     H45    -1.3721   -1.2588    6.3539 H        1 ZINC000000598184    0.1200
46     H46    -1.4041   -0.0162    4.2283 H        1 ZINC000000598184    0.1200
47     H47    -0.9215    0.7036   -2.5156 H        1 ZINC000000598184    0.1000
48     H48     0.8582    0.7278   -2.5324 H        1 ZINC000000598184    0.1000
49     H49    -2.4733   -0.3885   -2.6579 H        1 ZINC000000598184    0.1100
50     H50    -4.5514   -1.3529   -3.4777 H        1 ZINC000000598184    0.1200
51     H51    -4.5544   -2.9396   -5.3529 H        1 ZINC000000598184    0.1200
52     H52    -4.1928   -4.8013   -6.2266 H        1 ZINC000000598184    0.0700
53     H53    -4.3684   -3.4486   -7.3701 H        1 ZINC000000598184    0.0700
54     H54    -3.7297   -3.7011   -9.7009 H        1 ZINC000000598184    0.1200
55     H55    -3.4326   -5.2565  -11.5865 H        1 ZINC000000598184    0.1200
56     H56    -3.0831   -7.6562  -11.1597 H        1 ZINC000000598184    0.1200
57     H57    -3.0298   -8.5005   -8.8472 H        1 ZINC000000598184    0.1200
58     H58    -3.3222   -6.9443   -6.9614 H        1 ZINC000000598184    0.1200
59     H59     0.0140   -3.3908   -6.5899 H        1 ZINC000000598184    0.1400
60     H60     2.0755   -0.8033   -3.8558 H        1 ZINC000000598184    0.1300
@<TRIPOS>BOND
1     1     2     1
2     1     35    1
3     1     36    1
4     1     37    1
5     2     3     1
6     2     11    am
7     3     4     1
8     3     38    1
9     3     39    1
10    4     5     1
11    4     40    1
12    4     41    1
13    5     10    ar
14    5     6     ar
15    6     7     ar
16    6     42    1
17    7     8     ar
18    7     43    1
19    8     9     ar
20    8     44    1
21    9     10    ar
22    9     45    1
23    10    46    1
24    11    12    2
25    11    13    1
26    13    14    1
27    13    47    1
28    13    48    1
29    14    34    ar
30    14    15    ar
31    15    28    ar
32    15    16    ar
33    16    17    ar
34    16    49    1
35    17    18    ar
36    17    50    1
37    18    19    ar
38    18    51    1
39    19    20    1
40    19    28    ar
41    20    21    1
42    21    22    1
43    21    52    1
44    21    53    1
45    22    27    ar
46    22    23    ar
47    23    24    ar
48    23    54    1
49    24    25    ar
50    24    55    1
51    25    26    ar
52    25    56    1
53    26    27    ar
54    26    57    1
55    27    58    1
56    28    29    ar
57    29    30    ar
58    29    59    1
59    30    31    1
60    30    34    ar
61    31    32    ar
62    31    33    ar
63    34    60    1
@<TRIPOS>SUBSTRUCTURE
1   ZINC000000598184 1     RESIDUE    1   A     ZIN   1
