@<TRIPOS>MOLECULE
ZINC000000900608
33    34    1     0     0
SMALL
USER_CHARGES
@<TRIPOS>ATOM
1      C1     -0.0158    1.4621    0.0110 C.3      1 ZINC000000900608    0.0600
2      N2     -0.0053   -0.0028    0.0014 N.pl3    1 ZINC000000900608   -0.4000
3      C3     -0.0074   -0.7816   -1.0998 C.2      1 ZINC000000900608    0.0400
4      C4      0.0055   -2.0840   -0.7212 C.2      1 ZINC000000900608   -0.2100
5      C5      0.0161   -2.1253    0.6741 C.2      1 ZINC000000900608   -0.1100
6      C6      0.0144   -0.8135    1.1163 C.2      1 ZINC000000900608   -0.1000
7      C7      0.0229   -0.3844    2.4631 C.2      1 ZINC000000900608    0.4400
8      O8      0.0208    0.8020    2.7224 O.2      1 ZINC000000900608   -0.4100
9      C9      0.0346   -1.3991    3.5772 C.3      1 ZINC000000900608   -0.0400
10     H10    -0.4786   -2.3035    3.2504 H        1 ZINC000000900608    0.1700
11     C11     1.4262   -1.7247    3.9297 C.1      1 ZINC000000900608    0.2000
12     N12     2.5001   -1.9760    4.2017 N.1      1 ZINC000000900608   -0.3700
13     C13    -0.6688   -0.8300    4.7824 C.2      1 ZINC000000900608    0.5300
14     O14    -1.1339    0.2893    4.7407 O.2      1 ZINC000000900608   -0.4700
15     N15    -0.7812   -1.5650    5.9065 N.am     1 ZINC000000900608   -0.6700
16     C16    -1.3474   -1.0031    7.0561 C.ar     1 ZINC000000900608    0.1400
17     C17    -0.8657   -1.3522    8.3110 C.ar     1 ZINC000000900608   -0.1400
18     C18    -1.4268   -0.7958    9.4437 C.ar     1 ZINC000000900608   -0.1000
19     C19    -2.4675    0.1075    9.3293 C.ar     1 ZINC000000900608   -0.1300
20     C20    -2.9498    0.4568    8.0813 C.ar     1 ZINC000000900608   -0.1000
21     C21    -2.3886   -0.0909    6.9444 C.ar     1 ZINC000000900608   -0.1200
22     H22     1.0091    1.8329    0.0007 H        1 ZINC000000900608    0.0800
23     H23    -0.5433    1.8275   -0.8701 H        1 ZINC000000900608    0.0900
24     H24    -0.5211    1.8159    0.9097 H        1 ZINC000000900608    0.1000
25     H25    -0.0180   -0.4254   -2.1193 H        1 ZINC000000900608    0.1700
26     H26     0.0069   -2.9380   -1.3823 H        1 ZINC000000900608    0.1500
27     H27     0.0270   -3.0117    1.2910 H        1 ZINC000000900608    0.1500
28     H28    -0.4694   -2.4835    5.9187 H        1 ZINC000000900608    0.4100
29     H29    -0.0534   -2.0582    8.4010 H        1 ZINC000000900608    0.1300
30     H30    -1.0526   -1.0669   10.4199 H        1 ZINC000000900608    0.1300
31     H31    -2.9049    0.5409   10.2166 H        1 ZINC000000900608    0.1200
32     H32    -3.7632    1.1621    7.9953 H        1 ZINC000000900608    0.1300
33     H33    -2.7657    0.1822    5.9699 H        1 ZINC000000900608    0.1400
@<TRIPOS>BOND
1     1     2     1
2     1     22    1
3     1     23    1
4     1     24    1
5     2     6     1
6     2     3     1
7     3     4     2
8     3     25    1
9     4     5     1
10    4     26    1
11    5     6     2
12    5     27    1
13    6     7     1
14    7     8     2
15    7     9     1
16    9     10    1
17    9     11    1
18    9     13    1
19    11    12    3
20    13    14    2
21    13    15    am
22    15    16    1
23    15    28    1
24    16    21    ar
25    16    17    ar
26    17    18    ar
27    17    29    1
28    18    19    ar
29    18    30    1
30    19    20    ar
31    19    31    1
32    20    21    ar
33    20    32    1
34    21    33    1
@<TRIPOS>SUBSTRUCTURE
1   ZINC000000900608 1     RESIDUE    1   A     ZIN   1
