@<TRIPOS>MOLECULE
ZINC000029055563
53    56    1     0     0
SMALL
USER_CHARGES
@<TRIPOS>ATOM
1      C1     -0.0187    1.5258    0.0104 C.3      1 ZINC000029055563   -0.1500
2      C2      0.0021   -0.0041    0.0020 C.3      1 ZINC000029055563   -0.1400
3      C3      0.7421   -0.5109    1.2415 C.3      1 ZINC000029055563    0.1100
4      N4      0.7619   -1.9757    1.2335 N.am     1 ZINC000029055563   -0.5500
5      C5     -0.2437   -2.6585    1.8221 C.2      1 ZINC000029055563    0.6000
6      O6     -1.1650   -2.0705    2.3584 O.2      1 ZINC000029055563   -0.4800
7      C7     -0.2012   -4.1219    1.8002 C.2      1 ZINC000029055563   -0.0900
8      C8      0.8746   -4.7405    1.1733 C.2      1 ZINC000029055563    0.2800
9      N9      0.6753   -6.0811    1.2924 N.pl3    1 ZINC000029055563   -0.5500
10     C10    -0.4989   -6.2645    1.9784 C.2      1 ZINC000029055563    0.3200
11     C11    -1.0910   -7.5742    2.3277 C.2      1 ZINC000029055563   -0.1800
12     C12    -2.2608   -7.7780    3.0049 C.2      1 ZINC000029055563    0.1200
13     N13    -2.4404   -9.1084    3.1158 N.pl3    1 ZINC000029055563   -0.3600
14     C14    -3.5709   -9.7700    3.7719 C.3      1 ZINC000029055563    0.1700
15     C15    -4.2197  -10.7296    2.8079 C.ar     1 ZINC000029055563   -0.1200
16     C16    -5.2422  -10.2966    1.9849 C.ar     1 ZINC000029055563   -0.0600
17     C17    -5.8375  -11.1769    1.1005 C.ar     1 ZINC000029055563   -0.1200
18     C18    -5.4098  -12.4898    1.0390 C.ar     1 ZINC000029055563   -0.0600
19     C19    -4.3864  -12.9226    1.8616 C.ar     1 ZINC000029055563   -0.1900
20     C20    -3.9204  -14.3542    1.7949 C.3      1 ZINC000029055563    0.5100
21     F21    -4.6681  -15.0438    0.8344 F        1 ZINC000029055563   -0.1800
22     F22    -2.5664  -14.3880    1.4444 F        1 ZINC000029055563   -0.1700
23     F23    -4.0940  -14.9598    3.0440 F        1 ZINC000029055563   -0.1800
24     C24    -3.7884  -12.0415    2.7427 C.ar     1 ZINC000029055563   -0.0300
25     N25    -1.3617   -9.7504    2.4959 N.2      1 ZINC000029055563   -0.2800
26     C26    -0.5549   -8.8415    2.0176 C.2      1 ZINC000029055563    0.0700
27     N27    -1.0128   -5.0956    2.2761 N.2      1 ZINC000029055563   -0.4100
28     N28     1.8541   -3.9630    0.5998 N.am     1 ZINC000029055563   -0.5100
29     C29     2.9915   -4.6050   -0.0636 C.3      1 ZINC000029055563    0.1000
30     C30     2.6599   -4.8306   -1.5401 C.3      1 ZINC000029055563   -0.1700
31     C31     1.7774   -2.6211    0.6359 C.2      1 ZINC000029055563    0.7100
32     O32     2.6628   -1.9687    0.1173 O.2      1 ZINC000029055563   -0.5300
33     H33     1.0039    1.9031    0.0027 H        1 ZINC000029055563    0.0600
34     H34    -0.5459    1.8868   -0.8726 H        1 ZINC000029055563    0.0600
35     H35    -0.5289    1.8773    0.9072 H        1 ZINC000029055563    0.0600
36     H36    -1.0205   -0.3814    0.0098 H        1 ZINC000029055563    0.0700
37     H37     0.5123   -0.3556   -0.8948 H        1 ZINC000029055563    0.0700
38     H38     1.7647   -0.1336    1.2338 H        1 ZINC000029055563    0.1000
39     H39     0.2319   -0.1594    2.1383 H        1 ZINC000029055563    0.1000
40     H40     1.2569   -6.7797    0.9539 H        1 ZINC000029055563    0.4300
41     H41    -2.9213   -7.0114    3.3824 H        1 ZINC000029055563    0.1900
42     H42    -3.2149  -10.3171    4.6449 H        1 ZINC000029055563    0.1000
43     H43    -4.2986   -9.0211    4.0843 H        1 ZINC000029055563    0.1200
44     H44    -5.5765   -9.2707    2.0329 H        1 ZINC000029055563    0.1300
45     H45    -6.6370  -10.8388    0.4579 H        1 ZINC000029055563    0.1400
46     H46    -5.8753  -13.1776    0.3486 H        1 ZINC000029055563    0.1400
47     H47    -2.9889  -12.3796    3.3853 H        1 ZINC000029055563    0.1400
48     H48     0.3658   -9.0277    1.4847 H        1 ZINC000029055563    0.1900
49     H49     3.8690   -3.9635    0.0177 H        1 ZINC000029055563    0.1100
50     H50     3.1966   -5.5635    0.4132 H        1 ZINC000029055563    0.0900
51     H51     2.4548   -3.8721   -2.0170 H        1 ZINC000029055563    0.0700
52     H52     3.5062   -5.3083   -2.0338 H        1 ZINC000029055563    0.0800
53     H53     1.7824   -5.4720   -1.6215 H        1 ZINC000029055563    0.0600
@<TRIPOS>BOND
1     1     2     1
2     1     33    1
3     1     34    1
4     1     35    1
5     2     3     1
6     2     36    1
7     2     37    1
8     3     4     1
9     3     38    1
10    3     39    1
11    4     31    am
12    4     5     am
13    5     6     2
14    5     7     1
15    7     27    1
16    7     8     2
17    8     9     1
18    8     28    1
19    9     10    1
20    9     40    1
21    10    11    1
22    10    27    2
23    11    26    1
24    11    12    2
25    12    13    1
26    12    41    1
27    13    14    1
28    13    25    1
29    14    15    1
30    14    42    1
31    14    43    1
32    15    24    ar
33    15    16    ar
34    16    17    ar
35    16    44    1
36    17    18    ar
37    17    45    1
38    18    19    ar
39    18    46    1
40    19    20    1
41    19    24    ar
42    20    21    1
43    20    22    1
44    20    23    1
45    24    47    1
46    25    26    2
47    26    48    1
48    28    29    1
49    28    31    am
50    29    30    1
51    29    49    1
52    29    50    1
53    30    51    1
54    30    52    1
55    30    53    1
56    31    32    2
@<TRIPOS>SUBSTRUCTURE
1   ZINC000029055563 1     RESIDUE    1   A     ZIN   1
