@<TRIPOS>MOLECULE
ZINC000073488511
60    64    1     0     0
SMALL
USER_CHARGES
@<TRIPOS>ATOM
1      C1     -0.0173    1.4248    0.0099 C.3      1 ZINC000073488511    0.0400
2      O2      0.0021   -0.0041    0.0020 O.3      1 ZINC000073488511   -0.3000
3      C3      0.6245   -0.6171    1.0393 C.ar     1 ZINC000073488511    0.3400
4      C4      0.6797   -2.0054    1.0819 C.ar     1 ZINC000073488511   -0.2000
5      C5      1.3157   -2.6232    2.1413 C.ar     1 ZINC000073488511    0.0100
6      C6      1.8832   -1.8196    3.1366 C.ar     1 ZINC000073488511   -0.1400
7      C7      2.5773   -2.4335    4.2938 C.ar     1 ZINC000073488511    0.4100
8      N8      3.0998   -1.6393    5.2231 N.ar     1 ZINC000073488511   -0.5400
9      C9      3.7280   -2.1489    6.2736 C.ar     1 ZINC000073488511    0.4200
10     N10     4.2706   -1.3173    7.2398 N.3      1 ZINC000073488511   -0.4700
11     C11     3.7335   -1.6355    8.5708 C.3      1 ZINC000073488511    0.0200
12     C12     4.4022   -0.7357    9.6134 C.3      1 ZINC000073488511    0.0700
13     O13     4.1930    0.6338    9.2584 O.3      1 ZINC000073488511   -0.3800
14     C14     4.7044    0.9786    7.9681 C.3      1 ZINC000073488511    0.0600
15     C15     4.0388    0.0962    6.9088 C.3      1 ZINC000073488511    0.0300
16     C16     3.8350   -3.5452    6.3927 C.ar     1 ZINC000073488511   -0.2800
17     S17     4.5809   -4.5566    7.6216 S.3      1 ZINC000073488511    0.1600
18     C18     4.1187   -6.0177    6.7649 C.2      1 ZINC000073488511   -0.1600
19     C19     4.4280   -7.4172    7.2306 C.3      1 ZINC000073488511    0.1900
20     N20     5.7200   -7.8393    6.6841 N.pl3    1 ZINC000073488511   -0.5700
21     C21     6.9520   -7.5807    7.4333 C.3      1 ZINC000073488511    0.0900
22     C22     5.7765   -8.4804    5.4640 C.ar     1 ZINC000073488511    0.5800
23     N23     4.6496   -8.7001    4.7992 N.ar     1 ZINC000073488511   -0.5600
24     C24     4.6611   -9.3097    3.6289 C.ar     1 ZINC000073488511    0.2700
25     C25     5.8863   -9.7259    3.0916 C.ar     1 ZINC000073488511   -0.3000
26     C26     5.9468  -10.4107    1.7860 C.2      1 ZINC000073488511    0.5900
27     O27     4.9248  -10.6206    1.1616 O.2      1 ZINC000073488511   -0.5200
28     N28     7.1349  -10.8036    1.2855 N.am     1 ZINC000073488511   -0.5900
29     O29     7.1930  -11.4608    0.0326 O.3      1 ZINC000073488511   -0.3100
30     C30     7.0526   -9.4744    3.8261 C.ar     1 ZINC000073488511    0.2300
31     N31     6.9566   -8.8544    4.9870 N.ar     1 ZINC000073488511   -0.5600
32     C32     3.4613   -5.7228    5.6547 C.2      1 ZINC000073488511   -0.1000
33     C33     3.2757   -4.3544    5.4000 C.ar     1 ZINC000073488511    0.2000
34     N34     2.6497   -3.7469    4.3676 N.ar     1 ZINC000073488511   -0.5000
35     C35     1.7870   -0.4347    3.0240 C.ar     1 ZINC000073488511    0.2000
36     N36     1.1758    0.1148    1.9943 N.ar     1 ZINC000073488511   -0.5400
37     H37     1.0053    1.8021    0.0021 H        1 ZINC000073488511    0.0600
38     H38    -0.5445    1.7859   -0.8732 H        1 ZINC000073488511    0.1000
39     H39    -0.5275    1.7763    0.9067 H        1 ZINC000073488511    0.0600
40     H40     0.2302   -2.5943    0.2961 H        1 ZINC000073488511    0.1500
41     H41     1.3733   -3.7001    2.2001 H        1 ZINC000073488511    0.1600
42     H42     2.6570   -1.4646    8.5792 H        1 ZINC000073488511    0.0700
43     H43     3.9388   -2.6799    8.8059 H        1 ZINC000073488511    0.0900
44     H44     3.9662   -0.9283   10.5937 H        1 ZINC000073488511    0.1100
45     H45     5.4716   -0.9449    9.6426 H        1 ZINC000073488511    0.0700
46     H46     4.4869    2.0259    7.7584 H        1 ZINC000073488511    0.1100
47     H47     5.7825    0.8193    7.9494 H        1 ZINC000073488511    0.0600
48     H48     4.4669    0.3160    5.9307 H        1 ZINC000073488511    0.1000
49     H49     2.9672    0.2948    6.8907 H        1 ZINC000073488511    0.0700
50     H50     4.4703   -7.4367    8.3196 H        1 ZINC000073488511    0.1000
51     H51     3.6481   -8.0957    6.8850 H        1 ZINC000073488511    0.1200
52     H52     7.1608   -8.4241    8.0915 H        1 ZINC000073488511    0.0600
53     H53     7.7801   -7.4496    6.7368 H        1 ZINC000073488511    0.0900
54     H54     6.8318   -6.6759    8.0292 H        1 ZINC000073488511    0.0700
55     H55     3.7398   -9.4855    3.0934 H        1 ZINC000073488511    0.1900
56     H56     7.9503  -10.6362    1.7836 H        1 ZINC000073488511    0.4100
57     H57     8.0874  -11.7040   -0.2429 H        1 ZINC000073488511    0.3900
58     H58     8.0162   -9.7799    3.4460 H        1 ZINC000073488511    0.1700
59     H59     3.0909   -6.4865    4.9869 H        1 ZINC000073488511    0.1600
60     H60     2.2214    0.1951    3.7863 H        1 ZINC000073488511    0.1700
@<TRIPOS>BOND
1     1     2     1
2     1     37    1
3     1     38    1
4     1     39    1
5     2     3     1
6     3     36    ar
7     3     4     ar
8     4     5     ar
9     4     40    1
10    5     6     ar
11    5     41    1
12    6     7     1
13    6     35    ar
14    7     34    ar
15    7     8     ar
16    8     9     ar
17    9     10    1
18    9     16    ar
19    10    15    1
20    10    11    1
21    11    12    1
22    11    42    1
23    11    43    1
24    12    13    1
25    12    44    1
26    12    45    1
27    13    14    1
28    14    15    1
29    14    46    1
30    14    47    1
31    15    48    1
32    15    49    1
33    16    33    ar
34    16    17    1
35    17    18    1
36    18    19    1
37    18    32    2
38    19    20    1
39    19    50    1
40    19    51    1
41    20    21    1
42    20    22    1
43    21    52    1
44    21    53    1
45    21    54    1
46    22    31    ar
47    22    23    ar
48    23    24    ar
49    24    25    ar
50    24    55    1
51    25    26    1
52    25    30    ar
53    26    27    2
54    26    28    am
55    28    29    1
56    28    56    1
57    29    57    1
58    30    31    ar
59    30    58    1
60    32    33    1
61    32    59    1
62    33    34    ar
63    35    36    ar
64    35    60    1
@<TRIPOS>SUBSTRUCTURE
1   ZINC000073488511 1     RESIDUE    1   A     ZIN   1
