@<TRIPOS>MOLECULE
ZINC000070466423
  43   46    0    0    0
SMALL
USER_CHARGES
NO_NAME
@<TRIPOS>ATOM
    1 N1        0.5022     1.2968     0.4191 N.2    1 <0>      -0.6700
    2 C2        0.4923    -0.0072     0.3898 C.2    1 <0>       0.4400
    3 N3       -0.6751    -0.7202     0.2092 N.pl3  1 <0>      -0.7300
    4 C4       -1.0659    -1.7925     1.1272 C.3    1 <0>       0.2100
    5 C5       -1.7232    -1.2686     2.3780 C.ar   1 <0>      -0.1100
    6 C6       -1.8866     0.0912     2.5538 C.ar   1 <0>      -0.1000
    7 C7       -2.4929     0.5735     3.7066 C.ar   1 <0>       0.1400
    8 N8       -2.6599     1.9512     3.8866 N.am   1 <0>      -0.6500
    9 C9       -2.5926     2.4822     5.1235 C.2    1 <0>       0.5800
   10 O10      -2.2923     1.7815     6.0702 O.2    1 <0>      -0.5100
   11 C11      -2.8844     3.9186     5.3291 C.ar   1 <0>       0.0600
   12 C12      -2.8074     4.4623     6.6100 C.ar   1 <0>      -0.0700
   13 C13      -3.0830     5.8078     6.7881 C.ar   1 <0>      -0.1100
   14 C14      -3.4271     6.5659     5.6767 C.ar   1 <0>       0.0800
   15 F15      -3.7030     7.8820     5.8070 F      1 <0>      -0.1200
   16 C16      -3.4841     5.9568     4.4295 C.ar   1 <0>       0.0800
   17 N17      -3.2119     4.6785     4.2905 N.ar   1 <0>      -0.4300
   18 C18      -2.9334    -0.3133     4.6800 C.ar   1 <0>      -0.0900
   19 C19      -2.7680    -1.6728     4.5001 C.ar   1 <0>      -0.1300
   20 C20      -2.1681    -2.1517     3.3478 C.ar   1 <0>       0.0900
   21 F21      -2.0073    -3.4817     3.1738 F      1 <0>      -0.1300
   22 C22      -1.9792    -2.7459     0.2934 C.3    1 <0>       0.0600
   23 O23      -1.0652    -3.5173    -0.5071 O.3    1 <0>      -0.3700
   24 C24       0.2174    -3.5760     0.1400 C.3    1 <0>       0.0600
   25 C25       0.0954    -2.7541     1.4274 C.3    1 <0>      -0.1400
   26 H26      -0.2172    -3.4239     2.2285 H      1 <0>       0.1200
   27 C27       1.3755    -2.0808     1.8462 C.3    1 <0>      -0.0800
   28 S28       1.9785    -0.9548     0.5723 S.3    1 <0>      -0.2000
   29 H29       1.3382     1.7728     0.5434 H      1 <0>       0.3600
   30 H30      -1.2500    -0.5062    -0.5422 H      1 <0>       0.4100
   31 H31      -1.5428     0.7793     1.7956 H      1 <0>       0.1500
   32 H32      -2.8240     2.5239     3.1212 H      1 <0>       0.4200
   33 H33      -2.5369     3.8428     7.4522 H      1 <0>       0.1600
   34 H34      -3.0319     6.2571     7.7690 H      1 <0>       0.1600
   35 H35      -3.7515     6.5422     3.5622 H      1 <0>       0.1800
   36 H36      -3.4048     0.0597     5.5773 H      1 <0>       0.1500
   37 H37      -3.1102    -2.3629     5.2571 H      1 <0>       0.1500
   38 H38      -2.5502    -3.3987     0.9537 H      1 <0>       0.0800
   39 H39      -2.6491    -2.1690    -0.3442 H      1 <0>       0.1000
   40 H40       0.4681    -4.6095     0.3791 H      1 <0>       0.0800
   41 H41       0.9820    -3.1458    -0.5068 H      1 <0>       0.0900
   42 H42       1.2045    -1.5281     2.7699 H      1 <0>       0.1000
   43 H43       2.1395    -2.8388     2.0189 H      1 <0>       0.1200
@<TRIPOS>BOND
   1    1    2 2
   2    1   29 1
   3    2   28 1
   4    2    3 1
   5    3    4 1
   6    3   30 1
   7    4   25 1
   8    4    5 1
   9    4   22 1
  10    5   20 ar
  11    5    6 ar
  12    6    7 ar
  13    6   31 1
  14    7    8 1
  15    7   18 ar
  16    8    9 am
  17    8   32 1
  18    9   10 2
  19    9   11 1
  20   11   17 ar
  21   11   12 ar
  22   12   13 ar
  23   12   33 1
  24   13   14 ar
  25   13   34 1
  26   14   15 1
  27   14   16 ar
  28   16   17 ar
  29   16   35 1
  30   18   19 ar
  31   18   36 1
  32   19   20 ar
  33   19   37 1
  34   20   21 1
  35   22   23 1
  36   22   38 1
  37   22   39 1
  38   23   24 1
  39   24   25 1
  40   24   40 1
  41   24   41 1
  42   25   26 1
  43   25   27 1
  44   27   28 1
  45   27   42 1
  46   27   43 1
