@<TRIPOS>MOLECULE
ZINC000008214713
32    34    1     0     0
SMALL
USER_CHARGES
@<TRIPOS>ATOM
1      N1     -0.0165    1.3677    0.0096 N.pl3    1 ZINC000008214713   -0.8300
2      C2      0.0021   -0.0041    0.0020 C.2      1 ZINC000008214713    0.6200
3      N3     -1.1364   -0.6520    0.0040 N.2      1 ZINC000008214713   -0.6600
4      C4     -1.1887   -2.0041   -0.0035 C.2      1 ZINC000008214713    0.4200
5      C5      0.0187   -2.6901   -0.0136 C.2      1 ZINC000008214713   -0.4200
6      S6     -0.3977   -4.4064   -0.0214 S.3      1 ZINC000008214713    0.0400
7      C7     -2.0988   -4.1454   -0.0113 C.2      1 ZINC000008214713    0.4900
8      O8     -2.9644   -5.0014   -0.0113 O.2      1 ZINC000008214713   -0.4900
9      N9     -2.2868   -2.8227   -0.0027 N.am     1 ZINC000008214713   -0.5100
10     C10    -3.6392   -2.2596    0.0068 C.3      1 ZINC000008214713    0.3100
11     H11    -3.6016   -1.1756    0.1148 H        1 ZINC000008214713    0.1300
12     O12    -4.4278   -2.8487    1.0631 O.3      1 ZINC000008214713   -0.3500
13     C13    -5.8086   -2.6586    0.7119 C.3      1 ZINC000008214713    0.0600
14     H14    -6.1823   -1.7389    1.1619 H        1 ZINC000008214713    0.0900
15     C15    -6.6376   -3.8493    1.1976 C.3      1 ZINC000008214713    0.0800
16     O16    -6.6460   -3.8727    2.6264 O.3      1 ZINC000008214713   -0.5600
17     C17    -5.8809   -2.5575   -0.8241 C.3      1 ZINC000008214713    0.0500
18     H18    -6.4635   -3.3827   -1.2337 H        1 ZINC000008214713    0.0800
19     O19    -6.4454   -1.3049   -1.2169 O.3      1 ZINC000008214713   -0.5400
20     C20    -4.4036   -2.6535   -1.2827 C.3      1 ZINC000008214713    0.0800
21     H21    -4.1550   -3.6712   -1.5836 H        1 ZINC000008214713    0.0900
22     O22    -4.1376   -1.7318   -2.3419 O.3      1 ZINC000008214713   -0.5300
23     C23     1.2330   -1.9973   -0.0153 C.2      1 ZINC000008214713    0.5700
24     O24     2.2952   -2.5986   -0.0244 O.2      1 ZINC000008214713   -0.6000
25     N25     1.2034   -0.6452   -0.0129 N.pl3    1 ZINC000008214713   -0.6800
26     H26     0.8168    1.8641    0.0043 H        1 ZINC000008214713    0.4100
27     H27    -0.8631    1.8412    0.0162 H        1 ZINC000008214713    0.4000
28     H28    -7.6593   -3.7549    0.8298 H        1 ZINC000008214713    0.0600
29     H29    -6.2001   -4.7742    0.8216 H        1 ZINC000008214713    0.0600
30     H30    -7.1541   -4.6032    3.0049 H        1 ZINC000008214713    0.3800
31     H31    -7.3508   -1.1669   -0.9066 H        1 ZINC000008214713    0.3800
32     H32    -4.6618   -1.8873   -3.1395 H        1 ZINC000008214713    0.3800
@<TRIPOS>BOND
1     1     2     1
2     1     26    1
3     1     27    1
4     2     25    1
5     2     3     2
6     3     4     1
7     4     9     1
8     4     5     2
9     5     6     1
10    5     23    1
11    6     7     1
12    7     8     2
13    7     9     am
14    9     10    1
15    10    11    1
16    10    20    1
17    10    12    1
18    12    13    1
19    13    14    1
20    13    15    1
21    13    17    1
22    15    16    1
23    15    28    1
24    15    29    1
25    16    30    1
26    17    18    1
27    17    19    1
28    17    20    1
29    19    31    1
30    20    21    1
31    20    22    1
32    22    32    1
33    23    24    2
34    23    25    1
@<TRIPOS>SUBSTRUCTURE
1   ZINC000008214713 1     RESIDUE    1   A     ZIN   1
