@<TRIPOS>MOLECULE
ZINC000011616585
54    57    1     0     0
SMALL
USER_CHARGES
@<TRIPOS>ATOM
1      O1     -1.5990   -2.9510    1.6367 O.co2    1 ZINC000011616585   -0.6800
2      C2     -2.2545   -2.9012    2.6635 C.2      1 ZINC000011616585    0.4900
3      O3     -1.8182   -3.3939    3.6898 O.co2    1 ZINC000011616585   -0.7100
4      C4     -3.6014   -2.2252    2.6655 C.3      1 ZINC000011616585   -0.2200
5      C5     -3.9060   -1.6908    1.2645 C.3      1 ZINC000011616585    0.1400
6      H6     -3.8282   -2.5025    0.5412 H        1 ZINC000011616585    0.1000
7      O7     -2.9685   -0.6649    0.9318 O.3      1 ZINC000011616585   -0.5400
8      C8     -5.3234   -1.1156    1.2351 C.3      1 ZINC000011616585   -0.1800
9      C9     -5.6736   -0.6952   -0.1937 C.3      1 ZINC000011616585    0.1400
10     H10    -4.9165   -0.0046   -0.5651 H        1 ZINC000011616585    0.1100
11     O11    -5.7171   -1.8508   -1.0331 O.3      1 ZINC000011616585   -0.5500
12     C12    -7.0194   -0.0172   -0.2022 C.2      1 ZINC000011616585   -0.1500
13     C13    -7.1282    1.2369   -0.6238 C.2      1 ZINC000011616585   -0.1200
14     C14    -8.4584    1.8662   -0.7317 C.ar     1 ZINC000011616585   -0.0800
15     C15    -8.9001    2.3849   -1.9585 C.ar     1 ZINC000011616585    0.2100
16     C16    -7.9986    2.2913   -3.1625 C.3      1 ZINC000011616585   -0.1200
17     C17    -8.5889    2.6815   -4.5190 C.3      1 ZINC000011616585   -0.1600
18     C18    -7.5765    3.6004   -3.8324 C.3      1 ZINC000011616585   -0.1600
19     N19   -10.0753    2.9476   -2.0838 N.ar     1 ZINC000011616585   -0.4700
20     C20   -10.9213    3.0613   -1.0531 C.ar     1 ZINC000011616585    0.1300
21     C21   -12.1776    3.6700   -1.2174 C.ar     1 ZINC000011616585   -0.0900
22     C22   -13.0228    3.7747   -0.1552 C.ar     1 ZINC000011616585   -0.1000
23     C23   -12.6639    3.2874    1.0992 C.ar     1 ZINC000011616585   -0.1200
24     C24   -11.4545    2.6913    1.2960 C.ar     1 ZINC000011616585   -0.0900
25     C25   -10.5602    2.5665    0.2238 C.ar     1 ZINC000011616585   -0.0900
26     C26    -9.2971    1.9471    0.3892 C.ar     1 ZINC000011616585    0.0200
27     C27    -8.8753    1.4090    1.7001 C.ar     1 ZINC000011616585   -0.0600
28     C28    -7.8279    2.0107    2.4002 C.ar     1 ZINC000011616585   -0.0600
29     C29    -7.4386    1.5047    3.6224 C.ar     1 ZINC000011616585   -0.1500
30     C30    -8.0850    0.4008    4.1561 C.ar     1 ZINC000011616585    0.1100
31     F31    -7.6998   -0.0907    5.3541 F        1 ZINC000011616585   -0.1300
32     C32    -9.1255   -0.2005    3.4652 C.ar     1 ZINC000011616585   -0.1500
33     C33    -9.5267    0.3008    2.2450 C.ar     1 ZINC000011616585   -0.0800
34     H34    -4.3682   -2.9438    2.9549 H        1 ZINC000011616585    0.0600
35     H35    -3.5918   -1.3983    3.3756 H        1 ZINC000011616585    0.0600
36     H36    -2.9823    0.0910    1.5347 H        1 ZINC000011616585    0.3500
37     H37    -6.0300   -1.8730    1.5745 H        1 ZINC000011616585    0.0700
38     H38    -5.3771   -0.2479    1.8926 H        1 ZINC000011616585    0.0700
39     H39    -6.3704   -2.5100   -0.7614 H        1 ZINC000011616585    0.3700
40     H40    -7.8954   -0.5515    0.1346 H        1 ZINC000011616585    0.1100
41     H41    -6.2431    1.7965   -0.8878 H        1 ZINC000011616585    0.1300
42     H42    -7.2727    1.4784   -3.1442 H        1 ZINC000011616585    0.1300
43     H43    -8.2515    2.1252   -5.3935 H        1 ZINC000011616585    0.1000
44     H44    -9.6293    3.0059   -4.5406 H        1 ZINC000011616585    0.1100
45     H45    -7.9508    4.5294   -3.4023 H        1 ZINC000011616585    0.0900
46     H46    -6.5730    3.6487   -4.2552 H        1 ZINC000011616585    0.1000
47     H47   -12.4713    4.0539   -2.1832 H        1 ZINC000011616585    0.1300
48     H48   -13.9868    4.2435   -0.2874 H        1 ZINC000011616585    0.1300
49     H49   -13.3522    3.3835    1.9258 H        1 ZINC000011616585    0.1300
50     H50   -11.1865    2.3166    2.2729 H        1 ZINC000011616585    0.1300
51     H51    -7.3234    2.8706    1.9851 H        1 ZINC000011616585    0.1300
52     H52    -6.6282    1.9692    4.1646 H        1 ZINC000011616585    0.1400
53     H53    -9.6258   -1.0604    3.8856 H        1 ZINC000011616585    0.1400
54     H54   -10.3378   -0.1682    1.7077 H        1 ZINC000011616585    0.1300
@<TRIPOS>BOND
1     1     2     ar
2     2     3     ar
3     2     4     1
4     4     5     1
5     4     34    1
6     4     35    1
7     5     6     1
8     5     7     1
9     5     8     1
10    7     36    1
11    8     9     1
12    8     37    1
13    8     38    1
14    9     10    1
15    9     11    1
16    9     12    1
17    11    39    1
18    12    13    2
19    12    40    1
20    13    14    1
21    13    41    1
22    14    26    ar
23    14    15    ar
24    15    16    1
25    15    19    ar
26    16    18    1
27    16    17    1
28    16    42    1
29    17    18    1
30    17    43    1
31    17    44    1
32    18    45    1
33    18    46    1
34    19    20    ar
35    20    25    ar
36    20    21    ar
37    21    22    ar
38    21    47    1
39    22    23    ar
40    22    48    1
41    23    24    ar
42    23    49    1
43    24    25    ar
44    24    50    1
45    25    26    ar
46    26    27    1
47    27    33    ar
48    27    28    ar
49    28    29    ar
50    28    51    1
51    29    30    ar
52    29    52    1
53    30    31    1
54    30    32    ar
55    32    33    ar
56    32    53    1
57    33    54    1
@<TRIPOS>SUBSTRUCTURE
1   ZINC000011616585 1     RESIDUE    1   A     ZIN   1
