@<TRIPOS>MOLECULE
ZINC000000004016
37    39    1     0     0
SMALL
USER_CHARGES
@<TRIPOS>ATOM
1      C1     -0.0140    1.5076    0.2589 C.3      1 ZINC000000004016   -0.1500
2      C2      0.0003    0.0006   -0.0050 C.3      1 ZINC000000004016    0.0700
3      C3      0.8197   -0.6995    1.0809 C.3      1 ZINC000000004016   -0.1800
4      O4     -1.3386   -0.4987    0.0122 O.3      1 ZINC000000004016   -0.3000
5      C5     -1.5805   -1.6378   -0.6854 C.ar     1 ZINC000000004016    0.2000
6      C6     -0.5206   -2.3237   -1.2743 C.ar     1 ZINC000000004016   -0.2300
7      C7     -0.7509   -3.4690   -1.9830 C.ar     1 ZINC000000004016    0.0100
8      C8     -2.0528   -3.9497   -2.1148 C.ar     1 ZINC000000004016   -0.2600
9      C9     -2.3470   -5.1725   -2.8866 C.2      1 ZINC000000004016    0.4300
10     O10    -1.4698   -5.9395   -3.2444 O.2      1 ZINC000000004016   -0.4500
11     C11    -3.7701   -5.4086   -3.1974 C.2      1 ZINC000000004016   -0.2400
12     C12    -4.1743   -6.4320   -4.1919 C.ar     1 ZINC000000004016   -0.0300
13     C13    -3.9289   -7.7817   -3.9458 C.ar     1 ZINC000000004016   -0.0900
14     C14    -4.3071   -8.7296   -4.8748 C.ar     1 ZINC000000004016   -0.1200
15     C15    -4.9286   -8.3423   -6.0483 C.ar     1 ZINC000000004016   -0.1100
16     C16    -5.1747   -7.0042   -6.2978 C.ar     1 ZINC000000004016   -0.1200
17     C17    -4.8060   -6.0480   -5.3734 C.ar     1 ZINC000000004016   -0.1100
18     C18    -4.6994   -4.6616   -2.5460 C.2      1 ZINC000000004016    0.1300
19     O19    -4.3855   -3.7436   -1.6323 O.3      1 ZINC000000004016   -0.2100
20     C20    -3.1301   -3.2713   -1.5171 C.ar     1 ZINC000000004016    0.1800
21     C21    -2.8773   -2.1090   -0.7995 C.ar     1 ZINC000000004016   -0.1800
22     H22     1.0072    1.8885    0.2458 H        1 ZINC000000004016    0.0800
23     H23    -0.5978    2.0064   -0.5147 H        1 ZINC000000004016    0.0700
24     H24    -0.4617    1.7016    1.2336 H        1 ZINC000000004016    0.0700
25     H25     0.4479   -0.1933   -0.9798 H        1 ZINC000000004016    0.0800
26     H26     0.3721   -0.5056    2.0556 H        1 ZINC000000004016    0.0700
27     H27     0.8299   -1.7731    0.8929 H        1 ZINC000000004016    0.0600
28     H28     1.8409   -0.3187    1.0678 H        1 ZINC000000004016    0.0800
29     H29     0.4868   -1.9487   -1.1705 H        1 ZINC000000004016    0.1400
30     H30     0.0719   -3.9992   -2.4394 H        1 ZINC000000004016    0.1500
31     H31    -3.4434   -8.0852   -3.0300 H        1 ZINC000000004016    0.1200
32     H32    -4.1172   -9.7758   -4.6853 H        1 ZINC000000004016    0.1300
33     H33    -5.2226   -9.0876   -6.7726 H        1 ZINC000000004016    0.1200
34     H34    -5.6603   -6.7075   -7.2157 H        1 ZINC000000004016    0.1300
35     H35    -4.9986   -5.0035   -5.5693 H        1 ZINC000000004016    0.1200
36     H36    -5.7420   -4.8190   -2.7799 H        1 ZINC000000004016    0.2000
37     H37    -3.6911   -1.5719   -0.3351 H        1 ZINC000000004016    0.1500
@<TRIPOS>BOND
1     1     2     1
2     1     22    1
3     1     23    1
4     1     24    1
5     2     3     1
6     2     4     1
7     2     25    1
8     3     26    1
9     3     27    1
10    3     28    1
11    4     5     1
12    5     21    ar
13    5     6     ar
14    6     7     ar
15    6     29    1
16    7     8     ar
17    7     30    1
18    8     20    ar
19    8     9     1
20    9     10    2
21    9     11    1
22    11    12    1
23    11    18    2
24    12    17    ar
25    12    13    ar
26    13    14    ar
27    13    31    1
28    14    15    ar
29    14    32    1
30    15    16    ar
31    15    33    1
32    16    17    ar
33    16    34    1
34    17    35    1
35    18    19    1
36    18    36    1
37    19    20    1
38    20    21    ar
39    21    37    1
@<TRIPOS>SUBSTRUCTURE
1   ZINC000000004016 1     RESIDUE    1   A     ZIN   1
