@<TRIPOS>MOLECULE
ZINC000035952535
60    63    1     0     0
SMALL
USER_CHARGES
@<TRIPOS>ATOM
1      C1     -5.3545    0.6583   -1.6196 C.3      1 ZINC000035952535   -0.1500
2      C2     -4.5039   -0.5758   -1.4629 C.ar     1 ZINC000035952535    0.2500
3      C3     -4.2756   -1.3866   -2.5710 C.ar     1 ZINC000035952535   -0.1900
4      C4     -3.5062   -2.5101   -2.4469 C.ar     1 ZINC000035952535    0.0600
5      C5     -2.9665   -2.8083   -1.1849 C.ar     1 ZINC000035952535   -0.1400
6      C6     -2.1628   -3.9501   -0.9811 C.ar     1 ZINC000035952535    0.2800
7      N7     -1.8859   -4.8125   -2.0379 N.pl3    1 ZINC000035952535   -0.7200
8      C8     -1.0506   -5.9958   -1.8181 C.3      1 ZINC000035952535    0.0800
9      C9     -0.9033   -6.7672   -3.1312 C.3      1 ZINC000035952535    0.0900
10     O10    -2.1934   -7.1737   -3.5921 O.3      1 ZINC000035952535   -0.5200
11     C11    -0.0309   -8.0030   -2.9017 C.3      1 ZINC000035952535   -0.1500
12     C12     0.0295   -8.8305   -4.1871 C.3      1 ZINC000035952535   -0.0200
13     C13     0.2773  -10.2991   -3.8370 C.3      1 ZINC000035952535   -0.1400
14     C14    -1.2969   -8.7023   -4.9390 C.3      1 ZINC000035952535   -0.1600
15     C15     1.1512   -8.3254   -5.0575 C.ar     1 ZINC000035952535   -0.0400
16     C16     2.2340   -7.6922   -4.4838 C.ar     1 ZINC000035952535   -0.1600
17     C17     3.2695   -7.2234   -5.2746 C.ar     1 ZINC000035952535    0.0900
18     F18     4.3302   -6.6074   -4.7084 F        1 ZINC000035952535   -0.1300
19     C19     3.2133   -7.3892   -6.6488 C.ar     1 ZINC000035952535   -0.1200
20     C20     2.1308   -8.0194   -7.2220 C.ar     1 ZINC000035952535   -0.1400
21     C21     1.0929   -8.5048   -6.4374 C.ar     1 ZINC000035952535    0.1000
22     O22     0.1394   -9.1086   -7.1997 O.3      1 ZINC000035952535   -0.2900
23     C23     0.2743   -8.6689   -8.5620 C.3      1 ZINC000035952535    0.0500
24     C24     1.7825   -8.3337   -8.6641 C.3      1 ZINC000035952535   -0.1100
25     C25    -0.2471   -5.8674   -4.1804 C.3      1 ZINC000035952535    0.4600
26     F26     0.9860   -5.4136   -3.7000 F        1 ZINC000035952535   -0.1600
27     F27    -0.0495   -6.5937   -5.3597 F        1 ZINC000035952535   -0.1400
28     F28    -1.0778   -4.7723   -4.4408 F        1 ZINC000035952535   -0.1800
29     C29    -1.6538   -4.2027    0.2759 C.ar     1 ZINC000035952535   -0.2100
30     C30    -1.9266   -3.3449    1.3365 C.ar     1 ZINC000035952535    0.0300
31     C31    -2.6992   -2.2366    1.1662 C.ar     1 ZINC000035952535   -0.2100
32     C32    -3.2376   -1.9411   -0.0978 C.ar     1 ZINC000035952535    0.1800
33     N33    -3.9938   -0.8547   -0.2872 N.ar     1 ZINC000035952535   -0.4700
34     H34    -4.1721   -0.2633    0.4607 H        1 ZINC000035952535    0.4500
35     H35    -4.7219    1.5036   -1.8908 H        1 ZINC000035952535    0.1200
36     H36    -6.0946    0.4925   -2.4024 H        1 ZINC000035952535    0.1200
37     H37    -5.8621    0.8716   -0.6789 H        1 ZINC000035952535    0.1000
38     H38    -4.7058   -1.1288   -3.5274 H        1 ZINC000035952535    0.1800
39     H39    -3.3190   -3.1508   -3.2959 H        1 ZINC000035952535    0.1600
40     H40    -2.2460   -4.6301   -2.9199 H        1 ZINC000035952535    0.4100
41     H41    -0.0665   -5.6857   -1.4666 H        1 ZINC000035952535    0.1000
42     H42    -1.5180   -6.6368   -1.0707 H        1 ZINC000035952535    0.1000
43     H43    -2.6684   -7.7478   -2.9757 H        1 ZINC000035952535    0.4000
44     H44     0.9755   -7.6906   -2.6231 H        1 ZINC000035952535    0.1000
45     H45    -0.4589   -8.6062   -2.1010 H        1 ZINC000035952535    0.1100
46     H46    -0.4858  -10.6396   -3.1372 H        1 ZINC000035952535    0.0600
47     H47     0.2329  -10.9015   -4.7444 H        1 ZINC000035952535    0.0700
48     H48     1.2615  -10.4026   -3.3801 H        1 ZINC000035952535    0.0600
49     H49    -1.4341   -7.6697   -5.2602 H        1 ZINC000035952535    0.0900
50     H50    -1.2846   -9.3556   -5.8115 H        1 ZINC000035952535    0.0700
51     H51    -2.1168   -8.9902   -4.2811 H        1 ZINC000035952535    0.0600
52     H52     2.2742   -7.5612   -3.4125 H        1 ZINC000035952535    0.1400
53     H53     4.0176   -7.0244   -7.2704 H        1 ZINC000035952535    0.1400
54     H54     0.0109   -9.4690   -9.2538 H        1 ZINC000035952535    0.1100
55     H55    -0.3346   -7.7834   -8.7440 H        1 ZINC000035952535    0.0800
56     H56     1.9458   -7.4630   -9.2992 H        1 ZINC000035952535    0.1000
57     H57     2.3484   -9.1912   -9.0282 H        1 ZINC000035952535    0.1000
58     H58    -1.0380   -5.0749    0.4382 H        1 ZINC000035952535    0.1500
59     H59    -1.5186   -3.5620    2.3126 H        1 ZINC000035952535    0.1500
60     H60    -2.8988   -1.5843    2.0035 H        1 ZINC000035952535    0.1500
@<TRIPOS>BOND
1     1     2     1
2     1     35    1
3     1     36    1
4     1     37    1
5     2     33    ar
6     2     3     ar
7     3     4     ar
8     3     38    1
9     4     5     ar
10    4     39    1
11    5     32    ar
12    5     6     ar
13    6     7     1
14    6     29    ar
15    7     8     1
16    7     40    1
17    8     9     1
18    8     41    1
19    8     42    1
20    9     10    1
21    9     11    1
22    9     25    1
23    10    43    1
24    11    12    1
25    11    44    1
26    11    45    1
27    12    13    1
28    12    14    1
29    12    15    1
30    13    46    1
31    13    47    1
32    13    48    1
33    14    49    1
34    14    50    1
35    14    51    1
36    15    21    ar
37    15    16    ar
38    16    17    ar
39    16    52    1
40    17    18    1
41    17    19    ar
42    19    20    ar
43    19    53    1
44    20    24    1
45    20    21    ar
46    21    22    1
47    22    23    1
48    23    24    1
49    23    54    1
50    23    55    1
51    24    56    1
52    24    57    1
53    25    26    1
54    25    27    1
55    25    28    1
56    29    30    ar
57    29    58    1
58    30    31    ar
59    30    59    1
60    31    32    ar
61    31    60    1
62    32    33    ar
63    33    34    1
@<TRIPOS>SUBSTRUCTURE
1   ZINC000035952535 1     RESIDUE    1   A     ZIN   1
