@<TRIPOS>MOLECULE
ZINC000002583633
  29   30    0    0    0
SMALL
USER_CHARGES
NO_NAME
@<TRIPOS>ATOM
    1 O1        0.0021    -0.0041     0.0020 O.2    1 <0>      -0.5100
    2 C2       -0.0144     1.2136     0.0087 C.2    1 <0>       0.5500
    3 C3       -1.2461     1.9113     0.0302 C.2    1 <0>      -0.2900
    4 C4       -1.2363     3.2615     0.0376 C.2    1 <0>       0.1800
    5 N5       -0.0428     3.9305     0.0245 N.am   1 <0>      -0.5300
    6 C6       -0.0320     5.3955     0.0326 C.3    1 <0>       0.3100
    7 H7       -1.0461     5.7861    -0.0522 H      1 <0>       0.1300
    8 O8        0.7993     5.9037    -1.0328 O.3    1 <0>      -0.3400
    9 C9        1.1710     7.2445    -0.6719 C.3    1 <0>       0.0600
   10 H10       0.4626     7.9536    -1.1005 H      1 <0>       0.1000
   11 C11       2.5820     7.5478    -1.1797 C.3    1 <0>       0.0800
   12 O12       2.5808     7.5638    -2.6086 O.3    1 <0>      -0.5600
   13 C13       1.1341     7.3318     0.8662 C.3    1 <0>       0.0500
   14 H14       2.1287     7.5403     1.2604 H      1 <0>       0.0900
   15 O15       0.2095     8.3364     1.2881 O.3    1 <0>      -0.5400
   16 C16       0.6528     5.9291     1.3166 C.3    1 <0>       0.0800
   17 H17       1.4975     5.2987     1.5944 H      1 <0>       0.1000
   18 O18      -0.2800     6.0318     2.3942 O.3    1 <0>      -0.5400
   19 C19       1.1209     3.2557     0.0046 C.2    1 <0>       0.7000
   20 O20       2.1700     3.8702    -0.0065 O.2    1 <0>      -0.5300
   21 N21       1.1403     1.9098     0.0014 N.am   1 <0>      -0.6600
   22 H22      -2.1811     1.3708     0.0400 H      1 <0>       0.1800
   23 H23      -2.1661     3.8107     0.0536 H      1 <0>       0.1800
   24 H24       2.9015     8.5205    -0.8058 H      1 <0>       0.0600
   25 H25       3.2687     6.7790    -0.8255 H      1 <0>       0.0600
   26 H26       3.4449     7.7504    -3.0006 H      1 <0>       0.3800
   27 H27       0.4311     9.2273     0.9846 H      1 <0>       0.3900
   28 H28       0.0826     6.4437     3.1904 H      1 <0>       0.3900
   29 H29       1.9882     1.4389    -0.0127 H      1 <0>       0.4300
@<TRIPOS>BOND
   1    1    2 2
   2    2   21 am
   3    2    3 1
   4    3    4 2
   5    3   22 1
   6    4    5 1
   7    4   23 1
   8    5    6 1
   9    5   19 am
  10    6    7 1
  11    6   16 1
  12    6    8 1
  13    8    9 1
  14    9   10 1
  15    9   11 1
  16    9   13 1
  17   11   12 1
  18   11   24 1
  19   11   25 1
  20   12   26 1
  21   13   14 1
  22   13   15 1
  23   13   16 1
  24   15   27 1
  25   16   17 1
  26   16   18 1
  27   18   28 1
  28   19   20 2
  29   19   21 am
  30   21   29 1
