@<TRIPOS>MOLECULE
ZINC000001532183
29    30    1     0     0
SMALL
USER_CHARGES
@<TRIPOS>ATOM
1      N1     -0.0165    1.3681    0.0096 N.pl3    1 ZINC000001532183   -0.8300
2      C2      0.0021   -0.0041    0.0020 C.2      1 ZINC000001532183    0.6400
3      N3     -1.1382   -0.6578    0.0040 N.2      1 ZINC000001532183   -0.5600
4      C4     -1.1685   -1.9955   -0.0031 C.2      1 ZINC000001532183    0.3000
5      C5      0.0312   -2.7162   -0.0129 C.2      1 ZINC000001532183   -0.1500
6      N6     -0.2906   -4.0328   -0.0184 N.2      1 ZINC000001532183   -0.4300
7      C7     -1.5853   -4.1598   -0.0128 C.2      1 ZINC000001532183    0.2300
8      N8     -2.1710   -2.9271   -0.0033 N.pl3    1 ZINC000001532183   -0.4400
9      C9     -3.6099   -2.6516    0.0052 C.3      1 ZINC000001532183    0.1100
10     C10    -4.0940   -2.4238   -1.4282 C.3      1 ZINC000001532183    0.0200
11     O11    -5.4974   -2.1550   -1.4199 O.3      1 ZINC000001532183   -0.3800
12     C12    -6.0531   -1.9263   -2.7164 C.3      1 ZINC000001532183   -0.5400
13     P13    -6.2000   -3.5124   -3.6030 P.3      1 ZINC000001532183    2.1800
14     O14    -4.7819   -4.1619   -3.7497 O.co2    1 ZINC000001532183   -1.1600
15     O15    -7.1351   -4.4767   -2.7967 O.co2    1 ZINC000001532183   -1.1700
16     O16    -6.8092   -3.2617   -5.0244 O.co2    1 ZINC000001532183   -1.1800
17     C17     1.2511   -2.0002   -0.0145 C.2      1 ZINC000001532183    0.6000
18     O18     2.3198   -2.5868   -0.0229 O.2      1 ZINC000001532183   -0.5200
19     N19     1.2025   -0.6496   -0.0129 N.am     1 ZINC000001532183   -0.6600
20     H20     0.8168    1.8644    0.0043 H        1 ZINC000001532183    0.4100
21     H21    -0.8631    1.8416    0.0162 H        1 ZINC000001532183    0.4300
22     H22    -2.1170   -5.0999   -0.0150 H        1 ZINC000001532183    0.2300
23     H23    -4.1398   -3.5005    0.4371 H        1 ZINC000001532183    0.1100
24     H24    -3.8055   -1.7599    0.6009 H        1 ZINC000001532183    0.0900
25     H25    -3.5640   -1.5748   -1.8601 H        1 ZINC000001532183    0.0300
26     H26    -3.8983   -3.3154   -2.0238 H        1 ZINC000001532183    0.1200
27     H27    -7.0398   -1.4744   -2.6143 H        1 ZINC000001532183    0.0700
28     H28    -5.4025   -1.2554   -3.2774 H        1 ZINC000001532183    0.0200
29     H29     2.0260   -0.1371   -0.0140 H        1 ZINC000001532183    0.4100
@<TRIPOS>BOND
1     1     2     1
2     1     20    1
3     1     21    1
4     2     19    1
5     2     3     2
6     3     4     1
7     4     8     1
8     4     5     2
9     5     6     1
10    5     17    1
11    6     7     2
12    7     8     1
13    7     22    1
14    8     9     1
15    9     10    1
16    9     23    1
17    9     24    1
18    10    11    1
19    10    25    1
20    10    26    1
21    11    12    1
22    12    13    1
23    12    27    1
24    12    28    1
25    13    14    ar
26    13    15    ar
27    13    16    ar
28    17    18    2
29    17    19    am
30    19    29    1
@<TRIPOS>SUBSTRUCTURE
1   ZINC000001532183 1     RESIDUE    1   A     ZIN   1
