@<TRIPOS>MOLECULE
ZINC000030691750
30    30    1     0     0
SMALL
USER_CHARGES
@<TRIPOS>ATOM
1      O1      0.4326   -0.1185   -0.4004 O.2      1 ZINC000030691750   -0.9300
2      S2      0.4384    1.2988   -0.2982 S.o2     1 ZINC000030691750    2.7200
3      O3      1.6164    2.0827   -0.4291 O.2      1 ZINC000030691750   -0.9300
4      N4     -0.6225    1.8545   -1.4420 N.am     1 ZINC000030691750   -1.1000
5      C5     -0.8712    3.2922   -1.5733 C.3      1 ZINC000030691750    0.1500
6      H6     -0.0104    3.8457   -1.1981 H        1 ZINC000030691750    0.1300
7      C7     -2.1133    3.6709   -0.7641 C.3      1 ZINC000030691750    0.0400
8      O8     -3.2640    3.0474   -1.3379 O.3      1 ZINC000030691750   -0.5600
9      C9     -1.0973    3.6382   -3.0465 C.3      1 ZINC000030691750   -0.2000
10     C10    -1.2156    5.1557   -3.2016 C.3      1 ZINC000030691750    0.4700
11     F11    -0.0921    5.7710   -2.6391 F        1 ZINC000030691750   -0.1600
12     F12    -1.2942    5.4808   -4.5601 F        1 ZINC000030691750   -0.1600
13     F13    -2.3687    5.6028   -2.5476 F        1 ZINC000030691750   -0.1600
14     C14     0.0838    3.1312   -3.8764 C.3      1 ZINC000030691750    0.4600
15     F15     0.1920    1.7436   -3.7346 F        1 ZINC000030691750   -0.1600
16     F16    -0.1228    3.4475   -5.2235 F        1 ZINC000030691750   -0.1600
17     F17     1.2623    3.7389   -3.4302 F        1 ZINC000030691750   -0.1600
18     C18    -0.2447    1.6867    1.2790 C.2      1 ZINC000030691750   -0.8000
19     C19    -1.0545    0.8939    1.9817 C.2      1 ZINC000030691750    0.0300
20     C20    -1.4665    1.4113    3.1982 C.2      1 ZINC000030691750   -0.1500
21     C21    -0.9901    2.6256    3.4825 C.2      1 ZINC000030691750   -0.1100
22     Cl22   -1.3323    3.5215    4.9296 Cl       1 ZINC000030691750    0.0100
23     S23     0.0436    3.1754    2.1700 S.3      1 ZINC000030691750    0.2700
24     H24    -1.0792    1.2280   -2.0249 H        1 ZINC000030691750    0.4300
25     H25    -1.9928    3.3340    0.2654 H        1 ZINC000030691750    0.0700
26     H26    -2.2409    4.7533   -0.7796 H        1 ZINC000030691750    0.0800
27     H27    -4.0898    3.2440   -0.8748 H        1 ZINC000030691750    0.3900
28     H28    -2.0155    3.1647   -3.3941 H        1 ZINC000030691750    0.1800
29     H29    -1.3658   -0.0781    1.6286 H        1 ZINC000030691750    0.1700
30     H30    -2.1234    0.8737    3.8660 H        1 ZINC000030691750    0.1600
@<TRIPOS>BOND
1     1     2     2
2     2     3     2
3     2     4     am
4     2     18    1
5     4     5     1
6     4     24    1
7     5     6     1
8     5     7     1
9     5     9     1
10    7     8     1
11    7     25    1
12    7     26    1
13    8     27    1
14    9     10    1
15    9     14    1
16    9     28    1
17    10    11    1
18    10    12    1
19    10    13    1
20    14    15    1
21    14    16    1
22    14    17    1
23    18    23    1
24    18    19    2
25    19    20    1
26    19    29    1
27    20    21    2
28    20    30    1
29    21    22    1
30    21    23    1
@<TRIPOS>SUBSTRUCTURE
1   ZINC000030691750 1     RESIDUE    1   A     ZIN   1
