@<TRIPOS>MOLECULE
ZINC000000395671
  31   31    0    0    0
SMALL
USER_CHARGES
NO_NAME
@<TRIPOS>ATOM
    1 C1       -0.0187     1.5258     0.0104 C.3    1 <0>      -0.1500
    2 C2        0.0021    -0.0041     0.0020 C.3    1 <0>       0.0600
    3 O3        0.6817    -0.4723    -1.1926 O.3    1 <0>      -0.3600
    4 C4        0.7862    -1.8009    -1.3531 C.2    1 <0>       0.4300
    5 O5        0.3251    -2.5478    -0.5228 O.2    1 <0>      -0.5000
    6 C6        1.4787    -2.3609    -2.5688 C.3    1 <0>       0.1200
    7 H7        1.0161    -1.9563    -3.4690 H      1 <0>       0.1400
    8 O8        1.3600    -3.7849    -2.5709 O.3    1 <0>      -0.5300
    9 C9        2.9583    -1.9725    -2.5371 C.3    1 <0>      -0.1400
   10 C10       3.6342    -2.4331    -3.8300 C.3    1 <0>      -0.0800
   11 C11       5.0916    -2.0506    -3.7988 C.ar   1 <0>      -0.0900
   12 C12       5.4948    -0.8236    -4.2914 C.ar   1 <0>      -0.1200
   13 C13       6.8316    -0.4727    -4.2627 C.ar   1 <0>      -0.1200
   14 C14       7.7650    -1.3487    -3.7411 C.ar   1 <0>      -0.1200
   15 C15       7.3617    -2.5754    -3.2477 C.ar   1 <0>      -0.1200
   16 C16       6.0244    -2.9245    -3.2725 C.ar   1 <0>      -0.1200
   17 H17       1.0039     1.9031     0.0027 H      1 <0>       0.0700
   18 H18      -0.5459     1.8868    -0.8726 H      1 <0>       0.0700
   19 H19      -0.5289     1.8773     0.9072 H      1 <0>       0.0800
   20 H20       0.5293    -0.3651     0.8851 H      1 <0>       0.0700
   21 H21      -1.0205    -0.3814     0.0098 H      1 <0>       0.0700
   22 H22       1.7509    -4.2134    -1.7972 H      1 <0>       0.3900
   23 H23       3.0479    -0.8901    -2.4458 H      1 <0>       0.0900
   24 H24       3.4411    -2.4502    -1.6845 H      1 <0>       0.0700
   25 H25       3.5446    -3.5156    -3.9213 H      1 <0>       0.0800
   26 H26       3.1514    -1.9554    -4.6826 H      1 <0>       0.0800
   27 H27       4.7655    -0.1391    -4.6989 H      1 <0>       0.1200
   28 H28       7.1467     0.4857    -4.6482 H      1 <0>       0.1200
   29 H29       8.8095    -1.0749    -3.7194 H      1 <0>       0.1200
   30 H30       8.0911    -3.2600    -2.8405 H      1 <0>       0.1200
   31 H31       5.7093    -3.8829    -2.8870 H      1 <0>       0.1200
@<TRIPOS>BOND
   1    1    2 1
   2    1   17 1
   3    1   18 1
   4    1   19 1
   5    2    3 1
   6    2   20 1
   7    2   21 1
   8    3    4 1
   9    4    5 2
  10    4    6 1
  11    6    7 1
  12    6    8 1
  13    6    9 1
  14    8   22 1
  15    9   10 1
  16    9   23 1
  17    9   24 1
  18   10   11 1
  19   10   25 1
  20   10   26 1
  21   11   16 ar
  22   11   12 ar
  23   12   13 ar
  24   12   27 1
  25   13   14 ar
  26   13   28 1
  27   14   15 ar
  28   14   29 1
  29   15   16 ar
  30   15   30 1
  31   16   31 1
