@<TRIPOS>MOLECULE
ZINC000012370891
15    15    1     0     0
SMALL
USER_CHARGES
@<TRIPOS>ATOM
1      O1     -0.0173    1.4248    0.0099 O.3      1 ZINC000012370891   -0.5700
2      C2      0.0021   -0.0041    0.0020 C.3      1 ZINC000012370891    0.1300
3      C3     -1.4117   -0.5257    0.0127 C.ar     1 ZINC000012370891    0.1300
4      C4     -2.4680    0.3652    0.0218 C.ar     1 ZINC000012370891   -0.1400
5      C5     -3.7652   -0.1245    0.0312 C.ar     1 ZINC000012370891   -0.0500
6      C6     -3.9518   -1.4991    0.0310 C.ar     1 ZINC000012370891   -0.1500
7      Br7    -5.6962   -2.2288    0.0428 Br       1 ZINC000012370891   -0.0300
8      C8     -2.8453   -2.3290    0.0216 C.ar     1 ZINC000012370891    0.1400
9      N9     -1.6262   -1.8270    0.0078 N.ar     1 ZINC000012370891   -0.4700
10     H10     0.8606    1.8301    0.0037 H        1 ZINC000012370891    0.3900
11     H11     0.5123   -0.3556   -0.8948 H        1 ZINC000012370891    0.0800
12     H12     0.5293   -0.3651    0.8851 H        1 ZINC000012370891    0.0800
13     H13    -2.2855    1.4297    0.0220 H        1 ZINC000012370891    0.1500
14     H14    -4.6101    0.5481    0.0388 H        1 ZINC000012370891    0.1500
15     H15    -2.9815   -3.4004    0.0217 H        1 ZINC000012370891    0.1700
@<TRIPOS>BOND
1     1     2     1
2     1     10    1
3     2     3     1
4     2     11    1
5     2     12    1
6     3     9     ar
7     3     4     ar
8     4     5     ar
9     4     13    1
10    5     6     ar
11    5     14    1
12    6     7     1
13    6     8     ar
14    8     9     ar
15    8     15    1
@<TRIPOS>SUBSTRUCTURE
1   ZINC000012370891 1     RESIDUE    1   A     ZIN   1
