@<TRIPOS>MOLECULE
ZINC000014175798
69    69    1     0     0
SMALL
USER_CHARGES
@<TRIPOS>ATOM
1      C1      0.0188    2.6067   -3.3236 C.3      1 ZINC000014175798   -0.1500
2      C2      0.0290    1.1284   -2.9294 C.3      1 ZINC000014175798   -0.1300
3      C3      0.7795    0.3225   -3.9916 C.3      1 ZINC000014175798   -0.1200
4      C4      0.7897   -1.1558   -3.5974 C.3      1 ZINC000014175798   -0.1200
5      C5      1.5403   -1.9616   -4.6596 C.3      1 ZINC000014175798   -0.1200
6      C6      1.5504   -3.4400   -4.2654 C.3      1 ZINC000014175798   -0.1100
7      C7      2.3010   -4.2458   -5.3275 C.3      1 ZINC000014175798   -0.1200
8      C8      2.3110   -5.7019   -4.9393 C.2      1 ZINC000014175798    0.4600
9      O9      1.7731   -6.0585   -3.9179 O.2      1 ZINC000014175798   -0.5100
10     O10     2.9176   -6.6027   -5.7282 O.3      1 ZINC000014175798   -0.3400
11     C11     2.8879   -7.9872   -5.2918 C.3      1 ZINC000014175798    0.0300
12     C12     3.6241   -8.8591   -6.3109 C.3      1 ZINC000014175798    0.0900
13     H13     3.1941   -8.7034   -7.3003 H        1 ZINC000014175798    0.1400
14     O14     5.0078   -8.5027   -6.3315 O.3      1 ZINC000014175798   -0.5300
15     C15     3.4825  -10.3314   -5.9193 C.3      1 ZINC000014175798    0.0800
16     H16     3.8278  -10.4697   -4.8948 H        1 ZINC000014175798    0.0800
17     O17     2.1109  -10.7203   -6.0162 O.3      1 ZINC000014175798   -0.3600
18     C18     1.4247  -10.7482   -4.7630 C.3      1 ZINC000014175798    0.0200
19     C19     4.3248  -11.1932   -6.8621 C.3      1 ZINC000014175798    0.0900
20     H20     5.3811  -10.9610   -6.7266 H        1 ZINC000014175798    0.1000
21     O21     3.9450  -10.9376   -8.2172 O.3      1 ZINC000014175798   -0.2600
22     C22     4.3994  -11.7906   -9.1674 C.2      1 ZINC000014175798    0.1100
23     C23     4.3491  -11.3649  -10.5748 C.2      1 ZINC000014175798    0.5300
24     O24     4.7521  -12.1131  -11.4551 O.co2    1 ZINC000014175798   -0.6600
25     O25     3.9043  -10.2626  -10.8651 O.co2    1 ZINC000014175798   -0.6400
26     C26     4.8877  -12.9912   -8.8865 C.2      1 ZINC000014175798   -0.3500
27     C27     4.9868  -13.5084   -7.4770 C.3      1 ZINC000014175798    0.1800
28     H28     6.0180  -13.4295   -7.1327 H        1 ZINC000014175798    0.0900
29     N29     4.5656  -14.9110   -7.4407 N.pl3    1 ZINC000014175798   -0.6700
30     C30     5.4633  -15.9023   -7.7280 C.cat    1 ZINC000014175798    0.7400
31     N31     6.7203  -15.5923   -8.0409 N.pl3    1 ZINC000014175798   -0.8000
32     N32     5.0804  -17.1776   -7.6950 N.pl3    1 ZINC000014175798   -0.8000
33     H33     5.7169  -17.8806   -7.8988 H        1 ZINC000014175798    0.4400
34     H34     4.1649  -17.4034   -7.4672 H        1 ZINC000014175798    0.4400
35     C35     4.0792  -12.6783   -6.5632 C.3      1 ZINC000014175798    0.1100
36     H36     3.0357  -12.9242   -6.7599 H        1 ZINC000014175798    0.1300
37     N37     4.3976  -12.9614   -5.1615 N.am     1 ZINC000014175798   -0.7300
38     C38     3.8335  -14.0173   -4.5423 C.2      1 ZINC000014175798    0.5200
39     C39     4.1610  -14.3085   -3.1004 C.3      1 ZINC000014175798   -0.1800
40     O40     3.0623  -14.7330   -5.1455 O.2      1 ZINC000014175798   -0.5500
41     H41     1.0438    2.9699   -3.3982 H        1 ZINC000014175798    0.0500
42     H42    -0.4788    2.7226   -4.2865 H        1 ZINC000014175798    0.0500
43     H43    -0.5159    3.1808   -2.5669 H        1 ZINC000014175798    0.0500
44     H44     0.5265    1.0125   -1.9666 H        1 ZINC000014175798    0.0600
45     H45    -0.9960    0.7652   -2.8548 H        1 ZINC000014175798    0.0600
46     H46     0.2820    0.4384   -4.9545 H        1 ZINC000014175798    0.0600
47     H47     1.8045    0.6857   -4.0662 H        1 ZINC000014175798    0.0600
48     H48     1.2872   -1.2717   -2.6345 H        1 ZINC000014175798    0.0600
49     H49    -0.2353   -1.5190   -3.5228 H        1 ZINC000014175798    0.0600
50     H50     1.0427   -1.8458   -5.6224 H        1 ZINC000014175798    0.0700
51     H51     2.5653   -1.5984   -4.7342 H        1 ZINC000014175798    0.0700
52     H52     2.0480   -3.5558   -3.3025 H        1 ZINC000014175798    0.0700
53     H53     0.5255   -3.8032   -4.1908 H        1 ZINC000014175798    0.0700
54     H54     1.8035   -4.1300   -6.2904 H        1 ZINC000014175798    0.1100
55     H55     3.3260   -3.8826   -5.4022 H        1 ZINC000014175798    0.1100
56     H56     3.3758   -8.0727   -4.3208 H        1 ZINC000014175798    0.0700
57     H57     1.8532   -8.3200   -5.2090 H        1 ZINC000014175798    0.0900
58     H58     5.4559   -8.6164   -5.4821 H        1 ZINC000014175798    0.3700
59     H59     0.3833  -11.0260   -4.9252 H        1 ZINC000014175798    0.1000
60     H60     1.8975  -11.4782   -4.1061 H        1 ZINC000014175798    0.0400
61     H61     1.4700   -9.7615   -4.3020 H        1 ZINC000014175798    0.0500
62     H62     5.2255  -13.6195   -9.6974 H        1 ZINC000014175798    0.1500
63     H63     3.6502  -15.1368   -7.2129 H        1 ZINC000014175798    0.4400
64     H64     6.9992  -14.6636   -8.0649 H        1 ZINC000014175798    0.4400
65     H65     7.3569  -16.2953   -8.2446 H        1 ZINC000014175798    0.4300
66     H66     5.0144  -12.3890   -4.6791 H        1 ZINC000014175798    0.4100
67     H67     3.8737  -13.4571   -2.4835 H        1 ZINC000014175798    0.0900
68     H68     3.6143  -15.1937   -2.7753 H        1 ZINC000014175798    0.1000
69     H69     5.2318  -14.4854   -2.9996 H        1 ZINC000014175798    0.0900
@<TRIPOS>BOND
1     1     2     1
2     1     41    1
3     1     42    1
4     1     43    1
5     2     3     1
6     2     44    1
7     2     45    1
8     3     4     1
9     3     46    1
10    3     47    1
11    4     5     1
12    4     48    1
13    4     49    1
14    5     6     1
15    5     50    1
16    5     51    1
17    6     7     1
18    6     52    1
19    6     53    1
20    7     8     1
21    7     54    1
22    7     55    1
23    8     9     2
24    8     10    1
25    10    11    1
26    11    12    1
27    11    56    1
28    11    57    1
29    12    13    1
30    12    14    1
31    12    15    1
32    14    58    1
33    15    16    1
34    15    17    1
35    15    19    1
36    17    18    1
37    18    59    1
38    18    60    1
39    18    61    1
40    19    20    1
41    19    35    1
42    19    21    1
43    21    22    1
44    22    23    1
45    22    26    2
46    23    24    ar
47    23    25    ar
48    26    27    1
49    26    62    1
50    27    28    1
51    27    29    1
52    27    35    1
53    29    30    ar
54    29    63    1
55    30    31    ar
56    30    32    ar
57    31    64    1
58    31    65    1
59    32    33    1
60    32    34    1
61    35    36    1
62    35    37    1
63    37    38    am
64    37    66    1
65    38    39    1
66    38    40    2
67    39    67    1
68    39    68    1
69    39    69    1
@<TRIPOS>SUBSTRUCTURE
1   ZINC000014175798 1     RESIDUE    1   A     ZIN   1
