@<TRIPOS>MOLECULE
ZINC000000391809
23    24    1     0     0
SMALL
USER_CHARGES
@<TRIPOS>ATOM
1      O1      0.0021   -0.0041    0.0020 O.co2    1 ZINC000000391809   -0.6800
2      C2     -0.0145    1.2150    0.0087 C.2      1 ZINC000000391809    0.5000
3      O3      1.0330    1.8389    0.0021 O.co2    1 ZINC000000391809   -0.7000
4      C4     -1.3296    1.9507    0.0190 C.3      1 ZINC000000391809   -0.1600
5      C5     -2.4617    0.9559    0.0189 C.ar     1 ZINC000000391809    0.0000
6      C6     -2.9204    0.4081    1.2287 C.ar     1 ZINC000000391809   -0.0400
7      C7     -2.3434    0.7686    2.4585 C.ar     1 ZINC000000391809   -0.0800
8      C8     -2.8141    0.2176    3.6103 C.ar     1 ZINC000000391809   -0.1400
9      C9     -3.8617   -0.7015    3.5905 C.ar     1 ZINC000000391809   -0.1200
10     C10    -4.4445   -1.0747    2.4187 C.ar     1 ZINC000000391809   -0.1200
11     C11    -3.9861   -0.5263    1.2085 C.ar     1 ZINC000000391809   -0.0500
12     C12    -4.5631   -0.8866   -0.0208 C.ar     1 ZINC000000391809   -0.1400
13     C13    -4.0932   -0.3345   -1.1729 C.ar     1 ZINC000000391809   -0.1000
14     C14    -3.0489    0.5877   -1.1527 C.ar     1 ZINC000000391809   -0.1400
15     H15    -1.3917    2.5717    0.9126 H        1 ZINC000000391809    0.0700
16     H16    -1.4001    2.5813   -0.8673 H        1 ZINC000000391809    0.0700
17     H17    -1.5305    1.4790    2.4892 H        1 ZINC000000391809    0.1300
18     H18    -2.3689    0.4964    4.5540 H        1 ZINC000000391809    0.1200
19     H19    -4.2161   -1.1242    4.5191 H        1 ZINC000000391809    0.1200
20     H20    -5.2550   -1.7885    2.4187 H        1 ZINC000000391809    0.1200
21     H21    -5.3749   -1.5983   -0.0516 H        1 ZINC000000391809    0.1200
22     H22    -4.5382   -0.6135   -2.1166 H        1 ZINC000000391809    0.1200
23     H23    -2.6951    1.0111   -2.0811 H        1 ZINC000000391809    0.1200
@<TRIPOS>BOND
1     1     2     ar
2     2     3     ar
3     2     4     1
4     4     5     1
5     4     15    1
6     4     16    1
7     5     14    ar
8     5     6     ar
9     6     11    ar
10    6     7     ar
11    7     8     ar
12    7     17    1
13    8     9     ar
14    8     18    1
15    9     10    ar
16    9     19    1
17    10    11    ar
18    10    20    1
19    11    12    ar
20    12    13    ar
21    12    21    1
22    13    14    ar
23    13    22    1
24    14    23    1
@<TRIPOS>SUBSTRUCTURE
1   ZINC000000391809 1     RESIDUE    1   A     ZIN   1
