@<TRIPOS>MOLECULE
ZINC000021983587
44    47    1     0     0
SMALL
USER_CHARGES
@<TRIPOS>ATOM
1      N1     -0.0116    1.0048    0.0076 N.4      1 ZINC000021983587   -0.6300
2      H2      0.0021   -0.0041    0.0020 H        1 ZINC000021983587    0.4400
3      H3      0.9350    1.3541    0.0004 H        1 ZINC000021983587    0.4400
4      H4     -0.4996    1.3391   -0.8099 H        1 ZINC000021983587    0.4400
5      C5     -0.6992    1.4786    1.2162 C.3      1 ZINC000021983587    0.0100
6      H6     -1.7279    1.1186    1.2311 H        1 ZINC000021983587    0.1500
7      C7     -0.6701    3.0230    1.2796 C.3      1 ZINC000021983587   -0.1400
8      C8     -0.4347    3.3036    2.7850 C.3      1 ZINC000021983587    0.0300
9      N9      0.5030    2.2249    3.1892 N.3      1 ZINC000021983587   -0.4500
10     C10     0.4781    2.0336    4.5613 C.ar     1 ZINC000021983587    0.3200
11     N11     0.1388    0.8501    5.0436 N.ar     1 ZINC000021983587   -0.5300
12     C12     0.1000    0.6169    6.3500 C.ar     1 ZINC000021983587    0.4100
13     C13     0.4256    1.6465    7.2496 C.ar     1 ZINC000021983587   -0.2100
14     C14     0.7877    2.9089    6.7630 C.ar     1 ZINC000021983587    0.0000
15     C15     0.8179    3.0951    5.4065 C.ar     1 ZINC000021983587    0.0000
16     F16     1.1612    4.2953    4.8901 F        1 ZINC000021983587   -0.1200
17     C17     0.3774    1.3710    8.6938 C.2      1 ZINC000021983587    0.4200
18     O18     0.6503    2.2303    9.5140 O.2      1 ZINC000021983587   -0.4200
19     C19    -0.0155    0.0120    9.1066 C.2      1 ZINC000021983587   -0.2600
20     C20    -0.0891   -0.3452   10.5272 C.2      1 ZINC000021983587    0.5300
21     O21    -0.4168   -1.4775   10.8574 O.co2    1 ZINC000021983587   -0.6900
22     O22     0.1772    0.4888   11.3827 O.co2    1 ZINC000021983587   -0.6500
23     C23    -0.3138   -0.9191    8.1304 C.2      1 ZINC000021983587    0.1400
24     N24    -0.2577   -0.6265    6.8236 N.pl3    1 ZINC000021983587   -0.4400
25     C25    -0.5764   -1.6295    5.8984 C.ar     1 ZINC000021983587    0.0800
26     C26    -1.8851   -1.7823    5.4621 C.ar     1 ZINC000021983587   -0.0400
27     C27    -2.1975   -2.7716    4.5499 C.ar     1 ZINC000021983587   -0.1600
28     C28    -1.2068   -3.6117    4.0703 C.ar     1 ZINC000021983587    0.1400
29     F29    -1.5157   -4.5783    3.1783 F        1 ZINC000021983587   -0.1300
30     C30     0.1003   -3.4626    4.5032 C.ar     1 ZINC000021983587   -0.1900
31     C31     0.4193   -2.4700    5.4113 C.ar     1 ZINC000021983587    0.1600
32     F32     1.6942   -2.3237    5.8336 F        1 ZINC000021983587   -0.1100
33     C33     0.0500    1.0079    2.4765 C.3      1 ZINC000021983587    0.0100
34     H34     0.1504    3.4182    0.6806 H        1 ZINC000021983587    0.1000
35     H35    -1.6228    3.4404    0.9538 H        1 ZINC000021983587    0.1100
36     H36     0.0217    4.2832    2.9270 H        1 ZINC000021983587    0.1200
37     H37    -1.3693    3.2292    3.3409 H        1 ZINC000021983587    0.0800
38     H38     1.0408    3.7123    7.4389 H        1 ZINC000021983587    0.1700
39     H39    -0.6016   -1.9159    8.4304 H        1 ZINC000021983587    0.1800
40     H40    -2.6589   -1.1282    5.8358 H        1 ZINC000021983587    0.1500
41     H41    -3.2160   -2.8902    4.2106 H        1 ZINC000021983587    0.1500
42     H42     0.8715   -4.1189    4.1278 H        1 ZINC000021983587    0.1600
43     H43    -0.6190    0.4310    3.1151 H        1 ZINC000021983587    0.1200
44     H44     0.9105    0.4021    2.1923 H        1 ZINC000021983587    0.1000
@<TRIPOS>BOND
1     1     2     1
2     1     3     1
3     1     4     1
4     1     5     1
5     5     6     1
6     5     33    1
7     5     7     1
8     7     8     1
9     7     34    1
10    7     35    1
11    8     9     1
12    8     36    1
13    8     37    1
14    9     10    1
15    9     33    1
16    10    15    ar
17    10    11    ar
18    11    12    ar
19    12    24    1
20    12    13    ar
21    13    14    ar
22    13    17    1
23    14    15    ar
24    14    38    1
25    15    16    1
26    17    18    2
27    17    19    1
28    19    20    1
29    19    23    2
30    20    21    ar
31    20    22    ar
32    23    24    1
33    23    39    1
34    24    25    1
35    25    31    ar
36    25    26    ar
37    26    27    ar
38    26    40    1
39    27    28    ar
40    27    41    1
41    28    29    1
42    28    30    ar
43    30    31    ar
44    30    42    1
45    31    32    1
46    33    43    1
47    33    44    1
@<TRIPOS>SUBSTRUCTURE
1   ZINC000021983587 1     RESIDUE    1   A     ZIN   1
