@<TRIPOS>MOLECULE
ZINC000012353762
39    42    1     0     0
SMALL
USER_CHARGES
@<TRIPOS>ATOM
1      O1     -0.0164    1.3548    0.0095 O.3      1 ZINC000012353762   -0.5000
2      C2      0.0021   -0.0041    0.0020 C.ar     1 ZINC000012353762    0.1100
3      C3      0.0058   -0.6923   -1.2026 C.ar     1 ZINC000012353762   -0.1500
4      C4      0.0251   -2.0736   -1.2075 C.ar     1 ZINC000012353762   -0.0900
5      C5      0.0401   -2.7702   -0.0132 C.ar     1 ZINC000012353762   -0.0900
6      C6      0.0606   -4.2770   -0.0215 C.3      1 ZINC000012353762    0.1400
7      H7     -0.2905   -4.6400   -0.9875 H        1 ZINC000012353762    0.0800
8      O8     -0.7925   -4.7702    1.0108 O.3      1 ZINC000012353762   -0.3000
9      C9     -0.7708   -6.1101    1.2418 C.ar     1 ZINC000012353762    0.1200
10     C10    -1.8696   -6.6939    1.8622 C.ar     1 ZINC000012353762   -0.1300
11     C11    -1.8855   -8.0504    2.1162 C.ar     1 ZINC000012353762   -0.1100
12     C12    -0.8006   -8.8324    1.7493 C.ar     1 ZINC000012353762    0.0800
13     O13    -0.8108  -10.1695    1.9964 O.3      1 ZINC000012353762   -0.5000
14     C14     0.2933   -8.2502    1.1306 C.ar     1 ZINC000012353762   -0.1100
15     C15     0.3120   -6.8872    0.8750 C.ar     1 ZINC000012353762   -0.1300
16     C16     1.5270   -6.3068    0.1994 C.3      1 ZINC000012353762   -0.0500
17     H17     1.6285   -6.6908   -0.8157 H        1 ZINC000012353762    0.0900
18     C18     2.7660   -6.6608    1.0524 C.3      1 ZINC000012353762   -0.1200
19     C19     3.0226   -5.4570    1.9759 C.3      1 ZINC000012353762   -0.1200
20     C20     1.9322   -4.4134    1.6535 C.3      1 ZINC000012353762   -0.1200
21     C21     1.4833   -4.7673    0.2191 C.3      1 ZINC000012353762   -0.1100
22     H22     2.1720   -4.3509   -0.5160 H        1 ZINC000012353762    0.1000
23     C23     0.0368   -2.0866    1.1886 C.ar     1 ZINC000012353762   -0.0700
24     C24     0.0230   -0.7053    1.1989 C.ar     1 ZINC000012353762   -0.1500
25     H25     0.8616    1.7601    0.0033 H        1 ZINC000012353762    0.3900
26     H26    -0.0066   -0.1486   -2.1357 H        1 ZINC000012353762    0.1300
27     H27     0.0280   -2.6098   -2.1449 H        1 ZINC000012353762    0.1300
28     H28    -2.7138   -6.0834    2.1469 H        1 ZINC000012353762    0.1400
29     H29    -2.7401   -8.5014    2.5986 H        1 ZINC000012353762    0.1400
30     H30    -1.1838  -10.6993    1.2785 H        1 ZINC000012353762    0.3900
31     H31     1.1369   -8.8613    0.8457 H        1 ZINC000012353762    0.1300
32     H32     2.5674   -7.5522    1.6474 H        1 ZINC000012353762    0.0700
33     H33     3.6286   -6.8267    0.4070 H        1 ZINC000012353762    0.0700
34     H34     2.9486   -5.7642    3.0191 H        1 ZINC000012353762    0.0600
35     H35     4.0097   -5.0387    1.7786 H        1 ZINC000012353762    0.0700
36     H36     1.0977   -4.5063    2.3485 H        1 ZINC000012353762    0.0700
37     H37     2.3468   -3.4058    1.6859 H        1 ZINC000012353762    0.0700
38     H38     0.0490   -2.6330    2.1202 H        1 ZINC000012353762    0.1300
39     H39     0.0204   -0.1718    2.1379 H        1 ZINC000012353762    0.1300
@<TRIPOS>BOND
1     1     2     1
2     1     25    1
3     2     24    ar
4     2     3     ar
5     3     4     ar
6     3     26    1
7     4     5     ar
8     4     27    1
9     5     6     1
10    5     23    ar
11    6     7     1
12    6     21    1
13    6     8     1
14    8     9     1
15    9     15    ar
16    9     10    ar
17    10    11    ar
18    10    28    1
19    11    12    ar
20    11    29    1
21    12    13    1
22    12    14    ar
23    13    30    1
24    14    15    ar
25    14    31    1
26    15    16    1
27    16    17    1
28    16    21    1
29    16    18    1
30    18    19    1
31    18    32    1
32    18    33    1
33    19    20    1
34    19    34    1
35    19    35    1
36    20    21    1
37    20    36    1
38    20    37    1
39    21    22    1
40    23    24    ar
41    23    38    1
42    24    39    1
@<TRIPOS>SUBSTRUCTURE
1   ZINC000012353762 1     RESIDUE    1   A     ZIN   1
