@<TRIPOS>MOLECULE
ZINC000001481819
47    48    1     0     0
SMALL
USER_CHARGES
@<TRIPOS>ATOM
1      C1      0.3389   -2.5098    2.5288 C.3      1 ZINC000001481819   -0.1100
2      C2     -0.3389   -2.0023    1.2822 C.ar     1 ZINC000001481819   -0.0600
3      C3     -0.1248   -2.6360    0.0739 C.ar     1 ZINC000001481819   -0.1300
4      C4     -0.7498   -2.1677   -1.0744 C.ar     1 ZINC000001481819    0.1600
5      N5     -0.5354   -2.8078   -2.3001 N.am     1 ZINC000001481819   -0.6800
6      C6     -0.3264   -4.1387   -2.3378 C.2      1 ZINC000001481819    0.5100
7      O7     -0.4024   -4.7936   -1.3197 O.2      1 ZINC000001481819   -0.5000
8      C8      0.0016   -4.8132   -3.6449 C.3      1 ZINC000001481819   -0.0800
9      C9      0.1868   -6.2910   -3.4149 C.ar     1 ZINC000001481819   -0.1300
10     C10     1.4381   -6.7895   -3.1027 C.ar     1 ZINC000001481819   -0.0800
11     C11     1.6105   -8.1437   -2.8915 C.ar     1 ZINC000001481819   -0.1700
12     C12     0.5266   -9.0038   -2.9924 C.ar     1 ZINC000001481819    0.1700
13     O13     0.6935  -10.3364   -2.7847 O.3      1 ZINC000001481819   -0.3000
14     C14    -0.4841  -11.1459   -2.7871 C.3      1 ZINC000001481819    0.0300
15     C15    -0.0988  -12.6074   -2.5497 C.3      1 ZINC000001481819   -0.1200
16     C16    -1.4258  -10.6796   -1.6750 C.3      1 ZINC000001481819   -0.1700
17     C17    -1.1780  -11.0193   -4.1188 C.2      1 ZINC000001481819    0.4800
18     O18    -0.7076  -10.3023   -4.9856 O.co2    1 ZINC000001481819   -0.6700
19     O19    -2.2097  -11.6338   -4.3295 O.co2    1 ZINC000001481819   -0.6900
20     C20    -0.7280   -8.5012   -3.3054 C.ar     1 ZINC000001481819   -0.1500
21     C21    -0.8960   -7.1455   -3.5110 C.ar     1 ZINC000001481819   -0.0800
22     C22    -1.5884   -1.0630   -1.0036 C.ar     1 ZINC000001481819   -0.1600
23     C23    -1.7983   -0.4337    0.2077 C.ar     1 ZINC000001481819   -0.0700
24     C24    -2.7085    0.7648    0.2855 C.3      1 ZINC000001481819   -0.1100
25     C25    -1.1789   -0.9060    1.3503 C.ar     1 ZINC000001481819   -0.1400
26     H26    -0.2953   -3.2546    3.0097 H        1 ZINC000001481819    0.0700
27     H27     1.2945   -2.9626    2.2641 H        1 ZINC000001481819    0.0700
28     H28     0.5079   -1.6793    3.2143 H        1 ZINC000001481819    0.0700
29     H29     0.5282   -3.4947    0.0220 H        1 ZINC000001481819    0.1400
30     H30    -0.5372   -2.2937   -3.1226 H        1 ZINC000001481819    0.4100
31     H31    -0.8141   -4.6547   -4.3503 H        1 ZINC000001481819    0.1000
32     H32     0.9206   -4.3908   -4.0511 H        1 ZINC000001481819    0.1000
33     H33     2.2815   -6.1195   -3.0242 H        1 ZINC000001481819    0.1100
34     H34     2.5882   -8.5327   -2.6483 H        1 ZINC000001481819    0.1200
35     H35     0.3262  -12.7136   -1.5516 H        1 ZINC000001481819    0.0500
36     H36    -0.9855  -13.2355   -2.6357 H        1 ZINC000001481819    0.0800
37     H37     0.6374  -12.9144   -3.2926 H        1 ZINC000001481819    0.0600
38     H38    -1.7249   -9.6481   -1.8609 H        1 ZINC000001481819    0.0700
39     H39    -2.3100  -11.3167   -1.6568 H        1 ZINC000001481819    0.0700
40     H40    -0.9132  -10.7418   -0.7150 H        1 ZINC000001481819    0.0500
41     H41    -1.5732   -9.1687   -3.3850 H        1 ZINC000001481819    0.1400
42     H42    -1.8726   -6.7536   -3.7544 H        1 ZINC000001481819    0.1100
43     H43    -2.0756   -0.6962   -1.8950 H        1 ZINC000001481819    0.1200
44     H44    -3.7275    0.4346    0.4874 H        1 ZINC000001481819    0.0700
45     H45    -2.3744    1.4233    1.0873 H        1 ZINC000001481819    0.0700
46     H46    -2.6820    1.3033   -0.6618 H        1 ZINC000001481819    0.0700
47     H47    -1.3447   -0.4122    2.2964 H        1 ZINC000001481819    0.1200
@<TRIPOS>BOND
1     1     2     1
2     1     26    1
3     1     27    1
4     1     28    1
5     2     25    ar
6     2     3     ar
7     3     4     ar
8     3     29    1
9     4     5     1
10    4     22    ar
11    5     6     am
12    5     30    1
13    6     7     2
14    6     8     1
15    8     9     1
16    8     31    1
17    8     32    1
18    9     21    ar
19    9     10    ar
20    10    11    ar
21    10    33    1
22    11    12    ar
23    11    34    1
24    12    13    1
25    12    20    ar
26    13    14    1
27    14    15    1
28    14    16    1
29    14    17    1
30    15    35    1
31    15    36    1
32    15    37    1
33    16    38    1
34    16    39    1
35    16    40    1
36    17    18    ar
37    17    19    ar
38    20    21    ar
39    20    41    1
40    21    42    1
41    22    23    ar
42    22    43    1
43    23    24    1
44    23    25    ar
45    24    44    1
46    24    45    1
47    24    46    1
48    25    47    1
@<TRIPOS>SUBSTRUCTURE
1   ZINC000001481819 1     RESIDUE    1   A     ZIN   1
