@<TRIPOS>MOLECULE
ZINC000003831283
41    43    1     0     0
SMALL
USER_CHARGES
@<TRIPOS>ATOM
1      C1     -0.4096    1.6319    0.5283 C.3      1 ZINC000003831283   -0.1200
2      C2     -0.2542    0.1545    0.1625 C.3      1 ZINC000003831283    0.0000
3      C3     -1.6148   -0.5401    0.0767 C.3      1 ZINC000003831283   -0.1500
4      S4      0.7067   -0.0538   -1.3958 S.3      1 ZINC000003831283   -0.3100
5      C5      1.4062   -1.6866   -0.9346 C.3      1 ZINC000003831283    0.0900
6      H6      2.4306   -1.8438   -1.2723 H        1 ZINC000003831283    0.1500
7      C7      0.4544   -2.8517   -1.1998 C.3      1 ZINC000003831283    0.0900
8      H8      0.9321   -3.7350   -1.6238 H        1 ZINC000003831283    0.1400
9      N9     -0.7852   -2.4758   -1.8840 N.am     1 ZINC000003831283   -0.7000
10     C10    -1.5477   -3.4227   -2.4657 C.2      1 ZINC000003831283    0.5200
11     O11    -1.2076   -4.5861   -2.4228 O.2      1 ZINC000003831283   -0.5100
12     C12    -2.8229   -3.0360   -3.1696 C.3      1 ZINC000003831283    0.0400
13     O13    -3.4479   -4.2064   -3.7002 O.3      1 ZINC000003831283   -0.2900
14     C14    -4.6172   -4.0316   -4.3702 C.ar     1 ZINC000003831283    0.1300
15     C15    -5.1492   -2.7589   -4.5189 C.ar     1 ZINC000003831283   -0.2100
16     C16    -6.3378   -2.5838   -5.2008 C.ar     1 ZINC000003831283   -0.0800
17     C17    -6.9974   -3.6755   -5.7345 C.ar     1 ZINC000003831283   -0.1600
18     C18    -6.4695   -4.9449   -5.5873 C.ar     1 ZINC000003831283   -0.0800
19     C19    -5.2780   -5.1247   -4.9116 C.ar     1 ZINC000003831283   -0.1500
20     C20     0.3581   -2.8585    0.3024 C.2      1 ZINC000003831283    0.4700
21     O21    -0.2517   -3.5730    1.0695 O.2      1 ZINC000003831283   -0.3800
22     N22     1.1991   -1.7953    0.5164 N.am     1 ZINC000003831283   -0.4900
23     C23     0.6944   -0.5779    1.1535 C.3      1 ZINC000003831283    0.0200
24     H24     1.5308    0.0651    1.4276 H        1 ZINC000003831283    0.1100
25     C25    -0.0899   -0.9411    2.3880 C.2      1 ZINC000003831283    0.5000
26     O26    -0.1942   -2.1089    2.7224 O.co2    1 ZINC000003831283   -0.6400
27     O27    -0.6201   -0.0671    3.0524 O.co2    1 ZINC000003831283   -0.6800
28     H28     0.5654    2.1183    0.4977 H        1 ZINC000003831283    0.0600
29     H29    -1.0788    2.1142   -0.1842 H        1 ZINC000003831283    0.0600
30     H30    -0.8261    1.7158    1.5321 H        1 ZINC000003831283    0.1000
31     H31    -2.1680   -0.1513   -0.7782 H        1 ZINC000003831283    0.0600
32     H32    -1.4678   -1.6135   -0.0433 H        1 ZINC000003831283    0.0600
33     H33    -2.1778   -0.3504    0.9906 H        1 ZINC000003831283    0.0900
34     H34    -1.0573   -1.5454   -1.9184 H        1 ZINC000003831283    0.4100
35     H35    -3.4968   -2.5536   -2.4616 H        1 ZINC000003831283    0.1000
36     H36    -2.5947   -2.3460   -3.9819 H        1 ZINC000003831283    0.1000
37     H37    -4.6348   -1.9060   -4.1016 H        1 ZINC000003831283    0.1300
38     H38    -6.7524   -1.5933   -5.3168 H        1 ZINC000003831283    0.1300
39     H39    -7.9267   -3.5365   -6.2669 H        1 ZINC000003831283    0.1200
40     H40    -6.9868   -5.7961   -6.0048 H        1 ZINC000003831283    0.1300
41     H41    -4.8661   -6.1164   -4.7969 H        1 ZINC000003831283    0.1300
@<TRIPOS>BOND
1     1     2     1
2     1     28    1
3     1     29    1
4     1     30    1
5     2     23    1
6     2     3     1
7     2     4     1
8     3     31    1
9     3     32    1
10    3     33    1
11    4     5     1
12    5     6     1
13    5     22    1
14    5     7     1
15    7     8     1
16    7     9     1
17    7     20    1
18    9     10    am
19    9     34    1
20    10    11    2
21    10    12    1
22    12    13    1
23    12    35    1
24    12    36    1
25    13    14    1
26    14    19    ar
27    14    15    ar
28    15    16    ar
29    15    37    1
30    16    17    ar
31    16    38    1
32    17    18    ar
33    17    39    1
34    18    19    ar
35    18    40    1
36    19    41    1
37    20    21    2
38    20    22    am
39    22    23    1
40    23    24    1
41    23    25    1
42    25    26    ar
43    25    27    ar
@<TRIPOS>SUBSTRUCTURE
1   ZINC000003831283 1     RESIDUE    1   A     ZIN   1
