@<TRIPOS>MOLECULE
ZINC000014974925
67    70    1     0     0
SMALL
USER_CHARGES
@<TRIPOS>ATOM
1      C1     -0.0203    1.4731    0.7054 C.3      1 ZINC000014974925   -0.1700
2      C2     -0.0016   -0.0490    0.5513 C.3      1 ZINC000014974925    0.1200
3      N3     -1.3743   -0.5433    0.4187 N.am     1 ZINC000014974925   -0.7200
4      C4     -1.6040   -1.8630    0.2704 C.2      1 ZINC000014974925    0.6100
5      O5     -0.6725   -2.6429    0.2467 O.2      1 ZINC000014974925   -0.5200
6      C6     -2.9927   -2.3631    0.1361 C.2      1 ZINC000014974925   -0.0300
7      N7     -4.0957   -1.6544    0.1364 N.2      1 ZINC000014974925   -0.3500
8      O8     -5.0836   -2.3346    0.0089 O.3      1 ZINC000014974925    0.1300
9      C9     -4.8118   -3.6460   -0.1017 C.2      1 ZINC000014974925    0.1400
10     C10    -5.7837   -4.7411   -0.2686 C.ar     1 ZINC000014974925   -0.2300
11     C11    -5.5829   -5.7134   -1.2518 C.ar     1 ZINC000014974925    0.0000
12     C12    -6.4936   -6.7357   -1.4042 C.ar     1 ZINC000014974925   -0.2300
13     C13    -6.2753   -7.7839   -2.4648 C.3      1 ZINC000014974925    0.0000
14     C14    -4.9814   -7.4806   -3.2230 C.3      1 ZINC000014974925   -0.1400
15     C15    -6.1698   -9.1611   -1.8066 C.3      1 ZINC000014974925   -0.1400
16     C16    -7.4530   -7.7742   -3.4414 C.3      1 ZINC000014974925   -0.1400
17     C17    -7.6129   -6.8040   -0.5829 C.ar     1 ZINC000014974925    0.1700
18     O18    -8.5058   -7.8153   -0.7393 O.3      1 ZINC000014974925   -0.5000
19     C19    -7.8215   -5.8433    0.3964 C.ar     1 ZINC000014974925   -0.2800
20     C20    -6.9113   -4.8148    0.5628 C.ar     1 ZINC000014974925    0.3100
21     O21    -7.1140   -3.8740    1.5206 O.3      1 ZINC000014974925   -0.7000
22     C22    -3.4255   -3.7604   -0.0322 C.2      1 ZINC000014974925   -0.1800
23     C23    -2.5941   -4.9836   -0.1022 C.ar     1 ZINC000014974925    0.0300
24     C24    -2.6575   -5.9328    0.9181 C.ar     1 ZINC000014974925   -0.0900
25     C25    -1.8803   -7.0706    0.8471 C.ar     1 ZINC000014974925   -0.1100
26     C26    -1.0394   -7.2711   -0.2330 C.ar     1 ZINC000014974925   -0.0900
27     C27    -0.1932   -8.5161   -0.3042 C.3      1 ZINC000014974925    0.1000
28     N28    -0.9373   -9.5749   -0.9993 N.3      1 ZINC000014974925   -0.5300
29     C29    -2.3139   -9.6712   -0.4923 C.3      1 ZINC000014974925    0.0100
30     C30    -3.0693  -10.7429   -1.2827 C.3      1 ZINC000014974925    0.0600
31     O31    -2.3675  -11.9850   -1.1831 O.3      1 ZINC000014974925   -0.3900
32     C32    -1.0235  -11.9274   -1.6686 C.3      1 ZINC000014974925    0.0600
33     C33    -0.2474  -10.8677   -0.8821 C.3      1 ZINC000014974925    0.0200
34     C34    -0.9723   -6.3337   -1.2483 C.ar     1 ZINC000014974925   -0.1000
35     C35    -1.7485   -5.1943   -1.1915 C.ar     1 ZINC000014974925   -0.0900
36     H36     1.0010    1.8409    0.8041 H        1 ZINC000014974925    0.0700
37     H37    -0.4846    1.9215   -0.1730 H        1 ZINC000014974925    0.0600
38     H38    -0.5906    1.7414    1.5947 H        1 ZINC000014974925    0.0600
39     H39     0.5687   -0.3172   -0.3380 H        1 ZINC000014974925    0.0700
40     H40     0.4627   -0.4974    1.4296 H        1 ZINC000014974925    0.0700
41     H41    -2.1179    0.0793    0.4375 H        1 ZINC000014974925    0.4100
42     H42    -4.7145   -5.6633   -1.8920 H        1 ZINC000014974925    0.1100
43     H43    -4.1424   -7.4874   -2.5272 H        1 ZINC000014974925    0.0600
44     H44    -4.8236   -8.2387   -3.9900 H        1 ZINC000014974925    0.0500
45     H45    -5.0566   -6.4994   -3.6918 H        1 ZINC000014974925    0.0500
46     H46    -7.0916   -9.3772   -1.2665 H        1 ZINC000014974925    0.0500
47     H47    -6.0119   -9.9192   -2.5737 H        1 ZINC000014974925    0.0500
48     H48    -5.3308   -9.1680   -1.1108 H        1 ZINC000014974925    0.0500
49     H49    -7.5281   -6.7931   -3.9103 H        1 ZINC000014974925    0.0500
50     H50    -7.2951   -8.5324   -4.2085 H        1 ZINC000014974925    0.0400
51     H51    -8.3747   -7.9903   -2.9013 H        1 ZINC000014974925    0.0700
52     H52    -8.3104   -8.5984   -0.2067 H        1 ZINC000014974925    0.3800
53     H53    -8.6928   -5.9010    1.0320 H        1 ZINC000014974925    0.1100
54     H54    -3.3133   -5.7772    1.7619 H        1 ZINC000014974925    0.1200
55     H55    -1.9282   -7.8061    1.6365 H        1 ZINC000014974925    0.1100
56     H56     0.7258   -8.3001   -0.8492 H        1 ZINC000014974925    0.0800
57     H57     0.0521   -8.8469    0.7050 H        1 ZINC000014974925    0.0400
58     H58    -2.2949   -9.9431    0.5631 H        1 ZINC000014974925    0.0400
59     H59    -2.8141   -8.7102   -0.6123 H        1 ZINC000014974925    0.1000
60     H60    -4.0727  -10.8579   -0.8728 H        1 ZINC000014974925    0.1000
61     H61    -3.1349  -10.4448   -2.3291 H        1 ZINC000014974925    0.0600
62     H62    -0.5473  -12.8991   -1.5378 H        1 ZINC000014974925    0.0900
63     H63    -1.0296  -11.6638   -2.7263 H        1 ZINC000014974925    0.0600
64     H64     0.7610  -10.7802   -1.2867 H        1 ZINC000014974925    0.0800
65     H65    -0.1953  -11.1587    0.1670 H        1 ZINC000014974925    0.0400
66     H66    -0.3142   -6.4960   -2.0891 H        1 ZINC000014974925    0.1200
67     H67    -1.6954   -4.4632   -1.9846 H        1 ZINC000014974925    0.1100
@<TRIPOS>BOND
1     1     2     1
2     1     36    1
3     1     37    1
4     1     38    1
5     2     3     1
6     2     39    1
7     2     40    1
8     3     4     am
9     3     41    1
10    4     5     2
11    4     6     1
12    6     22    1
13    6     7     2
14    7     8     1
15    8     9     1
16    9     10    1
17    9     22    2
18    10    20    ar
19    10    11    ar
20    11    12    ar
21    11    42    1
22    12    13    1
23    12    17    ar
24    13    14    1
25    13    15    1
26    13    16    1
27    14    43    1
28    14    44    1
29    14    45    1
30    15    46    1
31    15    47    1
32    15    48    1
33    16    49    1
34    16    50    1
35    16    51    1
36    17    18    1
37    17    19    ar
38    18    52    1
39    19    20    ar
40    19    53    1
41    20    21    1
42    22    23    1
43    23    35    ar
44    23    24    ar
45    24    25    ar
46    24    54    1
47    25    26    ar
48    25    55    1
49    26    27    1
50    26    34    ar
51    27    28    1
52    27    56    1
53    27    57    1
54    28    33    1
55    28    29    1
56    29    30    1
57    29    58    1
58    29    59    1
59    30    31    1
60    30    60    1
61    30    61    1
62    31    32    1
63    32    33    1
64    32    62    1
65    32    63    1
66    33    64    1
67    33    65    1
68    34    35    ar
69    34    66    1
70    35    67    1
@<TRIPOS>SUBSTRUCTURE
1   ZINC000014974925 1     RESIDUE    1   A     ZIN   1
