@<TRIPOS>MOLECULE
ZINC000003925649
  58   62    0    0    0
SMALL
NO_CHARGES
@<TRIPOS>ATOM
   1 N1             0.5187    -1.3349     0.7367 N.1     
   2 C2             0.4324    -0.2079     0.6236 C.1     
   3 C3             0.3236     1.2129     0.4810 C.ar    
   4 C4            -0.9269     1.8323     0.5633 C.ar    
   5 C5            -1.0294     3.2008     0.4499 C.ar    
   6 C6             0.1111     3.9689     0.2411 C.ar    
   7 C7             1.3526     3.3455     0.1175 C.ar    
   8 C8             1.4699     1.9869     0.2645 C.ar    
   9 C9             2.5586     4.1909    -0.2443 C.3     
  10 N10            2.8491     5.1165     0.8511 N.am    
  11 S11            4.0262     4.7364     1.9521 S.o2    
  12 O12            3.6105     5.2926     3.1920 O.2     
  13 O13            4.3096     3.3552     1.7759 O.2     
  14 C14            5.4831     5.6075     1.4797 C.2     
  15 C15            5.8871     6.7683     1.9979 C.2     
  16 C16            7.0661     7.2644     1.4688 C.2     
  17 C17            7.6196     6.5065     0.5209 C.2     
  18 S18            6.6312     5.0756     0.2580 S.3     
  19 C19            2.1114     6.3763     0.9858 C.3     
  20 H20            2.1935     6.9395     0.0562 H       
  21 C21            2.7228     7.1960     2.1240 C.3     
  22 C22            2.1475     8.5887     2.1052 C.ar    
  23 C23            2.7970     9.5956     1.4159 C.ar    
  24 C24            2.2693    10.8732     1.3987 C.ar    
  25 C25            1.0919    11.1437     2.0705 C.ar    
  26 C26            0.4418    10.1366     2.7590 C.ar    
  27 C27            0.9673     8.8581     2.7727 C.ar    
  28 C28            0.6453     6.1251     1.2873 C.3     
  29 N29            0.0345     5.3543     0.1929 N.pl3   
  30 C30           -0.6364     6.0311    -0.9197 C.3     
  31 C31            0.3608     6.3052    -2.0158 C.2     
  32 C32            1.0484     7.4496    -2.1921 C.2     
  33 N33            1.8370     7.2717    -3.2967 N.pl3   
  34 C34            1.6038     6.0238    -3.7572 C.cat   
  35 N35            0.7236     5.4500    -2.9833 N.pl3   
  36 H36            0.3815     4.5490    -3.0935 H       
  37 H37           -1.8145     1.2363     0.7158 H       
  38 H38           -1.9957     3.6777     0.5228 H       
  39 H39            2.4399     1.5159     0.2046 H       
  40 H40            3.4195     3.5436    -0.4114 H       
  41 H41            2.3470     4.7565    -1.1518 H       
  42 H42            5.3359     7.2824     2.7714 H       
  43 H43            7.5045     8.1949     1.7982 H       
  44 H44            8.5363     6.7347    -0.0025 H       
  45 H45            2.4933     6.7209     3.0778 H       
  46 H46            3.8038     7.2476     1.9945 H       
  47 H47            3.7170     9.3842     0.8911 H       
  48 H48            2.7772    11.6600     0.8608 H       
  49 H49            0.6800    12.1420     2.0576 H       
  50 H50           -0.4779    10.3481     3.2841 H       
  51 H51            0.4594     8.0713     3.3106 H       
  52 H52            0.5579     5.5641     2.2178 H       
  53 H53            0.1283     7.0790     1.3911 H       
  54 H54           -1.4335     5.3950    -1.3045 H       
  55 H55           -1.0599     6.9727    -0.5700 H       
  56 H56            0.9888     8.3373    -1.5799 H       
  57 H57            2.4491     7.9207    -3.6775 H       
  58 H58            2.0713     5.5739    -4.6206 H       
@<TRIPOS>BOND
   1    1    2 3
   2    2    3 1
   3    3    8 ar
   4    3    4 ar
   5    4    5 ar
   6    4   37 1
   7    5    6 ar
   8    5   38 1
   9    6   29 1
  10    6    7 ar
  11    7    8 ar
  12    7    9 1
  13    8   39 1
  14    9   10 1
  15    9   40 1
  16    9   41 1
  17   10   11 am
  18   10   19 1
  19   11   12 2
  20   11   13 2
  21   11   14 1
  22   14   18 1
  23   14   15 2
  24   15   16 1
  25   15   42 1
  26   16   17 2
  27   16   43 1
  28   17   18 1
  29   17   44 1
  30   19   20 1
  31   19   21 1
  32   19   28 1
  33   21   22 1
  34   21   45 1
  35   21   46 1
  36   22   27 ar
  37   22   23 ar
  38   23   24 ar
  39   23   47 1
  40   24   25 ar
  41   24   48 1
  42   25   26 ar
  43   25   49 1
  44   26   27 ar
  45   26   50 1
  46   27   51 1
  47   28   29 1
  48   28   52 1
  49   28   53 1
  50   29   30 1
  51   30   31 1
  52   30   54 1
  53   30   55 1
  54   31   35 1
  55   31   32 2
  56   32   33 1
  57   32   56 1
  58   33   34 ar
  59   33   57 1
  60   34   35 ar
  61   34   58 1
  62   35   36 1
