@<TRIPOS>MOLECULE
ZINC000016970473
  19   20    0    0    0
SMALL
USER_CHARGES
NO_NAME
@<TRIPOS>ATOM
    1 N1       -0.0167     1.3793     0.0096 N.pl3  1 <0>      -0.8100
    2 C2        0.0021    -0.0041     0.0020 C.2    1 <0>       0.5100
    3 N3       -1.0447    -0.7999     0.0020 N.2    1 <0>      -0.3700
    4 N4       -0.6752    -2.0297    -0.0067 N.2    1 <0>      -0.0100
    5 N5        0.6111    -2.1121    -0.0127 N.2    1 <0>      -0.0800
    6 N6        1.1034    -0.7951    -0.0127 N.pl3  1 <0>      -0.3700
    7 C7        2.4452    -0.3873    -0.0182 C.ar   1 <0>       0.1400
    8 C8        2.8204     0.7606    -0.7028 C.ar   1 <0>      -0.1400
    9 C9        4.1426     1.1598    -0.7064 C.ar   1 <0>      -0.0900
   10 C10       5.0923     0.4173    -0.0290 C.ar   1 <0>      -0.1100
   11 C11       4.7216    -0.7268     0.6534 C.ar   1 <0>      -0.0900
   12 C12       3.3999    -1.1275     0.6658 C.ar   1 <0>      -0.1000
   13 H13       0.8167     1.8757     0.0043 H      1 <0>       0.4200
   14 H14      -0.8632     1.8528     0.0162 H      1 <0>       0.4300
   15 H15       2.0791     1.3408    -1.2324 H      1 <0>       0.1300
   16 H16       4.4352     2.0526    -1.2391 H      1 <0>       0.1400
   17 H17       6.1256     0.7314    -0.0332 H      1 <0>       0.1400
   18 H18       5.4656    -1.3049     1.1814 H      1 <0>       0.1400
   19 H19       3.1110    -2.0212     1.1989 H      1 <0>       0.1400
@<TRIPOS>BOND
   1    1    2 1
   2    1   13 1
   3    1   14 1
   4    2    6 1
   5    2    3 2
   6    3    4 1
   7    4    5 2
   8    5    6 1
   9    6    7 1
  10    7   12 ar
  11    7    8 ar
  12    8    9 ar
  13    8   15 1
  14    9   10 ar
  15    9   16 1
  16   10   11 ar
  17   10   17 1
  18   11   12 ar
  19   11   18 1
  20   12   19 1
