@<TRIPOS>MOLECULE
ZINC000006716700
  52   54    0    0    0
SMALL
USER_CHARGES
NO_NAME
@<TRIPOS>ATOM
    1 C1       -0.0178     1.4648     0.0101 C.3    1 <0>       0.0300
    2 N2        0.0021    -0.0041     0.0020 N.3    1 <0>      -0.5300
    3 C3        0.7859    -0.5261     1.1294 C.3    1 <0>       0.0200
    4 C4       -1.3620    -0.5491     0.0121 C.3    1 <0>       0.1100
    5 C5       -1.3118    -2.0335    -0.2431 C.2    1 <0>      -0.0700
    6 C6       -1.3587    -2.6568    -1.4487 C.2    1 <0>      -0.0200
    7 C7       -1.4690    -1.9782    -2.7478 C.2    1 <0>       0.6000
    8 O8       -1.5256    -0.7640    -2.7970 O.2    1 <0>      -0.5000
    9 N9       -1.5072    -2.7012    -3.8846 N.am   1 <0>      -0.7200
   10 C10      -1.6171    -2.0248    -5.1795 C.3    1 <0>       0.1200
   11 C11      -1.6402    -3.0674    -6.2991 C.3    1 <0>       0.0400
   12 O12      -2.8227    -3.8617    -6.1860 O.3    1 <0>      -0.3100
   13 C13      -2.9982    -4.8405    -7.1095 C.ar   1 <0>       0.1600
   14 C14      -2.0454    -5.0352    -8.1026 C.ar   1 <0>      -0.2200
   15 C15      -2.2197    -6.0272    -9.0416 C.ar   1 <0>      -0.0100
   16 C16      -3.3561    -6.8390    -8.9948 C.ar   1 <0>      -0.1700
   17 C17      -3.5467    -7.9038    -9.9991 C.2    1 <0>       0.5800
   18 O18      -2.7143    -8.0755   -10.8685 O.2    1 <0>      -0.5200
   19 N19      -4.6434    -8.6858    -9.9523 N.am   1 <0>      -0.5900
   20 O20      -4.8262    -9.7073   -10.9157 O.3    1 <0>      -0.3100
   21 C21      -4.3114    -6.6403    -7.9946 C.ar   1 <0>      -0.0500
   22 C22      -4.1273    -5.6493    -7.0564 C.ar   1 <0>      -0.1600
   23 O23      -1.2884    -3.9931    -1.2742 O.3    1 <0>      -0.1800
   24 C24      -1.1936    -4.3018     0.0337 C.ar   1 <0>       0.0700
   25 C25      -1.0973    -5.5044     0.7238 C.ar   1 <0>      -0.1100
   26 C26      -1.0123    -5.5012     2.0995 C.ar   1 <0>      -0.0800
   27 C27      -1.0220    -4.3078     2.8082 C.ar   1 <0>      -0.1400
   28 C28      -1.1163    -3.1132     2.1514 C.ar   1 <0>      -0.0600
   29 C29      -1.1962    -3.0943     0.7571 C.ar   1 <0>      -0.1400
   30 H30       1.0047     1.8421     0.0024 H      1 <0>       0.0700
   31 H31      -0.5450     1.8259    -0.8730 H      1 <0>       0.0700
   32 H32      -0.5280     1.8163     0.9069 H      1 <0>       0.0300
   33 H33       0.3442    -0.1877     2.0667 H      1 <0>       0.0300
   34 H34       0.7843    -1.6157     1.0994 H      1 <0>       0.0700
   35 H35       1.8110    -0.1623     1.0586 H      1 <0>       0.0700
   36 H36      -1.8206    -0.3627     0.9832 H      1 <0>       0.0500
   37 H37      -1.9520    -0.0663    -0.7669 H      1 <0>       0.1100
   38 H38      -1.4621    -3.6694    -3.8454 H      1 <0>       0.4100
   39 H39      -2.5372    -1.4411    -5.2076 H      1 <0>       0.0900
   40 H40      -0.7623    -1.3627    -5.3172 H      1 <0>       0.1000
   41 H41      -1.6324    -2.5631    -7.2654 H      1 <0>       0.0900
   42 H42      -0.7626    -3.7085    -6.2167 H      1 <0>       0.0800
   43 H43      -1.1673    -4.4073    -8.1381 H      1 <0>       0.1400
   44 H44      -1.4793    -6.1774    -9.8134 H      1 <0>       0.1400
   45 H45      -5.3075    -8.5488    -9.2587 H      1 <0>       0.4100
   46 H46      -5.6412   -10.2149   -10.8008 H      1 <0>       0.3900
   47 H47      -5.1910    -7.2657    -7.9551 H      1 <0>       0.1300
   48 H48      -4.8650    -5.4953    -6.2828 H      1 <0>       0.1400
   49 H49      -1.0895    -6.4394     0.1833 H      1 <0>       0.1400
   50 H50      -0.9376    -6.4378     2.6320 H      1 <0>       0.1400
   51 H51      -0.9549    -4.3235     3.8860 H      1 <0>       0.1300
   52 H52      -1.1242    -2.1875     2.7077 H      1 <0>       0.1300
@<TRIPOS>BOND
   1    1    2 1
   2    1   30 1
   3    1   31 1
   4    1   32 1
   5    2    3 1
   6    2    4 1
   7    3   33 1
   8    3   34 1
   9    3   35 1
  10    4    5 1
  11    4   36 1
  12    4   37 1
  13    5   29 1
  14    5    6 2
  15    6    7 1
  16    6   23 1
  17    7    8 2
  18    7    9 am
  19    9   10 1
  20    9   38 1
  21   10   11 1
  22   10   39 1
  23   10   40 1
  24   11   12 1
  25   11   41 1
  26   11   42 1
  27   12   13 1
  28   13   22 ar
  29   13   14 ar
  30   14   15 ar
  31   14   43 1
  32   15   16 ar
  33   15   44 1
  34   16   17 1
  35   16   21 ar
  36   17   18 2
  37   17   19 am
  38   19   20 1
  39   19   45 1
  40   20   46 1
  41   21   22 ar
  42   21   47 1
  43   22   48 1
  44   23   24 1
  45   24   29 ar
  46   24   25 ar
  47   25   26 ar
  48   25   49 1
  49   26   27 ar
  50   26   50 1
  51   27   28 ar
  52   27   51 1
  53   28   29 ar
  54   28   52 1
