@<TRIPOS>MOLECULE
ZINC000045257926
60    62    1     0     0
SMALL
USER_CHARGES
@<TRIPOS>ATOM
1      C1      1.0240    1.0938   -0.6117 C.3      1 ZINC000045257926    0.0800
2      N2      0.9092   -0.3655   -0.5527 N.am     1 ZINC000045257926   -0.7100
3      C3      1.3381   -1.0317    0.5376 C.2      1 ZINC000045257926    0.5700
4      O4      1.8201   -0.4217    1.4719 O.2      1 ZINC000045257926   -0.5300
5      C5      1.2222   -2.5054    0.5972 C.ar     1 ZINC000045257926    0.0800
6      C6      1.6626   -3.1859    1.7302 C.ar     1 ZINC000045257926   -0.1600
7      C7      1.5480   -4.5696    1.7731 C.ar     1 ZINC000045257926    0.1400
8      O8      1.9656   -5.2693    2.8602 O.3      1 ZINC000045257926   -0.2900
9      C9      2.5209   -4.5178    3.9413 C.3      1 ZINC000045257926    0.0200
10     C10     0.9921   -5.2238    0.6709 C.ar     1 ZINC000045257926    0.0700
11     O11     0.8598   -6.5755    0.6686 O.3      1 ZINC000045257926   -0.2600
12     C12     0.1651   -7.1575   -0.4363 C.3      1 ZINC000045257926    0.0600
13     H13    -0.6048   -6.4691   -0.7847 H        1 ZINC000045257926    0.1000
14     C14     1.1531   -7.4345   -1.5712 C.3      1 ZINC000045257926   -0.1800
15     C15    -0.4762   -8.4502   -0.0018 C.2      1 ZINC000045257926    0.5200
16     O16    -0.1578   -8.9612    1.0510 O.2      1 ZINC000045257926   -0.5000
17     N17    -1.4035   -9.0384   -0.7832 N.am     1 ZINC000045257926   -0.6100
18     C18    -1.7104   -8.4988   -2.1153 C.3      1 ZINC000045257926    0.0800
19     C19    -3.2168   -8.2226   -2.1971 C.3      1 ZINC000045257926    0.1000
20     N20    -3.9388   -9.4154   -1.7325 N.am     1 ZINC000045257926   -0.6100
21     C21    -4.8654  -10.0042   -2.5143 C.2      1 ZINC000045257926    0.5700
22     O22    -5.0410   -9.6102   -3.6507 O.2      1 ZINC000045257926   -0.5300
23     C23    -5.6685  -11.1292   -1.9896 C.ar     1 ZINC000045257926   -0.1300
24     C24    -6.1700  -11.0852   -0.6878 C.ar     1 ZINC000045257926   -0.0900
25     C25    -6.9191  -12.1381   -0.2045 C.ar     1 ZINC000045257926   -0.1200
26     C26    -7.1730  -13.2362   -1.0070 C.ar     1 ZINC000045257926   -0.0900
27     C27    -6.6784  -13.2863   -2.2982 C.ar     1 ZINC000045257926   -0.1200
28     C28    -5.9332  -12.2374   -2.7959 C.ar     1 ZINC000045257926   -0.0700
29     C29    -3.6319   -9.9550   -0.4004 C.3      1 ZINC000045257926    0.0900
30     C30    -2.1215  -10.2345   -0.3209 C.3      1 ZINC000045257926    0.1300
31     H31    -1.8433  -10.4511    0.7105 H        1 ZINC000045257926    0.1200
32     C32    -1.7732  -11.4310   -1.2087 C.3      1 ZINC000045257926   -0.1600
33     C33     0.5759   -4.4746   -0.4228 C.ar     1 ZINC000045257926    0.0500
34     N34     0.6942   -3.1650   -0.4281 N.ar     1 ZINC000045257926   -0.4400
35     H35     2.0722    1.3796   -0.5238 H        1 ZINC000045257926    0.0600
36     H36     0.6284    1.4512   -1.5624 H        1 ZINC000045257926    0.0800
37     H37     0.4569    1.5362    0.2072 H        1 ZINC000045257926    0.0600
38     H38     0.5246   -0.8523   -1.2983 H        1 ZINC000045257926    0.4100
39     H39     2.0875   -2.6454    2.5631 H        1 ZINC000045257926    0.1600
40     H40     2.8131   -5.1961    4.7429 H        1 ZINC000045257926    0.1100
41     H41     3.3961   -3.9703    3.5915 H        1 ZINC000045257926    0.0600
42     H42     1.7770   -3.8137    4.3143 H        1 ZINC000045257926    0.0600
43     H43     1.6782   -6.5146   -1.8284 H        1 ZINC000045257926    0.0800
44     H44     1.8737   -8.1866   -1.2501 H        1 ZINC000045257926    0.0800
45     H45     0.6112   -7.7996   -2.4436 H        1 ZINC000045257926    0.0900
46     H46    -1.1595   -7.5711   -2.2700 H        1 ZINC000045257926    0.1000
47     H47    -1.4297   -9.2253   -2.8779 H        1 ZINC000045257926    0.0900
48     H48    -3.4679   -7.3728   -1.5624 H        1 ZINC000045257926    0.0800
49     H49    -3.4936   -8.0062   -3.2289 H        1 ZINC000045257926    0.1100
50     H50    -5.9719  -10.2289   -0.0602 H        1 ZINC000045257926    0.1300
51     H51    -7.3077  -12.1053    0.8026 H        1 ZINC000045257926    0.1300
52     H52    -7.7596  -14.0580   -0.6238 H        1 ZINC000045257926    0.1300
53     H53    -6.8799  -14.1465   -2.9194 H        1 ZINC000045257926    0.1300
54     H54    -5.5480  -12.2775   -3.8040 H        1 ZINC000045257926    0.1300
55     H55    -3.9125   -9.2285    0.3622 H        1 ZINC000045257926    0.0800
56     H56    -4.1828  -10.8828   -0.2457 H        1 ZINC000045257926    0.1100
57     H57    -2.0467  -11.2098   -2.2403 H        1 ZINC000045257926    0.0600
58     H58    -0.7026  -11.6270   -1.1507 H        1 ZINC000045257926    0.0600
59     H59    -2.3223  -12.3086   -0.8674 H        1 ZINC000045257926    0.0700
60     H60     0.1457   -4.9742   -1.2782 H        1 ZINC000045257926    0.1700
@<TRIPOS>BOND
1     1     2     1
2     1     35    1
3     1     36    1
4     1     37    1
5     2     3     am
6     2     38    1
7     3     4     2
8     3     5     1
9     5     34    ar
10    5     6     ar
11    6     7     ar
12    6     39    1
13    7     8     1
14    7     10    ar
15    8     9     1
16    9     40    1
17    9     41    1
18    9     42    1
19    10    11    1
20    10    33    ar
21    11    12    1
22    12    13    1
23    12    14    1
24    12    15    1
25    14    43    1
26    14    44    1
27    14    45    1
28    15    16    2
29    15    17    am
30    17    30    1
31    17    18    1
32    18    19    1
33    18    46    1
34    18    47    1
35    19    20    1
36    19    48    1
37    19    49    1
38    20    21    am
39    20    29    1
40    21    22    2
41    21    23    1
42    23    28    ar
43    23    24    ar
44    24    25    ar
45    24    50    1
46    25    26    ar
47    25    51    1
48    26    27    ar
49    26    52    1
50    27    28    ar
51    27    53    1
52    28    54    1
53    29    30    1
54    29    55    1
55    29    56    1
56    30    31    1
57    30    32    1
58    32    57    1
59    32    58    1
60    32    59    1
61    33    34    ar
62    33    60    1
@<TRIPOS>SUBSTRUCTURE
1   ZINC000045257926 1     RESIDUE    1   A     ZIN   1
