@<TRIPOS>MOLECULE
ZINC000043153259
48    51    1     0     0
SMALL
USER_CHARGES
@<TRIPOS>ATOM
1      C1      0.1397    1.0993    0.3142 C.3      1 ZINC000043153259    0.0900
2      N2     -0.5388    1.1378   -0.9836 N.pl3    1 ZINC000043153259   -0.7300
3      C3      0.0372    0.5176   -2.0888 C.ar     1 ZINC000043153259    0.2600
4      C4      1.2524   -0.1410   -1.9544 C.ar     1 ZINC000043153259   -0.2300
5      C5      1.8218   -0.7561   -3.0550 C.ar     1 ZINC000043153259    0.2500
6      C6      1.1635   -0.7077   -4.2984 C.ar     1 ZINC000043153259   -0.2300
7      C7     -0.0575   -0.0422   -4.4193 C.ar     1 ZINC000043153259    0.0000
8      C8     -0.6137    0.5573   -3.3237 C.ar     1 ZINC000043153259   -0.0100
9      F9     -1.7954    1.2018   -3.4389 F        1 ZINC000043153259   -0.1400
10     C10     1.7972   -1.3728   -5.4467 C.2      1 ZINC000043153259    0.5600
11     O11     1.2702   -1.3602   -6.5431 O.2      1 ZINC000043153259   -0.4800
12     N12     2.9789   -1.9975   -5.2541 N.am     1 ZINC000043153259   -0.5000
13     C13     3.6018   -2.6381   -6.3354 C.ar     1 ZINC000043153259    0.0700
14     C14     3.6885   -4.0236   -6.3651 C.ar     1 ZINC000043153259   -0.0700
15     C15     4.3014   -4.6542   -7.4291 C.ar     1 ZINC000043153259   -0.1100
16     C16     4.8315   -3.9028   -8.4700 C.ar     1 ZINC000043153259    0.2100
17     N17     5.4528   -4.5423   -9.5495 N.pl3    1 ZINC000043153259   -0.6600
18     C18     5.0067   -5.7734   -9.9686 C.2      1 ZINC000043153259    0.6800
19     O19     3.9098   -6.3229   -9.4027 O.3      1 ZINC000043153259   -0.7200
20     N20     5.6408   -6.4091  -10.9101 N.am     1 ZINC000043153259   -1.1000
21     S21     5.1034   -7.8919  -11.4149 S.o2     1 ZINC000043153259    2.7000
22     O22     5.2849   -8.7788  -10.3195 O.2      1 ZINC000043153259   -0.9900
23     O23     3.8447   -7.6722  -12.0367 O.2      1 ZINC000043153259   -0.9900
24     C24     6.1966   -8.4386  -12.6840 C.2      1 ZINC000043153259   -0.7300
25     C25     7.2985   -9.1639  -12.4894 C.2      1 ZINC000043153259   -0.0100
26     C26     8.0022   -9.4768  -13.6402 C.2      1 ZINC000043153259   -0.1400
27     C27     7.4702   -9.0045  -14.7698 C.2      1 ZINC000043153259   -0.1400
28     Cl28    8.1277   -9.2373  -16.3596 Cl       1 ZINC000043153259   -0.0200
29     S29     5.9969   -8.1172  -14.4017 S.3      1 ZINC000043153259    0.2600
30     C30     4.7447   -2.5170   -8.4401 C.ar     1 ZINC000043153259   -0.1600
31     C31     4.1266   -1.8870   -7.3786 C.ar     1 ZINC000043153259   -0.0700
32     C32     3.5696   -2.0173   -4.0491 C.2      1 ZINC000043153259    0.7000
33     O33     4.6333   -2.5943   -3.9315 O.2      1 ZINC000043153259   -0.5200
34     N34     3.0347   -1.4262   -2.9667 N.am     1 ZINC000043153259   -0.6400
35     H35     0.2638    0.0630    0.6287 H        1 ZINC000043153259    0.0600
36     H36     1.1179    1.5722    0.2270 H        1 ZINC000043153259    0.0600
37     H37    -0.4579    1.6339    1.0526 H        1 ZINC000043153259    0.0800
38     H38    -1.3894    1.5954   -1.0728 H        1 ZINC000043153259    0.4100
39     H39     1.7502   -0.1725   -0.9964 H        1 ZINC000043153259    0.1500
40     H40    -0.5626   -0.0046   -5.3732 H        1 ZINC000043153259    0.1600
41     H41     3.2766   -4.6078   -5.5555 H        1 ZINC000043153259    0.1200
42     H42     4.3691   -5.7319   -7.4520 H        1 ZINC000043153259    0.1500
43     H43     6.1980   -4.1168  -10.0017 H        1 ZINC000043153259    0.4100
44     H44     7.6182   -9.4829  -11.5083 H        1 ZINC000043153259    0.1600
45     H45     8.9122  -10.0583  -13.6250 H        1 ZINC000043153259    0.1500
46     H46     5.1567   -1.9325   -9.2494 H        1 ZINC000043153259    0.1300
47     H47     4.0591   -0.8094   -7.3553 H        1 ZINC000043153259    0.1200
48     H48     3.5002   -1.4678   -2.1168 H        1 ZINC000043153259    0.4300
@<TRIPOS>BOND
1     1     2     1
2     1     35    1
3     1     36    1
4     1     37    1
5     2     3     1
6     2     38    1
7     3     8     ar
8     3     4     ar
9     4     5     ar
10    4     39    1
11    5     34    1
12    5     6     ar
13    6     7     ar
14    6     10    1
15    7     8     ar
16    7     40    1
17    8     9     1
18    10    11    2
19    10    12    am
20    12    13    1
21    12    32    am
22    13    31    ar
23    13    14    ar
24    14    15    ar
25    14    41    1
26    15    16    ar
27    15    42    1
28    16    17    1
29    16    30    ar
30    17    18    1
31    17    43    1
32    18    19    1
33    18    20    2
34    20    21    am
35    21    22    2
36    21    23    2
37    21    24    1
38    24    29    1
39    24    25    2
40    25    26    1
41    25    44    1
42    26    27    2
43    26    45    1
44    27    28    1
45    27    29    1
46    30    31    ar
47    30    46    1
48    31    47    1
49    32    33    2
50    32    34    am
51    34    48    1
@<TRIPOS>SUBSTRUCTURE
1   ZINC000043153259 1     RESIDUE    1   A     ZIN   1
