@<TRIPOS>MOLECULE
ZINC000004214493
  33   36    0    0    0
SMALL
USER_CHARGES
NO_NAME
@<TRIPOS>ATOM
    1 N1       -0.0167     1.3801     0.0096 N.pl3  1 <0>      -0.8100
    2 C2        0.0021    -0.0041     0.0020 C.ar   1 <0>       0.5200
    3 C3       -1.1951    -0.7391     0.0036 C.ar   1 <0>      -0.1000
    4 N4       -2.5113    -0.4160     0.0126 N.2    1 <0>      -0.4300
    5 C5       -3.2251    -1.5060     0.0102 C.2    1 <0>       0.3200
    6 Cl6      -4.9602    -1.5608     0.0187 Cl     1 <0>       0.0700
    7 N7       -2.4075    -2.5975    -0.0005 N.pl3  1 <0>      -0.4600
    8 C8       -2.8330    -3.9994    -0.0067 C.3    1 <0>       0.2600
    9 H9       -1.9981    -4.6392    -0.2926 H      1 <0>       0.1400
   10 O10      -3.9312    -4.1774    -0.9346 O.3    1 <0>      -0.3400
   11 C11      -4.7567    -5.1855    -0.3570 C.3    1 <0>      -0.0100
   12 H12      -4.2656    -6.1545    -0.4465 H      1 <0>       0.1000
   13 C13      -6.1748    -5.2850    -0.8832 C.3    1 <0>       0.1100
   14 O14      -6.7902    -6.4111    -0.2127 O.3    1 <0>      -0.7100
   15 P15      -6.7033    -6.5476     1.4026 P.3    1 <0>       2.1300
   16 O16      -7.8435    -5.7406     2.0626 O.co2  1 <0>      -1.0600
   17 O17      -6.8031    -8.0338     1.8129 O.co2  1 <0>      -1.0400
   18 O18      -5.2572    -5.9391     1.8515 O.3    1 <0>      -0.6800
   19 C19      -4.8181    -4.7712     1.1383 C.3    1 <0>       0.0900
   20 H20      -5.4865    -3.9282     1.3138 H      1 <0>       0.1000
   21 C21      -3.3480    -4.4005     1.3985 C.3    1 <0>       0.0800
   22 H22      -3.2795    -3.5666     2.0970 H      1 <0>       0.0900
   23 O23      -2.6232    -5.5293     1.8911 O.3    1 <0>      -0.5100
   24 C24      -1.1125    -2.1416    -0.0049 C.ar   1 <0>       0.3200
   25 N25       0.0847    -2.7181    -0.0147 N.ar   1 <0>      -0.5600
   26 C26       1.1806    -1.9886    -0.0165 C.ar   1 <0>       0.3700
   27 N27       1.1532    -0.6684    -0.0125 N.ar   1 <0>      -0.5900
   28 H28       0.8167     1.8764     0.0043 H      1 <0>       0.4100
   29 H29      -0.8632     1.8536     0.0162 H      1 <0>       0.4200
   30 H30      -6.7222    -4.3705    -0.6547 H      1 <0>       0.0700
   31 H31      -6.1619    -5.4539    -1.9600 H      1 <0>       0.1100
   32 H32      -1.6903    -5.3495     2.0715 H      1 <0>       0.3800
   33 H33       2.1379    -2.4885    -0.0242 H      1 <0>       0.2100
@<TRIPOS>BOND
   1    1    2 1
   2    1   28 1
   3    1   29 1
   4    2   27 ar
   5    2    3 ar
   6    3   24 ar
   7    3    4 1
   8    4    5 2
   9    5    6 1
  10    5    7 1
  11    7    8 1
  12    7   24 1
  13    8    9 1
  14    8   21 1
  15    8   10 1
  16   10   11 1
  17   11   12 1
  18   11   19 1
  19   11   13 1
  20   13   14 1
  21   13   30 1
  22   13   31 1
  23   14   15 1
  24   15   16 ar
  25   15   17 ar
  26   15   18 1
  27   18   19 1
  28   19   20 1
  29   19   21 1
  30   21   22 1
  31   21   23 1
  32   23   32 1
  33   24   25 ar
  34   25   26 ar
  35   26   27 ar
  36   26   33 1
