@<TRIPOS>MOLECULE
ZINC000019796052
  28   27    0    0    0
SMALL
USER_CHARGES
NO_NAME
@<TRIPOS>ATOM
    1 N1       -0.0117     1.3386     0.1086 N.pl3  1 <0>      -0.8400
    2 C2        0.0051    -0.0087     0.0495 C.2    1 <0>       0.7100
    3 N3        1.1720    -0.6611    -0.1143 N.2    1 <0>      -0.5500
    4 N4        2.2825    -0.0046    -0.1216 N.pl3  1 <0>       0.2300
    5 O5        2.9099     0.1422     0.9120 O.2    1 <0>      -0.2200
    6 O6        2.7035     0.4684    -1.1620 O.2    1 <0>      -0.2300
    7 N7       -1.1466    -0.7029     0.1544 N.pl3  1 <0>      -0.6800
    8 C8       -2.4158     0.0067     0.3325 C.3    1 <0>       0.1000
    9 C9       -3.5584    -1.0069     0.4228 C.3    1 <0>      -0.1400
   10 C10      -4.8840    -0.2659     0.6089 C.3    1 <0>      -0.1200
   11 C11      -6.0265    -1.2794     0.6992 C.3    1 <0>      -0.0500
   12 H12      -5.8144    -1.9964     1.4923 H      1 <0>       0.1400
   13 N13      -6.1542    -1.9887    -0.5809 N.4    1 <0>      -0.6100
   14 H14      -5.2920    -2.4712    -0.7855 H      1 <0>       0.4100
   15 H15      -6.9077    -2.6571    -0.5214 H      1 <0>       0.4300
   16 H16      -6.3506    -1.3250    -1.3151 H      1 <0>       0.4300
   17 C17      -7.3143    -0.5588     1.0048 C.2    1 <0>       0.4900
   18 O18      -8.1832    -0.4758     0.1535 O.co2  1 <0>      -0.6700
   19 O19      -7.4872    -0.0588     2.1032 O.co2  1 <0>      -0.6300
   20 H20       0.8222     1.8338     0.1274 H      1 <0>       0.4300
   21 H21      -0.8578     1.8127     0.1283 H      1 <0>       0.4200
   22 H22      -1.1344    -1.6719     0.1118 H      1 <0>       0.4300
   23 H23      -2.3780     0.5942     1.2499 H      1 <0>       0.0900
   24 H24      -2.5840     0.6692    -0.5165 H      1 <0>       0.0800
   25 H25      -3.5962    -1.5944    -0.4945 H      1 <0>       0.0700
   26 H26      -3.3902    -1.6694     1.2719 H      1 <0>       0.0900
   27 H27      -4.8461     0.3217     1.5262 H      1 <0>       0.1200
   28 H28      -5.0522     0.3966    -0.2402 H      1 <0>       0.0900
@<TRIPOS>BOND
   1    1    2 1
   2    1   20 1
   3    1   21 1
   4    2    3 2
   5    2    7 1
   6    3    4 1
   7    4    5 2
   8    4    6 2
   9    7    8 1
  10    7   22 1
  11    8    9 1
  12    8   23 1
  13    8   24 1
  14    9   10 1
  15    9   25 1
  16    9   26 1
  17   10   11 1
  18   10   27 1
  19   10   28 1
  20   11   12 1
  21   11   13 1
  22   11   17 1
  23   13   14 1
  24   13   15 1
  25   13   16 1
  26   17   18 ar
  27   17   19 ar
