@<TRIPOS>MOLECULE
ZINC000003828115
58    60    1     0     0
SMALL
USER_CHARGES
@<TRIPOS>ATOM
1      O1      0.1930    0.4964    1.9116 O.2      1 ZINC000003828115   -0.5400
2      C2      0.1204    1.6837    2.1685 C.2      1 ZINC000003828115    0.5500
3      C3      1.3246    2.4260    2.5466 C.2      1 ZINC000003828115   -0.2100
4      C4      2.5137    1.7941    2.6101 C.2      1 ZINC000003828115   -0.0100
5      C5      3.7244    2.5403    2.9902 C.ar     1 ZINC000003828115   -0.1300
6      C6      4.9685    1.8966    3.0545 C.ar     1 ZINC000003828115   -0.0500
7      C7      6.0748    2.6438    3.4170 C.ar     1 ZINC000003828115   -0.1700
8      C8      5.9204    3.9889    3.7018 C.ar     1 ZINC000003828115    0.1100
9      N9      4.7373    4.5695    3.6338 N.ar     1 ZINC000003828115   -0.4800
10     C10     3.6550    3.9048    3.2880 C.ar     1 ZINC000003828115    0.1200
11     N11    -1.0675    2.3167    2.0997 N.am     1 ZINC000003828115   -0.7300
12     C12    -2.2713    1.5754    1.7155 C.3      1 ZINC000003828115    0.1200
13     C13    -3.4741    2.5210    1.7151 C.3      1 ZINC000003828115   -0.1300
14     C14    -4.7313    1.7468    1.3139 C.3      1 ZINC000003828115   -0.1200
15     C15    -5.9341    2.6924    1.3134 C.3      1 ZINC000003828115   -0.1100
16     C16    -7.1914    1.9182    0.9122 C.3      1 ZINC000003828115   -0.0900
17     C17    -7.5030    0.8646    1.9776 C.3      1 ZINC000003828115   -0.1300
18     C18    -8.7420    0.0686    1.5557 C.3      1 ZINC000003828115    0.1100
19     N19    -9.8417    1.0077    1.2960 N.am     1 ZINC000003828115   -0.6100
20     C20   -11.0323    0.8575    1.9093 C.2      1 ZINC000003828115    0.5600
21     O21   -11.2270   -0.1000    2.6323 O.2      1 ZINC000003828115   -0.5300
22     C22   -12.1016    1.8574    1.7028 C.ar     1 ZINC000003828115   -0.1300
23     C23   -12.4644    2.2388    0.4102 C.ar     1 ZINC000003828115   -0.0900
24     C24   -13.4634    3.1721    0.2244 C.ar     1 ZINC000003828115   -0.1200
25     C25   -14.1048    3.7299    1.3161 C.ar     1 ZINC000003828115   -0.1000
26     C26   -13.7496    3.3566    2.6001 C.ar     1 ZINC000003828115   -0.1200
27     C27   -12.7566    2.4198    2.7996 C.ar     1 ZINC000003828115   -0.0700
28     C28    -9.6185    2.1141    0.3552 C.3      1 ZINC000003828115    0.1000
29     C29    -8.3697    2.8872    0.7906 C.3      1 ZINC000003828115   -0.1300
30     H30     1.2602    3.4797    2.7746 H        1 ZINC000003828115    0.1300
31     H31     2.5782    0.7404    2.3821 H        1 ZINC000003828115    0.1400
32     H32     5.0606    0.8448    2.8273 H        1 ZINC000003828115    0.1400
33     H33     7.0491    2.1818    3.4775 H        1 ZINC000003828115    0.1400
34     H34     6.7831    4.5737    3.9850 H        1 ZINC000003828115    0.1600
35     H35     2.7043    4.4152    3.2433 H        1 ZINC000003828115    0.1600
36     H36    -1.1254    3.2631    2.3045 H        1 ZINC000003828115    0.4000
37     H37    -2.1376    1.1572    0.7179 H        1 ZINC000003828115    0.0700
38     H38    -2.4438    0.7684    2.4277 H        1 ZINC000003828115    0.0700
39     H39    -3.6079    2.9392    2.7127 H        1 ZINC000003828115    0.0700
40     H40    -3.3016    3.3280    1.0029 H        1 ZINC000003828115    0.0700
41     H41    -4.5976    1.3286    0.3162 H        1 ZINC000003828115    0.0700
42     H42    -4.9038    0.9398    2.0260 H        1 ZINC000003828115    0.0700
43     H43    -6.0679    3.1107    2.3111 H        1 ZINC000003828115    0.0600
44     H44    -5.7616    3.4994    0.6013 H        1 ZINC000003828115    0.0600
45     H45    -7.0248    1.4268   -0.0463 H        1 ZINC000003828115    0.0700
46     H46    -6.6540    0.1889    2.0803 H        1 ZINC000003828115    0.0800
47     H47    -7.6942    1.3569    2.9311 H        1 ZINC000003828115    0.0700
48     H48    -8.5223   -0.4964    0.6498 H        1 ZINC000003828115    0.0700
49     H49    -9.0267   -0.6153    2.3553 H        1 ZINC000003828115    0.0900
50     H50   -11.9640    1.8046   -0.4428 H        1 ZINC000003828115    0.1300
51     H51   -13.7451    3.4681   -0.7753 H        1 ZINC000003828115    0.1300
52     H52   -14.8859    4.4603    1.1652 H        1 ZINC000003828115    0.1300
53     H53   -14.2539    3.7960    3.4480 H        1 ZINC000003828115    0.1300
54     H54   -12.4805    2.1289    3.8024 H        1 ZINC000003828115    0.1300
55     H55    -9.4703    1.7159   -0.6486 H        1 ZINC000003828115    0.0700
56     H56   -10.4815    2.7798    0.3627 H        1 ZINC000003828115    0.1000
57     H57    -8.5527    3.3604    1.7553 H        1 ZINC000003828115    0.0700
58     H58    -8.1375    3.6509    0.0484 H        1 ZINC000003828115    0.0800
@<TRIPOS>BOND
1     1     2     2
2     2     3     1
3     2     11    am
4     3     4     2
5     3     30    1
6     4     5     1
7     4     31    1
8     5     10    ar
9     5     6     ar
10    6     7     ar
11    6     32    1
12    7     8     ar
13    7     33    1
14    8     9     ar
15    8     34    1
16    9     10    ar
17    10    35    1
18    11    12    1
19    11    36    1
20    12    13    1
21    12    37    1
22    12    38    1
23    13    14    1
24    13    39    1
25    13    40    1
26    14    15    1
27    14    41    1
28    14    42    1
29    15    16    1
30    15    43    1
31    15    44    1
32    16    29    1
33    16    17    1
34    16    45    1
35    17    18    1
36    17    46    1
37    17    47    1
38    18    19    1
39    18    48    1
40    18    49    1
41    19    20    am
42    19    28    1
43    20    21    2
44    20    22    1
45    22    27    ar
46    22    23    ar
47    23    24    ar
48    23    50    1
49    24    25    ar
50    24    51    1
51    25    26    ar
52    25    52    1
53    26    27    ar
54    26    53    1
55    27    54    1
56    28    29    1
57    28    55    1
58    28    56    1
59    29    57    1
60    29    58    1
@<TRIPOS>SUBSTRUCTURE
1   ZINC000003828115 1     RESIDUE    1   A     ZIN   1
