@<TRIPOS>MOLECULE
ZINC000003920372
87    93    1     0     0
SMALL
USER_CHARGES
@<TRIPOS>ATOM
1      C1     -2.0549   -3.6478   -2.1268 C.3      1 ZINC000003920372   -0.1700
2      C2     -1.8880   -2.1349   -2.2825 C.3      1 ZINC000003920372    0.1800
3      C3     -2.8183   -1.6303   -3.3874 C.3      1 ZINC000003920372   -0.1700
4      N4     -2.2262   -1.4738   -1.0197 N.am     1 ZINC000003920372   -0.6300
5      C5     -1.3176   -0.6293   -0.2300 C.3      1 ZINC000003920372    0.0900
6      C6     -2.1704   -0.1997    0.9795 C.3      1 ZINC000003920372    0.0900
7      N7     -3.4690   -0.8478    0.7429 N.am     1 ZINC000003920372   -0.5700
8      C8     -4.5887   -0.7534    1.5813 C.ar     1 ZINC000003920372    0.1700
9      C9     -5.7957   -1.3195    1.1936 C.ar     1 ZINC000003920372   -0.1300
10     C10    -6.8986   -1.2267    2.0192 C.ar     1 ZINC000003920372   -0.1100
11     C11    -6.8005   -0.5671    3.2374 C.ar     1 ZINC000003920372    0.0800
12     N12    -7.9178   -0.4734    4.0743 N.3      1 ZINC000003920372   -0.4900
13     C13    -9.0492    0.1508    3.3743 C.3      1 ZINC000003920372    0.0600
14     C14   -10.2717    0.1624    4.2952 C.3      1 ZINC000003920372    0.0500
15     N15    -9.9476    0.8970    5.5260 N.3      1 ZINC000003920372   -0.4900
16     C16   -11.0651    0.9908    6.3631 C.ar     1 ZINC000003920372    0.0700
17     C17   -12.2709    0.4195    5.9786 C.ar     1 ZINC000003920372   -0.1300
18     C18   -13.3732    0.5121    6.8055 C.ar     1 ZINC000003920372   -0.1200
19     C19   -13.2761    1.1759    8.0195 C.ar     1 ZINC000003920372    0.1100
20     O20   -14.3622    1.2670    8.8330 O.3      1 ZINC000003920372   -0.3000
21     C21   -14.1908    1.9647   10.0683 C.3      1 ZINC000003920372    0.0600
22     C22   -15.5106    1.9633   10.8422 C.3      1 ZINC000003920372    0.2300
23     H23   -15.3946    2.5041   11.7814 H        1 ZINC000003920372    0.1000
24     O24   -16.5532    2.5676   10.0468 O.3      1 ZINC000003920372   -0.3500
25     C25   -17.7670    2.0396   10.6349 C.3      1 ZINC000003920372    0.0300
26     C26   -17.3691    0.5946   11.0077 C.3      1 ZINC000003920372    0.1200
27     C27   -17.8216   -0.3791    9.9177 C.3      1 ZINC000003920372    0.1300
28     N28   -17.5427   -1.7528   10.3436 N.pl3    1 ZINC000003920372   -0.3700
29     C29   -18.4208   -2.7681   10.4153 C.2      1 ZINC000003920372    0.2500
30     N30   -17.7818   -3.8285   10.8382 N.2      1 ZINC000003920372   -0.5400
31     C31   -16.4998   -3.5306   11.0461 C.2      1 ZINC000003920372    0.1900
32     N32   -16.3034   -2.2722   10.7521 N.2      1 ZINC000003920372   -0.2800
33     C33   -17.9730    0.2112   12.3342 C.ar     1 ZINC000003920372   -0.1500
34     C34   -17.1536   -0.1281   13.3938 C.ar     1 ZINC000003920372   -0.0300
35     C35   -17.7061   -0.4795   14.6112 C.ar     1 ZINC000003920372   -0.1600
36     C36   -19.0814   -0.4919   14.7701 C.ar     1 ZINC000003920372    0.1400
37     F37   -19.6211   -0.8349   15.9602 F        1 ZINC000003920372   -0.1300
38     C38   -19.9033   -0.1521   13.7092 C.ar     1 ZINC000003920372   -0.1900
39     C39   -19.3489    0.2047   12.4923 C.ar     1 ZINC000003920372    0.1400
40     F40   -20.1498    0.5365   11.4561 F        1 ZINC000003920372   -0.1300
41     O41   -15.9323    0.6127   11.0981 O.3      1 ZINC000003920372   -0.3300
42     C42   -12.0720    1.7464    8.4045 C.ar     1 ZINC000003920372   -0.1800
43     C43   -10.9673    1.6502    7.5812 C.ar     1 ZINC000003920372   -0.1000
44     C44    -8.8162    0.2729    6.2260 C.3      1 ZINC000003920372    0.0600
45     C45    -7.5937    0.2613    5.3051 C.3      1 ZINC000003920372    0.0500
46     C46    -5.5930   -0.0010    3.6250 C.ar     1 ZINC000003920372   -0.1400
47     C47    -4.4889   -0.0989    2.8016 C.ar     1 ZINC000003920372   -0.1300
48     C48    -3.4140   -1.5379   -0.4038 C.2      1 ZINC000003920372    0.7000
49     O49    -4.3544   -2.1724   -0.8415 O.2      1 ZINC000003920372   -0.5600
50     H50    -1.8032   -4.1397   -3.0664 H        1 ZINC000003920372    0.0700
51     H51    -1.3921   -4.0073   -1.3396 H        1 ZINC000003920372    0.0600
52     H52    -3.0881   -3.8742   -1.8634 H        1 ZINC000003920372    0.0700
53     H53    -0.8549   -1.9085   -2.5458 H        1 ZINC000003920372    0.0900
54     H54    -3.8515   -1.8567   -3.1241 H        1 ZINC000003920372    0.0700
55     H55    -2.6995   -0.5525   -3.4984 H        1 ZINC000003920372    0.0600
56     H56    -2.5667   -2.1222   -4.3270 H        1 ZINC000003920372    0.0700
57     H57    -0.4503   -1.2025    0.0977 H        1 ZINC000003920372    0.0900
58     H58    -1.0061    0.2414   -0.8071 H        1 ZINC000003920372    0.0900
59     H59    -1.7266   -0.5596    1.9077 H        1 ZINC000003920372    0.0900
60     H60    -2.2824    0.8843    1.0030 H        1 ZINC000003920372    0.0900
61     H61    -5.8721   -1.8321    0.2461 H        1 ZINC000003920372    0.1600
62     H62    -7.8376   -1.6667    1.7174 H        1 ZINC000003920372    0.1300
63     H63    -8.7890    1.1737    3.1024 H        1 ZINC000003920372    0.0500
64     H64    -9.2781   -0.4183    2.4733 H        1 ZINC000003920372    0.0900
65     H65   -11.1040    0.6510    3.7885 H        1 ZINC000003920372    0.0900
66     H66   -10.5484   -0.8618    4.5452 H        1 ZINC000003920372    0.0600
67     H67   -12.3469   -0.0968    5.0330 H        1 ZINC000003920372    0.1300
68     H68   -14.3111    0.0678    6.5067 H        1 ZINC000003920372    0.1300
69     H69   -13.4214    1.4701   10.6612 H        1 ZINC000003920372    0.0900
70     H70   -13.8892    2.9925    9.8662 H        1 ZINC000003920372    0.0800
71     H71   -18.0425    2.6057   11.5247 H        1 ZINC000003920372    0.0900
72     H72   -18.5797    2.0408    9.9086 H        1 ZINC000003920372    0.1200
73     H73   -18.8918   -0.2618    9.7472 H        1 ZINC000003920372    0.1200
74     H74   -17.2813   -0.1680    8.9949 H        1 ZINC000003920372    0.1100
75     H75   -19.4708   -2.7172   10.1678 H        1 ZINC000003920372    0.2100
76     H76   -15.7445   -4.2185   11.3966 H        1 ZINC000003920372    0.2100
77     H77   -16.0806   -0.1191   13.2707 H        1 ZINC000003920372    0.1500
78     H78   -17.0647   -0.7449   15.4386 H        1 ZINC000003920372    0.1500
79     H79   -20.9762   -0.1614   13.8323 H        1 ZINC000003920372    0.1500
80     H80   -11.9972    2.2631    9.3500 H        1 ZINC000003920372    0.1300
81     H81   -10.0297    2.0946    7.8811 H        1 ZINC000003920372    0.1300
82     H82    -8.5873    0.8420    7.1270 H        1 ZINC000003920372    0.0900
83     H83    -9.0763   -0.7501    6.4979 H        1 ZINC000003920372    0.0500
84     H84    -6.7614   -0.2273    5.8118 H        1 ZINC000003920372    0.0900
85     H85    -7.3170    1.2855    5.0551 H        1 ZINC000003920372    0.0600
86     H86    -5.5164    0.5119    4.5723 H        1 ZINC000003920372    0.1300
87     H87    -3.5498    0.3413    3.1030 H        1 ZINC000003920372    0.1200
@<TRIPOS>BOND
1     1     2     1
2     1     50    1
3     1     51    1
4     1     52    1
5     2     3     1
6     2     4     1
7     2     53    1
8     3     54    1
9     3     55    1
10    3     56    1
11    4     48    am
12    4     5     1
13    5     6     1
14    5     57    1
15    5     58    1
16    6     7     1
17    6     59    1
18    6     60    1
19    7     8     1
20    7     48    am
21    8     47    ar
22    8     9     ar
23    9     10    ar
24    9     61    1
25    10    11    ar
26    10    62    1
27    11    12    1
28    11    46    ar
29    12    45    1
30    12    13    1
31    13    14    1
32    13    63    1
33    13    64    1
34    14    15    1
35    14    65    1
36    14    66    1
37    15    16    1
38    15    44    1
39    16    43    ar
40    16    17    ar
41    17    18    ar
42    17    67    1
43    18    19    ar
44    18    68    1
45    19    20    1
46    19    42    ar
47    20    21    1
48    21    22    1
49    21    69    1
50    21    70    1
51    22    23    1
52    22    41    1
53    22    24    1
54    24    25    1
55    25    26    1
56    25    71    1
57    25    72    1
58    26    27    1
59    26    33    1
60    26    41    1
61    27    28    1
62    27    73    1
63    27    74    1
64    28    32    1
65    28    29    1
66    29    30    2
67    29    75    1
68    30    31    1
69    31    32    2
70    31    76    1
71    33    39    ar
72    33    34    ar
73    34    35    ar
74    34    77    1
75    35    36    ar
76    35    78    1
77    36    37    1
78    36    38    ar
79    38    39    ar
80    38    79    1
81    39    40    1
82    42    43    ar
83    42    80    1
84    43    81    1
85    44    45    1
86    44    82    1
87    44    83    1
88    45    84    1
89    45    85    1
90    46    47    ar
91    46    86    1
92    47    87    1
93    48    49    2
@<TRIPOS>SUBSTRUCTURE
1   ZINC000003920372 1     RESIDUE    1   A     ZIN   1
