@<TRIPOS>MOLECULE
ZINC000004044743
  52   55    0    0    0
SMALL
USER_CHARGES
NO_NAME
@<TRIPOS>ATOM
    1 C1        1.0936     1.1914    -0.8811 C.3    1 <0>      -0.1300
    2 C2        0.8998    -0.3210    -0.7480 C.3    1 <0>      -0.1200
    3 C3       -0.5835    -0.7126    -0.5015 C.3    1 <0>      -0.1100
    4 C4       -0.4009    -2.1811     0.0013 C.3    1 <0>      -0.0400
    5 C5        0.7693    -2.0366     0.9820 C.3    1 <0>      -0.1700
    6 C6        1.6272    -0.8958     0.4597 C.2    1 <0>       0.3800
    7 O7        2.6798    -0.5209     0.9143 O.2    1 <0>      -0.4500
    8 C8       -1.6684    -2.6314     0.6889 C.3    1 <0>      -0.1000
    9 C9       -1.7015    -4.1503     0.8838 C.3    1 <0>      -0.1000
   10 C10      -1.5400    -4.8197    -0.4796 C.3    1 <0>      -0.0300
   11 H11      -2.2748    -4.3206    -1.1579 H      1 <0>       0.0400
   12 C12      -1.9044    -6.2879    -0.4510 C.3    1 <0>      -0.1200
   13 C13      -3.4363    -6.3926    -0.2338 C.3    1 <0>      -0.1300
   14 C14      -1.2548    -7.0377     0.6802 C.2    1 <0>       0.5100
   15 O15      -1.5511    -6.7773     1.8338 O.co2  1 <0>      -0.7000
   16 O16      -0.4321    -7.9057     0.4432 O.co2  1 <0>      -0.7000
   17 C17      -1.6155    -6.9866    -1.7781 C.3    1 <0>      -0.0800
   18 C18      -0.2277    -6.6654    -2.3144 C.3    1 <0>      -0.1100
   19 C19      -0.0466    -5.1556    -2.4402 C.3    1 <0>      -0.1100
   20 C20      -0.1621    -4.5036    -1.0519 C.3    1 <0>      -0.0300
   21 C21       0.9685    -5.0340    -0.1778 C.3    1 <0>      -0.1500
   22 C22      -0.0377    -2.9919    -1.2321 C.3    1 <0>      -0.0600
   23 H23      -0.7459    -2.7022    -2.0407 H      1 <0>       0.0600
   24 C24       1.3653    -2.5929    -1.6988 C.3    1 <0>      -0.1200
   25 C25       1.3800    -1.0864    -1.9904 C.3    1 <0>      -0.1000
   26 H26       2.1526     1.4114    -1.0166 H      1 <0>       0.0600
   27 H27       0.5338     1.5550    -1.7427 H      1 <0>       0.0600
   28 H28       0.7327     1.6848     0.0213 H      1 <0>       0.0600
   29 H29      -1.0354    -0.0978     0.2740 H      1 <0>       0.0700
   30 H30      -1.1621    -0.6918    -1.4217 H      1 <0>       0.0800
   31 H31       0.3802    -1.7649     1.9731 H      1 <0>       0.1000
   32 H32       1.3599    -2.9360     1.0730 H      1 <0>       0.1100
   33 H33      -1.7407    -2.1456     1.6634 H      1 <0>       0.0600
   34 H34      -2.5275    -2.3333     0.0838 H      1 <0>       0.0600
   35 H35      -0.9072    -4.4416     1.5666 H      1 <0>       0.0700
   36 H36      -2.6619    -4.4190     1.3299 H      1 <0>       0.0600
   37 H37      -3.9543    -5.8905    -1.0509 H      1 <0>       0.0300
   38 H38      -3.7289    -7.4423    -0.2087 H      1 <0>       0.0400
   39 H39      -3.7026    -5.9186     0.7110 H      1 <0>       0.0600
   40 H40      -1.7051    -8.0695    -1.6345 H      1 <0>       0.0600
   41 H41      -2.3683    -6.6810    -2.5124 H      1 <0>       0.0300
   42 H42       0.5405    -7.1042    -1.6851 H      1 <0>       0.0800
   43 H43      -0.1271    -7.1100    -3.3165 H      1 <0>       0.0400
   44 H44       0.9349    -4.9373    -2.8578 H      1 <0>       0.0500
   45 H45      -0.8203    -4.7458    -3.0892 H      1 <0>       0.0500
   46 H46       1.9252    -4.6976    -0.5775 H      1 <0>       0.0400
   47 H47       0.8479    -4.6600     0.8389 H      1 <0>       0.0500
   48 H48       0.9411    -6.1236    -0.1698 H      1 <0>       0.0900
   49 H49       2.1062    -2.8032    -0.9344 H      1 <0>       0.0600
   50 H50       1.6167    -3.1266    -2.6141 H      1 <0>       0.0700
   51 H51       0.7170    -0.8791    -2.8287 H      1 <0>       0.0700
   52 H52       2.3954    -0.7817    -2.2391 H      1 <0>       0.0600
@<TRIPOS>BOND
   1    1    2 1
   2    1   26 1
   3    1   27 1
   4    1   28 1
   5    2    6 1
   6    2   25 1
   7    2    3 1
   8    3    4 1
   9    3   29 1
  10    3   30 1
  11    4   22 1
  12    4    5 1
  13    4    8 1
  14    5    6 1
  15    5   31 1
  16    5   32 1
  17    6    7 2
  18    8    9 1
  19    8   33 1
  20    8   34 1
  21    9   10 1
  22    9   35 1
  23    9   36 1
  24   10   11 1
  25   10   20 1
  26   10   12 1
  27   12   13 1
  28   12   14 1
  29   12   17 1
  30   13   37 1
  31   13   38 1
  32   13   39 1
  33   14   15 ar
  34   14   16 ar
  35   17   18 1
  36   17   40 1
  37   17   41 1
  38   18   19 1
  39   18   42 1
  40   18   43 1
  41   19   20 1
  42   19   44 1
  43   19   45 1
  44   20   21 1
  45   20   22 1
  46   21   46 1
  47   21   47 1
  48   21   48 1
  49   22   23 1
  50   22   24 1
  51   24   25 1
  52   24   49 1
  53   24   50 1
  54   25   51 1
  55   25   52 1
