@<TRIPOS>MOLECULE
ZINC000003978018
30    31    1     0     0
SMALL
USER_CHARGES
@<TRIPOS>ATOM
1      N1     -0.0166    1.3714    0.0096 N.pl3    1 ZINC000003978018   -0.8100
2      C2      0.0021   -0.0041    0.0020 C.2      1 ZINC000003978018    0.5000
3      N3     -1.1354   -0.6867    0.0037 N.2      1 ZINC000003978018   -0.6100
4      C4     -1.1293   -2.0185   -0.0041 C.2      1 ZINC000003978018    0.6600
5      O5     -2.1886   -2.6233   -0.0028 O.2      1 ZINC000003978018   -0.5300
6      N6      0.0264   -2.7078   -0.0137 N.am     1 ZINC000003978018   -0.5500
7      C7      0.0011   -4.1726   -0.0226 C.3      1 ZINC000003978018    0.3000
8      H8     -0.5111   -4.5289   -0.9163 H        1 ZINC000003978018    0.1500
9      O9      1.3438   -4.6848    0.0083 O.3      1 ZINC000003978018   -0.3400
10     C10     1.6780   -4.9082    1.3950 C.3      1 ZINC000003978018    0.0400
11     H11     1.9358   -3.9687    1.8838 H        1 ZINC000003978018    0.0900
12     C12     2.8275   -5.9105    1.5174 C.3      1 ZINC000003978018    0.0800
13     O13     4.0183   -5.3385    0.9727 O.3      1 ZINC000003978018   -0.5600
14     C14     0.3728   -5.4938    1.9916 C.3      1 ZINC000003978018    0.0400
15     H15     0.2904   -6.5591    1.7762 H        1 ZINC000003978018    0.1000
16     O16     0.3027   -5.2536    3.3985 O.3      1 ZINC000003978018   -0.5500
17     C17    -0.7198   -4.6918    1.2366 C.3      1 ZINC000003978018    0.0900
18     H18    -1.0711   -3.8589    1.8457 H        1 ZINC000003978018    0.0900
19     O19    -1.8099   -5.5444    0.8808 O.3      1 ZINC000003978018   -0.5400
20     C20     1.2200   -2.0505   -0.0158 C.2      1 ZINC000003978018    0.2000
21     C21     1.2303   -0.6965   -0.0134 C.2      1 ZINC000003978018   -0.3100
22     H22     0.8168    1.8678    0.0043 H        1 ZINC000003978018    0.4200
23     H23    -0.8631    1.8449    0.0162 H        1 ZINC000003978018    0.4100
24     H24     2.9882   -6.1525    2.5680 H        1 ZINC000003978018    0.0700
25     H25     2.5773   -6.8190    0.9695 H        1 ZINC000003978018    0.0600
26     H26     4.7898   -5.9199    1.0168 H        1 ZINC000003978018    0.3900
27     H27     1.0187   -5.6627    3.9036 H        1 ZINC000003978018    0.3900
28     H28    -2.2601   -5.9439    1.6376 H        1 ZINC000003978018    0.3900
29     H29     2.1477   -2.6035   -0.0235 H        1 ZINC000003978018    0.1800
30     H30     2.1649   -0.1552   -0.0154 H        1 ZINC000003978018    0.1600
@<TRIPOS>BOND
1     1     2     1
2     1     22    1
3     1     23    1
4     2     21    1
5     2     3     2
6     3     4     1
7     4     5     2
8     4     6     am
9     6     7     1
10    6     20    1
11    7     8     1
12    7     17    1
13    7     9     1
14    9     10    1
15    10    11    1
16    10    12    1
17    10    14    1
18    12    13    1
19    12    24    1
20    12    25    1
21    13    26    1
22    14    15    1
23    14    16    1
24    14    17    1
25    16    27    1
26    17    18    1
27    17    19    1
28    19    28    1
29    20    21    2
30    20    29    1
31    21    30    1
@<TRIPOS>SUBSTRUCTURE
1   ZINC000003978018 1     RESIDUE    1   A     ZIN   1
