@<TRIPOS>MOLECULE
ZINC000001576166
41    42    1     0     0
SMALL
USER_CHARGES
@<TRIPOS>ATOM
1      N1     -0.0178    1.4648    0.0101 N.3      1 ZINC000001576166   -0.8100
2      C2      0.0021   -0.0041    0.0020 C.3      1 ZINC000001576166    0.0800
3      H3      0.5890   -0.3641    0.8470 H        1 ZINC000001576166    0.0900
4      C4     -1.4289   -0.5341    0.1123 C.3      1 ZINC000001576166   -0.0700
5      C5     -2.0137   -0.1447    1.4715 C.3      1 ZINC000001576166   -0.1700
6      C6     -3.4232   -0.6668    1.5801 C.2      1 ZINC000001576166    0.4900
7      O7     -3.9145   -1.2924    0.6561 O.co2    1 ZINC000001576166   -0.6900
8      O8     -4.0722   -0.4637    2.5920 O.co2    1 ZINC000001576166   -0.7200
9      C9      0.6205   -0.4910   -1.2831 C.2      1 ZINC000001576166    0.4900
10     O10     0.6741    0.2435   -2.2467 O.2      1 ZINC000001576166   -0.5700
11     N11     1.1140   -1.7427   -1.3616 N.am     1 ZINC000001576166   -0.6900
12     C12     1.7151   -2.2161   -2.6109 C.3      1 ZINC000001576166    0.0800
13     H13     2.2340   -1.3915   -3.0997 H        1 ZINC000001576166    0.0800
14     C14     2.7117   -3.3360   -2.3051 C.3      1 ZINC000001576166   -0.0400
15     C15     3.8565   -2.7827   -1.4963 C.2      1 ZINC000001576166   -0.1400
16     C16     5.0322   -2.3440   -1.9729 C.2      1 ZINC000001576166    0.0400
17     N17     5.8229   -1.9150   -0.9418 N.pl3    1 ZINC000001576166   -0.6000
18     C18     5.1584   -2.0713    0.2540 C.ar     1 ZINC000001576166    0.0900
19     C19     5.4921   -1.8027    1.5772 C.ar     1 ZINC000001576166   -0.1400
20     C20     4.5882   -2.0774    2.5802 C.ar     1 ZINC000001576166   -0.1000
21     C21     3.3457   -2.6203    2.2842 C.ar     1 ZINC000001576166   -0.1500
22     C22     2.9971   -2.8921    0.9910 C.ar     1 ZINC000001576166   -0.0600
23     C23     3.8951   -2.6158   -0.0414 C.ar     1 ZINC000001576166   -0.0900
24     C24     0.6346   -2.7399   -3.5214 C.2      1 ZINC000001576166    0.4900
25     O25    -0.5297   -2.7197   -3.1603 O.co2    1 ZINC000001576166   -0.6700
26     O26     0.9247   -3.1839   -4.6192 O.co2    1 ZINC000001576166   -0.7100
27     H27     0.9191    1.8392    0.0032 H        1 ZINC000001576166    0.3300
28     H28    -0.5563    1.8234   -0.7642 H        1 ZINC000001576166    0.3500
29     H29    -2.0382   -0.1034   -0.6823 H        1 ZINC000001576166    0.0600
30     H30    -1.4225   -1.6200    0.0171 H        1 ZINC000001576166    0.0700
31     H31    -1.4044   -0.5755    2.2660 H        1 ZINC000001576166    0.0500
32     H32    -2.0201    0.9411    1.5666 H        1 ZINC000001576166    0.0700
33     H33     1.0711   -2.3302   -0.5909 H        1 ZINC000001576166    0.3900
34     H34     2.2125   -4.1217   -1.7379 H        1 ZINC000001576166    0.0700
35     H35     3.0927   -3.7485   -3.2393 H        1 ZINC000001576166    0.0900
36     H36     5.3127   -2.3317   -3.0158 H        1 ZINC000001576166    0.1700
37     H37     6.7182   -1.5546   -1.0388 H        1 ZINC000001576166    0.4100
38     H38     6.4567   -1.3805    1.8178 H        1 ZINC000001576166    0.1100
39     H39     4.8494   -1.8684    3.6071 H        1 ZINC000001576166    0.1200
40     H40     2.6489   -2.8300    3.0822 H        1 ZINC000001576166    0.1200
41     H41     2.0285   -3.3145    0.7682 H        1 ZINC000001576166    0.1200
@<TRIPOS>BOND
1     1     2     1
2     1     27    1
3     1     28    1
4     2     3     1
5     2     4     1
6     2     9     1
7     4     5     1
8     4     29    1
9     4     30    1
10    5     6     1
11    5     31    1
12    5     32    1
13    6     7     ar
14    6     8     ar
15    9     10    2
16    9     11    am
17    11    12    1
18    11    33    1
19    12    13    1
20    12    14    1
21    12    24    1
22    14    15    1
23    14    34    1
24    14    35    1
25    15    23    1
26    15    16    2
27    16    17    1
28    16    36    1
29    17    18    1
30    17    37    1
31    18    23    ar
32    18    19    ar
33    19    20    ar
34    19    38    1
35    20    21    ar
36    20    39    1
37    21    22    ar
38    21    40    1
39    22    23    ar
40    22    41    1
41    24    25    ar
42    24    26    ar
@<TRIPOS>SUBSTRUCTURE
1   ZINC000001576166 1     RESIDUE    1   A     ZIN   1
