@<TRIPOS>MOLECULE
ZINC000056870809
73    75    1     0     0
SMALL
USER_CHARGES
@<TRIPOS>ATOM
1      C1     -0.7548    1.1524   -0.6055 C.3      1 ZINC000056870809   -0.0500
2      N2     -1.5483    0.2622   -1.4634 N.4      1 ZINC000056870809   -0.5000
3      H3     -1.8016   -0.5659   -0.9456 H        1 ZINC000056870809    0.4400
4      H4     -2.3847    0.7409   -1.7624 H        1 ZINC000056870809    0.4400
5      C5     -0.7553   -0.1191   -2.6397 C.3      1 ZINC000056870809    0.0500
6      H6      0.1977   -0.5383   -2.3167 H        1 ZINC000056870809    0.1600
7      C7     -0.5031    1.1158   -3.5100 C.3      1 ZINC000056870809    0.0700
8      H8     -1.4561    1.5644   -3.7906 H        1 ZINC000056870809    0.1300
9      O9      0.2745    2.0653   -2.7780 O.3      1 ZINC000056870809   -0.5400
10     C10     0.2554    0.6952   -4.7715 C.3      1 ZINC000056870809    0.2100
11     H11     0.4001    1.5630   -5.4150 H        1 ZINC000056870809    0.1000
12     O12     1.5271    0.1561   -4.4054 O.3      1 ZINC000056870809   -0.3700
13     C13     2.4190   -0.0285   -5.5065 C.3      1 ZINC000056870809    0.0300
14     H14     1.8431   -0.2075   -6.4145 H        1 ZINC000056870809    0.1200
15     C15     3.2756    1.2266   -5.6850 C.3      1 ZINC000056870809    0.0100
16     H16     3.8515    1.4056   -4.7771 H        1 ZINC000056870809    0.1800
17     N17     2.4050    2.3802   -5.9481 N.4      1 ZINC000056870809   -0.6400
18     H18     1.8439    2.5713   -5.1316 H        1 ZINC000056870809    0.4400
19     H19     2.9715    3.1870   -6.1632 H        1 ZINC000056870809    0.4600
20     H20     1.8016    2.1748   -6.7303 H        1 ZINC000056870809    0.4400
21     C21     4.2305    1.0290   -6.8640 C.3      1 ZINC000056870809   -0.1800
22     C22     5.1372   -0.1725   -6.5900 C.3      1 ZINC000056870809    0.0400
23     H23     5.7131    0.0065   -5.6821 H        1 ZINC000056870809    0.1800
24     N24     6.0541   -0.3623   -7.7220 N.4      1 ZINC000056870809   -0.6300
25     H25     6.6189    0.4654   -7.8397 H        1 ZINC000056870809    0.4600
26     H26     6.6521   -1.1547   -7.5413 H        1 ZINC000056870809    0.4500
27     H27     5.5210   -0.5280   -8.5625 H        1 ZINC000056870809    0.4400
28     C28     4.2807   -1.4277   -6.4115 C.3      1 ZINC000056870809    0.0700
29     H29     3.7048   -1.6067   -7.3195 H        1 ZINC000056870809    0.1200
30     O30     5.1276   -2.5499   -6.1556 O.3      1 ZINC000056870809   -0.3900
31     C31     4.6021   -3.7934   -6.6242 C.3      1 ZINC000056870809    0.2400
32     H32     3.5754   -3.9123   -6.2780 H        1 ZINC000056870809    0.1700
33     O33     4.6357   -3.8232   -8.0539 O.3      1 ZINC000056870809   -0.3100
34     C34     5.8415   -3.9531   -8.6499 C.2      1 ZINC000056870809   -0.0400
35     C35     5.9567   -3.6098  -10.1128 C.3      1 ZINC000056870809    0.0600
36     N36     5.1485   -4.5494  -10.9014 N.4      1 ZINC000056870809   -0.6400
37     H37     4.1830   -4.4846  -10.6158 H        1 ZINC000056870809    0.4400
38     H38     5.2257   -4.3196  -11.8808 H        1 ZINC000056870809    0.4600
39     H39     5.4819   -5.4896  -10.7493 H        1 ZINC000056870809    0.4500
40     C40     6.9128   -4.3609   -8.0224 C.2      1 ZINC000056870809   -0.1400
41     C41     6.9065   -4.7189   -6.5613 C.3      1 ZINC000056870809   -0.1300
42     C42     5.4630   -4.9503   -6.0981 C.3      1 ZINC000056870809    0.0100
43     H43     5.0950   -5.8948   -6.4988 H        1 ZINC000056870809    0.1800
44     N44     5.4122   -4.9811   -4.6303 N.4      1 ZINC000056870809   -0.6300
45     H45     5.7440   -4.1015   -4.2637 H        1 ZINC000056870809    0.4400
46     H46     4.4611   -5.1334   -4.3298 H        1 ZINC000056870809    0.4500
47     H47     5.9967   -5.7295   -4.2892 H        1 ZINC000056870809    0.4600
48     C48     3.3258   -1.2300   -5.2325 C.3      1 ZINC000056870809    0.1000
49     H49     3.9017   -1.0510   -4.3246 H        1 ZINC000056870809    0.1100
50     O50     2.5258   -2.4023   -5.0658 O.3      1 ZINC000056870809   -0.5500
51     O51    -0.4992   -0.2963   -5.4712 O.3      1 ZINC000056870809   -0.3500
52     C52    -0.7254   -1.4928   -4.7233 C.3      1 ZINC000056870809    0.0400
53     C53    -1.5224   -1.1618   -3.4587 C.3      1 ZINC000056870809    0.0800
54     C54    -1.7116   -2.4316   -2.6265 C.3      1 ZINC000056870809   -0.2000
55     O55    -2.7991   -0.6337   -3.8235 O.3      1 ZINC000056870809   -0.5500
56     H56     0.2219    0.7046   -0.4221 H        1 ZINC000056870809    0.1200
57     H57    -0.6260    2.1147   -1.1010 H        1 ZINC000056870809    0.1400
58     H58    -1.2715    1.2985    0.3430 H        1 ZINC000056870809    0.1300
59     H59     0.4724    2.8742   -3.2696 H        1 ZINC000056870809    0.4000
60     H60     3.6546    0.8500   -7.7720 H        1 ZINC000056870809    0.1300
61     H61     4.8407    1.9232   -6.9912 H        1 ZINC000056870809    0.1500
62     H62     5.5966   -2.5942  -10.2771 H        1 ZINC000056870809    0.1400
63     H63     6.9997   -3.6798  -10.4214 H        1 ZINC000056870809    0.1700
64     H64     7.8377   -4.4443   -8.5738 H        1 ZINC000056870809    0.1700
65     H65     7.4877   -5.6282   -6.4074 H        1 ZINC000056870809    0.1400
66     H66     7.3465   -3.9046   -5.9856 H        1 ZINC000056870809    0.1200
67     H67     1.9757   -2.3933   -4.2705 H        1 ZINC000056870809    0.4100
68     H68    -1.2872   -2.2013   -5.3321 H        1 ZINC000056870809    0.1400
69     H69     0.2318   -1.9329   -4.4434 H        1 ZINC000056870809    0.0800
70     H70    -0.7368   -2.8314   -2.3469 H        1 ZINC000056870809    0.0900
71     H71    -2.2790   -2.1950   -1.7265 H        1 ZINC000056870809    0.0800
72     H72    -2.2537   -3.1732   -3.2134 H        1 ZINC000056870809    0.1000
73     H73    -3.3391   -1.2388   -4.3502 H        1 ZINC000056870809    0.4200
@<TRIPOS>BOND
1     1     2     1
2     1     56    1
3     1     57    1
4     1     58    1
5     2     3     1
6     2     4     1
7     2     5     1
8     5     6     1
9     5     53    1
10    5     7     1
11    7     8     1
12    7     9     1
13    7     10    1
14    9     59    1
15    10    11    1
16    10    12    1
17    10    51    1
18    12    13    1
19    13    14    1
20    13    48    1
21    13    15    1
22    15    16    1
23    15    17    1
24    15    21    1
25    17    18    1
26    17    19    1
27    17    20    1
28    21    22    1
29    21    60    1
30    21    61    1
31    22    23    1
32    22    24    1
33    22    28    1
34    24    25    1
35    24    26    1
36    24    27    1
37    28    29    1
38    28    30    1
39    28    48    1
40    30    31    1
41    31    32    1
42    31    42    1
43    31    33    1
44    33    34    1
45    34    35    1
46    34    40    2
47    35    36    1
48    35    62    1
49    35    63    1
50    36    37    1
51    36    38    1
52    36    39    1
53    40    41    1
54    40    64    1
55    41    42    1
56    41    65    1
57    41    66    1
58    42    43    1
59    42    44    1
60    44    45    1
61    44    46    1
62    44    47    1
63    48    49    1
64    48    50    1
65    50    67    1
66    51    52    1
67    52    53    1
68    52    68    1
69    52    69    1
70    53    54    1
71    53    55    1
72    54    70    1
73    54    71    1
74    54    72    1
75    55    73    1
@<TRIPOS>SUBSTRUCTURE
1   ZINC000056870809 1     RESIDUE    1   A     ZIN   1
