@<TRIPOS>MOLECULE
ZINC000100716042
78    79    1     0     0
SMALL
USER_CHARGES
@<TRIPOS>ATOM
1      C1     -0.0290    1.4222    0.0280 C.3      1 ZINC000100716042    0.0300
2      O2      0.0001   -0.0064    0.0148 O.3      1 ZINC000100716042   -0.3600
3      C3      0.6577   -0.5655   -1.1289 C.3      1 ZINC000100716042    0.1200
4      H4      0.5320    0.1128   -1.9685 H        1 ZINC000100716042    0.1000
5      C5      2.1223   -0.7350   -0.8079 C.2      1 ZINC000100716042   -0.1400
6      C6      3.0534   -0.2202   -1.6262 C.2      1 ZINC000100716042   -0.1300
7      C7      2.6322    0.4664   -2.8351 C.2      1 ZINC000100716042   -0.0400
8      C8      3.3241    1.4486   -3.4542 C.2      1 ZINC000100716042   -0.1700
9      C9      4.6321    1.9663   -2.9164 C.3      1 ZINC000100716042   -0.1200
10     C10     2.7456    1.9797   -4.6801 C.2      1 ZINC000100716042    0.5600
11     O11     1.9255    1.2673   -5.2390 O.2      1 ZINC000100716042   -0.5000
12     N12     3.0353    3.1610   -5.2460 N.am     1 ZINC000100716042   -0.6600
13     C13     2.0320    3.7440   -6.0083 C.2      1 ZINC000100716042    0.1700
14     C14     2.3181    4.6219   -6.9910 C.2      1 ZINC000100716042   -0.2600
15     C15     1.2205    5.1600   -7.8000 C.2      1 ZINC000100716042    0.4300
16     O16     1.4381    6.0185   -8.6335 O.2      1 ZINC000100716042   -0.4300
17     C17    -0.1602    4.6368   -7.6039 C.2      1 ZINC000100716042    0.1900
18     N18    -1.1674    5.0395   -8.4478 N.pl3    1 ZINC000100716042   -0.8200
19     C19    -0.4287    3.7701   -6.5853 C.2      1 ZINC000100716042   -0.2700
20     C20    -1.8238    3.2332   -6.4501 C.3      1 ZINC000100716042   -0.0500
21     C21    -2.1253    2.6387   -5.0771 C.3      1 ZINC000100716042   -0.0900
22     H22    -1.3184    2.0022   -4.7422 H        1 ZINC000100716042    0.1100
23     C23    -2.3694    3.7690   -4.0720 C.3      1 ZINC000100716042   -0.1300
24     C24    -3.3994    1.7883   -5.1599 C.3      1 ZINC000100716042   -0.1400
25     C25    -3.0830    0.3287   -4.8011 C.3      1 ZINC000100716042    0.1000
26     H26    -2.0092    0.2200   -4.7036 H        1 ZINC000100716042    0.0800
27     O27    -3.5527   -0.4808   -5.8834 O.3      1 ZINC000100716042   -0.3800
28     C28    -2.5816   -0.7016   -6.9082 C.3      1 ZINC000100716042    0.0300
29     C29    -3.7834   -0.0352   -3.5014 C.3      1 ZINC000100716042    0.1300
30     H30    -4.8726    0.0634   -3.6590 H        1 ZINC000100716042    0.0600
31     O31    -3.4195    0.9262   -2.4961 O.3      1 ZINC000100716042   -0.5500
32     C32    -3.4991   -1.4278   -2.9729 C.3      1 ZINC000100716042   -0.0800
33     H33    -4.3352   -1.6210   -2.2355 H        1 ZINC000100716042    0.0600
34     C34    -3.6495   -2.5287   -4.0063 C.3      1 ZINC000100716042   -0.1400
35     C35    -2.2534   -1.5247   -2.1577 C.2      1 ZINC000100716042   -0.1100
36     C36    -1.0320   -1.7563   -2.5236 C.2      1 ZINC000100716042   -0.1400
37     C37    -0.5907   -1.9160   -3.9549 C.3      1 ZINC000100716042   -0.1300
38     C38     0.0319   -1.9182   -1.4509 C.3      1 ZINC000100716042    0.1500
39     H39     0.7996   -2.5982   -1.8240 H        1 ZINC000100716042    0.1000
40     O40    -0.5674   -2.4798   -0.2560 O.3      1 ZINC000100716042   -0.3400
41     C41    -0.5837   -3.8222   -0.1534 C.2      1 ZINC000100716042    0.6500
42     N42    -1.1261   -4.4085    0.9322 N.am     1 ZINC000100716042   -0.8300
43     O43    -0.1095   -4.5050   -1.0396 O.2      1 ZINC000100716042   -0.5700
44     C44     0.6156    3.3923   -5.7106 C.2      1 ZINC000100716042    0.4400
45     O45     0.3801    2.8171   -4.6661 O.2      1 ZINC000100716042   -0.4200
46     H46     0.9910    1.8065    0.0237 H        1 ZINC000100716042    0.0400
47     H47    -0.5569    1.7830   -0.8548 H        1 ZINC000100716042    0.0500
48     H48    -0.5434    1.7669    0.9250 H        1 ZINC000100716042    0.0900
49     H49     2.4220   -1.2759    0.0834 H        1 ZINC000100716042    0.1300
50     H50     4.1079   -0.3294   -1.3892 H        1 ZINC000100716042    0.1300
51     H51     1.7009    0.1549   -3.2991 H        1 ZINC000100716042    0.1300
52     H52     4.8861    1.4313   -2.0014 H        1 ZINC000100716042    0.0800
53     H53     5.4164    1.8115   -3.6574 H        1 ZINC000100716042    0.0700
54     H54     4.5406    3.0310   -2.7013 H        1 ZINC000100716042    0.0700
55     H55     3.9096    3.5895   -5.1410 H        1 ZINC000100716042    0.4200
56     H56     3.3381    4.9211   -7.1783 H        1 ZINC000100716042    0.1600
57     H57    -0.9775    5.6618   -9.1673 H        1 ZINC000100716042    0.4100
58     H58    -2.0681    4.7014   -8.3240 H        1 ZINC000100716042    0.4100
59     H59    -2.5445    4.0396   -6.6432 H        1 ZINC000100716042    0.0600
60     H60    -1.9816    2.4566   -7.2097 H        1 ZINC000100716042    0.0600
61     H61    -3.2167    4.3708   -4.4008 H        1 ZINC000100716042    0.0400
62     H62    -2.5846    3.3434   -3.0919 H        1 ZINC000100716042    0.0600
63     H63    -1.4807    4.3969   -4.0084 H        1 ZINC000100716042    0.0400
64     H64    -4.1422    2.1791   -4.4688 H        1 ZINC000100716042    0.0700
65     H65    -3.7890    1.8292   -6.1782 H        1 ZINC000100716042    0.0700
66     H66    -2.2760    0.2553   -7.3313 H        1 ZINC000100716042    0.0400
67     H67    -1.7131   -1.2050   -6.4833 H        1 ZINC000100716042    0.0400
68     H68    -3.0149   -1.3234   -7.6915 H        1 ZINC000100716042    0.0900
69     H69    -3.8254    0.7657   -1.6332 H        1 ZINC000100716042    0.3800
70     H70    -3.0220   -2.3053   -4.8691 H        1 ZINC000100716042    0.0700
71     H71    -3.3433   -3.4800   -3.5710 H        1 ZINC000100716042    0.0500
72     H72    -4.6911   -2.5917   -4.3211 H        1 ZINC000100716042    0.0600
73     H73    -2.3817   -1.3731   -1.0664 H        1 ZINC000100716042    0.1100
74     H74    -1.4311   -1.7139   -4.6189 H        1 ZINC000100716042    0.0700
75     H75     0.2165   -1.2147   -4.1666 H        1 ZINC000100716042    0.0700
76     H76    -0.2380   -2.9349   -4.1149 H        1 ZINC000100716042    0.0700
77     H77    -1.5047   -3.8634    1.6396 H        1 ZINC000100716042    0.4100
78     H78    -1.1379   -5.3756    1.0061 H        1 ZINC000100716042    0.4200
@<TRIPOS>BOND
1     1     2     1
2     1     46    1
3     1     47    1
4     1     48    1
5     2     3     1
6     3     4     1
7     3     38    1
8     3     5     1
9     5     6     2
10    5     49    1
11    6     7     1
12    6     50    1
13    7     8     2
14    7     51    1
15    8     9     1
16    8     10    1
17    9     52    1
18    9     53    1
19    9     54    1
20    10    11    2
21    10    12    am
22    12    13    1
23    12    55    1
24    13    44    1
25    13    14    2
26    14    15    1
27    14    56    1
28    15    16    2
29    15    17    1
30    17    18    1
31    17    19    2
32    18    57    1
33    18    58    1
34    19    20    1
35    19    44    1
36    20    21    1
37    20    59    1
38    20    60    1
39    21    22    1
40    21    23    1
41    21    24    1
42    23    61    1
43    23    62    1
44    23    63    1
45    24    25    1
46    24    64    1
47    24    65    1
48    25    26    1
49    25    27    1
50    25    29    1
51    27    28    1
52    28    66    1
53    28    67    1
54    28    68    1
55    29    30    1
56    29    31    1
57    29    32    1
58    31    69    1
59    32    33    1
60    32    34    1
61    32    35    1
62    34    70    1
63    34    71    1
64    34    72    1
65    35    36    2
66    35    73    1
67    36    37    1
68    36    38    1
69    37    74    1
70    37    75    1
71    37    76    1
72    38    39    1
73    38    40    1
74    40    41    1
75    41    42    am
76    41    43    2
77    42    77    1
78    42    78    1
79    44    45    2
@<TRIPOS>SUBSTRUCTURE
1   ZINC000100716042 1     RESIDUE    1   A     ZIN   1
