@<TRIPOS>MOLECULE
ZINC000006717791
  50   53    0    0    0
SMALL
USER_CHARGES
NO_NAME
@<TRIPOS>ATOM
    1 C1       -0.2583     1.3395     0.2089 C.3    1 <0>      -0.1500
    2 C2        0.0091    -0.1632     0.1019 C.3    1 <0>      -0.0500
    3 C3        0.8247    -0.6139     1.2862 C.2    1 <0>       0.0500
    4 N4        0.3279    -1.0344     2.3980 N.2    1 <0>      -0.4600
    5 C5        1.1768    -1.3953     3.3453 C.2    1 <0>       0.1400
    6 C6        0.7480    -1.8972     4.6715 C.ar   1 <0>      -0.0200
    7 C7        1.3807    -3.0023     5.2398 C.ar   1 <0>      -0.1000
    8 C8        0.9770    -3.4649     6.4757 C.ar   1 <0>      -0.1100
    9 C9       -0.0528    -2.8346     7.1506 C.ar   1 <0>      -0.1100
   10 C10      -0.6845    -1.7377     6.5919 C.ar   1 <0>      -0.0900
   11 C11      -1.8057    -1.0568     7.3339 C.3    1 <0>      -0.1200
   12 C12      -0.2864    -1.2626     5.3593 C.ar   1 <0>      -0.0900
   13 C13       2.4942    -1.2602     2.9818 C.2    1 <0>      -0.2000
   14 C14       3.6661    -1.5803     3.8195 C.ar   1 <0>       0.0600
   15 C15       3.7424    -1.1412     5.1493 C.ar   1 <0>      -0.1700
   16 C16       4.8533    -1.4612     5.8985 C.ar   1 <0>       0.1400
   17 N17       5.8399    -2.1709     5.3830 N.ar   1 <0>      -0.4700
   18 C18       5.8119    -2.6072     4.1322 C.ar   1 <0>       0.3700
   19 N19       6.8807    -3.3531     3.6387 N.am   1 <0>      -0.6600
   20 C20       7.8875    -3.7125     4.4594 C.2    1 <0>       0.5500
   21 O21       7.9075    -3.3140     5.6075 O.2    1 <0>      -0.4600
   22 C22       8.9674    -4.5914     3.9632 C.ar   1 <0>      -0.1400
   23 C23       8.9505    -5.0462     2.6436 C.ar   1 <0>      -0.0900
   24 C24       9.9615    -5.8662     2.1869 C.ar   1 <0>      -0.1300
   25 C25      10.9904    -6.2383     3.0339 C.ar   1 <0>      -0.0900
   26 C26      11.0132    -5.7911     4.3430 C.ar   1 <0>      -0.1300
   27 C27      10.0118    -4.9655     4.8106 C.ar   1 <0>      -0.0600
   28 C28       4.7285    -2.3348     3.3104 C.ar   1 <0>      -0.2000
   29 S29       2.5324    -0.6428     1.3321 S.3    1 <0>       0.1600
   30 H30       0.6898     1.8771     0.2229 H      1 <0>       0.0600
   31 H31      -0.8482     1.6655    -0.6477 H      1 <0>       0.0700
   32 H32      -0.8069     1.5464     1.1278 H      1 <0>       0.0600
   33 H33      -0.9390    -0.7008     0.0879 H      1 <0>       0.1000
   34 H34       0.5577    -0.3700    -0.8170 H      1 <0>       0.0900
   35 H35       2.1847    -3.4954     4.7136 H      1 <0>       0.1200
   36 H36       1.4660    -4.3209     6.9168 H      1 <0>       0.1300
   37 H37      -0.3655    -3.2005     8.1175 H      1 <0>       0.1200
   38 H38      -1.3968    -0.2699     7.9676 H      1 <0>       0.0700
   39 H39      -2.5031    -0.6214     6.6183 H      1 <0>       0.0700
   40 H40      -2.3280    -1.7868     7.9523 H      1 <0>       0.0700
   41 H41      -0.7799    -0.4061     4.9243 H      1 <0>       0.1300
   42 H42       2.9410    -0.5595     5.5802 H      1 <0>       0.1400
   43 H43       4.9181    -1.1261     6.9232 H      1 <0>       0.1600
   44 H44       6.8999    -3.6136     2.7045 H      1 <0>       0.4200
   45 H45       8.1476    -4.7570     1.9817 H      1 <0>       0.1200
   46 H46       9.9497    -6.2188     1.1662 H      1 <0>       0.1300
   47 H47      11.7791    -6.8811     2.6716 H      1 <0>       0.1300
   48 H48      11.8192    -6.0852     4.9989 H      1 <0>       0.1300
   49 H49      10.0309    -4.6168     5.8326 H      1 <0>       0.1400
   50 H50       4.7092    -2.6921     2.2914 H      1 <0>       0.1400
@<TRIPOS>BOND
   1    1    2 1
   2    1   30 1
   3    1   31 1
   4    1   32 1
   5    2    3 1
   6    2   33 1
   7    2   34 1
   8    3   29 1
   9    3    4 2
  10    4    5 1
  11    5    6 1
  12    5   13 2
  13    6   12 ar
  14    6    7 ar
  15    7    8 ar
  16    7   35 1
  17    8    9 ar
  18    8   36 1
  19    9   10 ar
  20    9   37 1
  21   10   11 1
  22   10   12 ar
  23   11   38 1
  24   11   39 1
  25   11   40 1
  26   12   41 1
  27   13   14 1
  28   13   29 1
  29   14   28 ar
  30   14   15 ar
  31   15   16 ar
  32   15   42 1
  33   16   17 ar
  34   16   43 1
  35   17   18 ar
  36   18   19 1
  37   18   28 ar
  38   19   20 am
  39   19   44 1
  40   20   21 2
  41   20   22 1
  42   22   27 ar
  43   22   23 ar
  44   23   24 ar
  45   23   45 1
  46   24   25 ar
  47   24   46 1
  48   25   26 ar
  49   25   47 1
  50   26   27 ar
  51   26   48 1
  52   27   49 1
  53   28   50 1
