@<TRIPOS>MOLECULE
ZINC000003985553
67    69    1     0     0
SMALL
USER_CHARGES
@<TRIPOS>ATOM
1      C1      1.1802   -0.8074   -1.9570 C.3      1 ZINC000003985553   -0.1400
2      C2      0.4968   -0.6745   -0.5945 C.3      1 ZINC000003985553   -0.1400
3      C3      1.3081   -1.4006    0.4473 C.2      1 ZINC000003985553    0.5100
4      O4      2.3321   -1.9685    0.1313 O.2      1 ZINC000003985553   -0.5100
5      N5      0.8958   -1.4189    1.7304 N.am     1 ZINC000003985553   -0.6800
6      C6      1.5954   -2.1665    2.6769 C.ar     1 ZINC000003985553    0.1700
7      C7      0.9250   -3.1084    3.4510 C.ar     1 ZINC000003985553   -0.1000
8      C8     -0.5557   -3.3185    3.2657 C.3      1 ZINC000003985553   -0.1100
9      C9      1.6129   -3.8488    4.3858 C.ar     1 ZINC000003985553   -0.0900
10     C10     2.9860   -3.6532    4.5570 C.ar     1 ZINC000003985553   -0.1400
11     C11     3.7268   -4.4456    5.5579 C.2      1 ZINC000003985553    0.5700
12     O12     4.6297   -3.9338    6.1913 O.2      1 ZINC000003985553   -0.5200
13     N13     3.4025   -5.7365    5.7698 N.am     1 ZINC000003985553   -0.6200
14     C14     2.4017   -6.4049    4.9270 C.3      1 ZINC000003985553    0.1000
15     C15     3.0147   -7.6879    4.3570 C.3      1 ZINC000003985553   -0.1600
16     C16     3.5453   -8.5490    5.5056 C.3      1 ZINC000003985553    0.0300
17     N17     4.1041   -9.7954    4.9652 N.4      1 ZINC000003985553   -0.3800
18     H18     4.8584   -9.5786    4.3310 H        1 ZINC000003985553    0.4200
19     C19     4.6135  -10.6221    6.0675 C.3      1 ZINC000003985553   -0.0600
20     C20     3.0555  -10.5307    4.2457 C.3      1 ZINC000003985553   -0.0100
21     C21     3.6648  -11.7651    3.5778 C.3      1 ZINC000003985553   -0.1000
22     C22     2.5891  -12.5194    2.8398 C.ar     1 ZINC000003985553   -0.1100
23     C23     1.8675  -13.5048    3.4873 C.ar     1 ZINC000003985553   -0.1100
24     C24     0.8808  -14.1968    2.8102 C.ar     1 ZINC000003985553   -0.1100
25     C25     0.6152  -13.9030    1.4858 C.ar     1 ZINC000003985553   -0.1000
26     C26     1.3361  -12.9169    0.8386 C.ar     1 ZINC000003985553   -0.1100
27     C27     2.3199  -12.2220    1.5169 C.ar     1 ZINC000003985553   -0.1100
28     C28     4.6375   -7.7840    6.2566 C.3      1 ZINC000003985553   -0.1600
29     C29     4.0473   -6.5038    6.8441 C.3      1 ZINC000003985553    0.1200
30     C30     3.6563   -2.7061    3.7781 C.ar     1 ZINC000003985553   -0.0600
31     C31     2.9634   -1.9731    2.8411 C.ar     1 ZINC000003985553   -0.0700
32     C32     3.6853   -0.9515    2.0007 C.3      1 ZINC000003985553   -0.1100
33     H33     1.2553   -1.8614   -2.2245 H        1 ZINC000003985553    0.0600
34     H34     0.5933   -0.2822   -2.7106 H        1 ZINC000003985553    0.0700
35     H35     2.1787   -0.3733   -1.9065 H        1 ZINC000003985553    0.0600
36     H36     0.4217    0.3795   -0.3270 H        1 ZINC000003985553    0.1000
37     H37    -0.5017   -1.1086   -0.6450 H        1 ZINC000003985553    0.1000
38     H38     0.1124   -0.9120    1.9953 H        1 ZINC000003985553    0.4100
39     H39    -0.7216   -4.1399    2.5686 H        1 ZINC000003985553    0.0700
40     H40    -1.0115   -3.5594    4.2261 H        1 ZINC000003985553    0.0700
41     H41    -1.0049   -2.4084    2.8684 H        1 ZINC000003985553    0.0700
42     H42     1.0919   -4.5797    4.9864 H        1 ZINC000003985553    0.1300
43     H43     1.5261   -6.6534    5.5267 H        1 ZINC000003985553    0.0800
44     H44     2.1120   -5.7441    4.1099 H        1 ZINC000003985553    0.1200
45     H45     2.2534   -8.2424    3.8083 H        1 ZINC000003985553    0.1000
46     H46     3.8342   -7.4324    3.6853 H        1 ZINC000003985553    0.0900
47     H47     2.7302   -8.7833    6.1903 H        1 ZINC000003985553    0.1400
48     H48     5.3916  -10.0765    6.6013 H        1 ZINC000003985553    0.1300
49     H49     3.7987  -10.8563    6.7526 H        1 ZINC000003985553    0.1200
50     H50     5.0281  -11.5469    5.6665 H        1 ZINC000003985553    0.1300
51     H51     2.2827  -10.8421    4.9485 H        1 ZINC000003985553    0.1300
52     H52     2.6161   -9.8856    3.4849 H        1 ZINC000003985553    0.1300
53     H53     4.4376  -11.4537    2.8751 H        1 ZINC000003985553    0.0900
54     H54     4.1042  -12.4102    4.3387 H        1 ZINC000003985553    0.1000
55     H55     2.0750  -13.7343    4.5220 H        1 ZINC000003985553    0.1200
56     H56     0.3176  -14.9671    3.3159 H        1 ZINC000003985553    0.1300
57     H57    -0.1553  -14.4441    0.9567 H        1 ZINC000003985553    0.1300
58     H58     1.1288  -12.6876   -0.1962 H        1 ZINC000003985553    0.1300
59     H59     2.8832  -11.4517    1.0112 H        1 ZINC000003985553    0.1200
60     H60     5.0312   -8.4067    7.0598 H        1 ZINC000003985553    0.1000
61     H61     5.4417   -7.5275    5.5670 H        1 ZINC000003985553    0.0900
62     H62     4.8416   -5.9083    7.2942 H        1 ZINC000003985553    0.1100
63     H63     3.3046   -6.7574    7.6005 H        1 ZINC000003985553    0.0800
64     H64     4.7173   -2.5523    3.9082 H        1 ZINC000003985553    0.1400
65     H65     4.1357   -1.4431    1.1384 H        1 ZINC000003985553    0.0900
66     H66     2.9775   -0.1960    1.6596 H        1 ZINC000003985553    0.0600
67     H67     4.4649   -0.4764    2.5963 H        1 ZINC000003985553    0.0700
@<TRIPOS>BOND
1     1     2     1
2     1     33    1
3     1     34    1
4     1     35    1
5     2     3     1
6     2     36    1
7     2     37    1
8     3     4     2
9     3     5     am
10    5     6     1
11    5     38    1
12    6     31    ar
13    6     7     ar
14    7     8     1
15    7     9     ar
16    8     39    1
17    8     40    1
18    8     41    1
19    9     10    ar
20    9     42    1
21    10    11    1
22    10    30    ar
23    11    12    2
24    11    13    am
25    13    29    1
26    13    14    1
27    14    15    1
28    14    43    1
29    14    44    1
30    15    16    1
31    15    45    1
32    15    46    1
33    16    17    1
34    16    28    1
35    16    47    1
36    17    18    1
37    17    19    1
38    17    20    1
39    19    48    1
40    19    49    1
41    19    50    1
42    20    21    1
43    20    51    1
44    20    52    1
45    21    22    1
46    21    53    1
47    21    54    1
48    22    27    ar
49    22    23    ar
50    23    24    ar
51    23    55    1
52    24    25    ar
53    24    56    1
54    25    26    ar
55    25    57    1
56    26    27    ar
57    26    58    1
58    27    59    1
59    28    29    1
60    28    60    1
61    28    61    1
62    29    62    1
63    29    63    1
64    30    31    ar
65    30    64    1
66    31    32    1
67    32    65    1
68    32    66    1
69    32    67    1
@<TRIPOS>SUBSTRUCTURE
1   ZINC000003985553 1     RESIDUE    1   A     ZIN   1
