@<TRIPOS>MOLECULE
ZINC000038141213
  58   58    0    0    0
SMALL
USER_CHARGES
NO_NAME
@<TRIPOS>ATOM
    1 C1        0.2869     1.3493    -0.9589 C.3    1 <0>      -0.1700
    2 C2        0.1971    -0.1408    -0.6235 C.3    1 <0>      -0.1400
    3 C3       -1.2111    -0.4667    -0.1219 C.3    1 <0>       0.0300
    4 H4       -1.4467     0.1643     0.7351 H      1 <0>       0.1700
    5 C5       -1.2756    -1.9154     0.2881 C.2    1 <0>       0.4600
    6 O6       -1.9150    -2.7046    -0.3734 O.2    1 <0>      -0.4800
    7 O7       -0.6251    -2.3317     1.3857 O.3    1 <0>      -0.2300
    8 C8       -0.7248    -3.6520     1.6993 C.ar   1 <0>      -0.0200
    9 C9       -1.7540    -4.0974     2.5210 C.ar   1 <0>       0.1800
   10 O10      -2.6635    -3.2143     3.0125 O.3    1 <0>      -0.3100
   11 C11      -3.6936    -3.7426     3.8502 C.3    1 <0>       0.0200
   12 C12      -1.8519    -5.4438     2.8381 C.ar   1 <0>      -0.2400
   13 C13      -0.9281    -6.3425     2.3386 C.ar   1 <0>       0.0200
   14 C14      -1.0385    -7.8048     2.6860 C.3    1 <0>      -0.1300
   15 C15       0.0965    -5.9039     1.5209 C.ar   1 <0>      -0.2400
   16 C16       0.1987    -4.5601     1.1944 C.ar   1 <0>       0.1800
   17 O17       1.2069    -4.1297     0.3900 O.3    1 <0>      -0.3100
   18 C18       2.1256    -5.1167    -0.0832 C.3    1 <0>       0.0200
   19 N19      -2.1830    -0.2178    -1.1950 N.4    1 <0>      -0.3700
   20 H20      -2.1572     0.7575    -1.4526 H      1 <0>       0.4400
   21 C21      -1.8445    -1.0418    -2.3631 C.3    1 <0>      -0.0300
   22 C22      -2.7552    -0.6660    -3.5336 C.3    1 <0>       0.0300
   23 O23      -2.5072     0.6889    -3.9141 O.3    1 <0>      -0.4000
   24 C24      -3.3859     1.1776    -4.9295 C.3    1 <0>       0.0300
   25 C25      -3.5309    -0.5647    -0.7251 C.3    1 <0>      -0.0300
   26 C26      -3.9524     0.4080     0.3781 C.3    1 <0>       0.0300
   27 O27      -4.0452     1.7282    -0.1607 O.3    1 <0>      -0.4000
   28 C28      -4.3257     2.7352     0.8136 C.3    1 <0>       0.0300
   29 H29       1.3141     1.6011    -1.2228 H      1 <0>       0.0900
   30 H30      -0.3695     1.5727    -1.8000 H      1 <0>       0.0600
   31 H31      -0.0199     1.9358    -0.0929 H      1 <0>       0.0800
   32 H32       0.4094    -0.7277    -1.5171 H      1 <0>       0.1000
   33 H33       0.9240    -0.3832     0.1516 H      1 <0>       0.1300
   34 H34      -4.2724    -4.4796     3.2934 H      1 <0>       0.0600
   35 H35      -3.2448    -4.2170     4.7228 H      1 <0>       0.0700
   36 H36      -4.3496    -2.9342     4.1732 H      1 <0>       0.1100
   37 H37      -2.6508    -5.7907     3.4767 H      1 <0>       0.1500
   38 H38      -1.6585    -8.3086     1.9445 H      1 <0>       0.0900
   39 H39      -0.0447    -8.2525     2.6933 H      1 <0>       0.0800
   40 H40      -1.4921    -7.9108     3.6714 H      1 <0>       0.0800
   41 H41       0.8160    -6.6095     1.1324 H      1 <0>       0.1500
   42 H42       2.6128    -5.5963     0.7657 H      1 <0>       0.0700
   43 H43       1.5871    -5.8656    -0.6639 H      1 <0>       0.0600
   44 H44       2.8778    -4.6409    -0.7125 H      1 <0>       0.1100
   45 H45      -0.8049    -0.8682    -2.6412 H      1 <0>       0.1400
   46 H46      -1.9839    -2.0946    -2.1177 H      1 <0>       0.1700
   47 H47      -2.5512    -1.3238    -4.3785 H      1 <0>       0.1000
   48 H48      -3.7972    -0.7738    -3.2324 H      1 <0>       0.0700
   49 H49      -3.0781     2.1808    -5.2245 H      1 <0>       0.1000
   50 H50      -3.3451     0.5159    -5.7947 H      1 <0>       0.0500
   51 H51      -4.4050     1.2090    -4.5439 H      1 <0>       0.0500
   52 H52      -4.2335    -0.4985    -1.5558 H      1 <0>       0.1400
   53 H53      -3.5281    -1.5812    -0.3317 H      1 <0>       0.1600
   54 H54      -4.9223     0.1086     0.7753 H      1 <0>       0.1000
   55 H55      -3.2120     0.3932     1.1780 H      1 <0>       0.0700
   56 H56      -4.2939     3.7169     0.3410 H      1 <0>       0.1000
   57 H57      -5.3167     2.5669     1.2352 H      1 <0>       0.0600
   58 H58      -3.5806     2.6900     1.6079 H      1 <0>       0.0500
@<TRIPOS>BOND
   1    1    2 1
   2    1   29 1
   3    1   30 1
   4    1   31 1
   5    2    3 1
   6    2   32 1
   7    2   33 1
   8    3    4 1
   9    3    5 1
  10    3   19 1
  11    5    6 2
  12    5    7 1
  13    7    8 1
  14    8   16 ar
  15    8    9 ar
  16    9   10 1
  17    9   12 ar
  18   10   11 1
  19   11   34 1
  20   11   35 1
  21   11   36 1
  22   12   13 ar
  23   12   37 1
  24   13   14 1
  25   13   15 ar
  26   14   38 1
  27   14   39 1
  28   14   40 1
  29   15   16 ar
  30   15   41 1
  31   16   17 1
  32   17   18 1
  33   18   42 1
  34   18   43 1
  35   18   44 1
  36   19   20 1
  37   19   21 1
  38   19   25 1
  39   21   22 1
  40   21   45 1
  41   21   46 1
  42   22   23 1
  43   22   47 1
  44   22   48 1
  45   23   24 1
  46   24   49 1
  47   24   50 1
  48   24   51 1
  49   25   26 1
  50   25   52 1
  51   25   53 1
  52   26   27 1
  53   26   54 1
  54   26   55 1
  55   27   28 1
  56   28   56 1
  57   28   57 1
  58   28   58 1
