@<TRIPOS>MOLECULE
ZINC000040763593
  30   31    0    0    0
SMALL
USER_CHARGES
NO_NAME
@<TRIPOS>ATOM
    1 C1       -0.0173     1.4248     0.0099 C.3    1 <0>       0.0200
    2 O2        0.0021    -0.0041     0.0020 O.3    1 <0>      -0.3100
    3 C3        0.6051    -0.6064    -1.0545 C.ar   1 <0>       0.1800
    4 C4        1.1707     0.1733    -2.0587 C.ar   1 <0>      -0.2700
    5 C5        1.7933    -0.4183    -3.1448 C.ar   1 <0>       0.2300
    6 O6        2.3423     0.3465    -4.1218 O.3    1 <0>      -0.4800
    7 C7        1.8497    -1.8112    -3.2222 C.ar   1 <0>      -0.2600
    8 C8        2.4966    -2.5278    -4.3262 C.2    1 <0>       0.5300
    9 O9        2.6268    -2.0223    -5.4258 O.2    1 <0>      -0.4300
   10 O10       2.9416    -3.7794    -4.0630 O.3    1 <0>      -0.2700
   11 C11       2.1810    -4.5676    -3.2785 C.2    1 <0>       0.2100
   12 C12       2.2601    -6.0628    -3.4498 C.3    1 <0>      -0.1300
   13 H13       1.5861    -6.5457    -2.7424 H      1 <0>       0.1000
   14 C14       3.6933    -6.5307    -3.1895 C.3    1 <0>      -0.1200
   15 C15       1.8596    -6.4292    -4.8556 C.2    1 <0>       0.5000
   16 O16       1.5395    -5.5572    -5.6452 O.co2  1 <0>      -0.6800
   17 O17       1.8556    -7.5978    -5.2033 O.co2  1 <0>      -0.6900
   18 C18       1.3548    -4.0621    -2.3485 C.2    1 <0>      -0.2800
   19 C19       1.2675    -2.6044    -2.1999 C.ar   1 <0>       0.0800
   20 C20       0.6546    -1.9914    -1.1164 C.ar   1 <0>      -0.1800
   21 H21       1.0053     1.8021     0.0021 H      1 <0>       0.0600
   22 H22      -0.5445     1.7859    -0.8732 H      1 <0>       0.0600
   23 H23      -0.5275     1.7763     0.9067 H      1 <0>       0.1000
   24 H24       1.1233     1.2501    -1.9904 H      1 <0>       0.1400
   25 H25       3.2693     0.5747    -3.9684 H      1 <0>       0.4000
   26 H26       3.7506    -7.6122    -3.3133 H      1 <0>       0.0700
   27 H27       4.3674    -6.0478    -3.8969 H      1 <0>       0.0600
   28 H28       3.9831    -6.2657    -2.1726 H      1 <0>       0.0500
   29 H29       0.7654    -4.7154    -1.7223 H      1 <0>       0.1500
   30 H30       0.2163    -2.5876    -0.3297 H      1 <0>       0.1400
@<TRIPOS>BOND
   1    1    2 1
   2    1   21 1
   3    1   22 1
   4    1   23 1
   5    2    3 1
   6    3   20 ar
   7    3    4 ar
   8    4    5 ar
   9    4   24 1
  10    5    6 1
  11    5    7 ar
  12    6   25 1
  13    7   19 ar
  14    7    8 1
  15    8    9 2
  16    8   10 1
  17   10   11 1
  18   11   12 1
  19   11   18 2
  20   12   13 1
  21   12   14 1
  22   12   15 1
  23   14   26 1
  24   14   27 1
  25   14   28 1
  26   15   16 ar
  27   15   17 ar
  28   18   19 1
  29   18   29 1
  30   19   20 ar
  31   20   30 1
