@<TRIPOS>MOLECULE
ZINC000000005986
36    37    1     0     0
SMALL
USER_CHARGES
@<TRIPOS>ATOM
1      C1     -0.0187    1.5258    0.0104 C.3      1 ZINC000000005986   -0.1600
2      C2      0.0021   -0.0041    0.0020 C.3      1 ZINC000000005986    0.2700
3      H3      0.5123   -0.3556   -0.8948 H        1 ZINC000000005986    0.1000
4      C4     -1.3789   -0.5136    0.0125 C.1      1 ZINC000000005986   -0.0700
5      C5     -2.4803   -0.9199    0.0208 C.1      1 ZINC000000005986   -0.1800
6      C6     -3.8237   -1.4156    0.0310 C.2      1 ZINC000000005986   -0.0300
7      C7     -4.9372   -0.6512    0.0398 C.2      1 ZINC000000005986   -0.1400
8      C8     -6.1206   -1.3585    0.0487 C.2      1 ZINC000000005986   -0.1200
9      C9     -5.9861   -2.6885    0.0472 C.2      1 ZINC000000005986   -0.2000
10     C10    -7.1254   -3.6748    0.0556 C.3      1 ZINC000000005986    0.0000
11     C11    -7.5162   -4.0030   -1.3624 C.ar     1 ZINC000000005986   -0.0900
12     C12    -8.4749   -3.2444   -2.0079 C.ar     1 ZINC000000005986   -0.0800
13     C13    -8.8340   -3.5445   -3.3082 C.ar     1 ZINC000000005986   -0.1500
14     C14    -8.2329   -4.6050   -3.9647 C.ar     1 ZINC000000005986    0.0900
15     F15    -8.5829   -4.8990   -5.2360 F        1 ZINC000000005986   -0.1400
16     C16    -7.2725   -5.3638   -3.3174 C.ar     1 ZINC000000005986   -0.1500
17     C17    -6.9115   -5.0589   -2.0187 C.ar     1 ZINC000000005986   -0.0800
18     S18    -4.2800   -3.1143    0.0262 S.3      1 ZINC000000005986    0.1400
19     N19     0.7106   -0.4894    1.1889 N.am     1 ZINC000000005986   -0.4400
20     O20     1.8716   -1.2870    1.0436 O.3      1 ZINC000000005986   -0.7000
21     C21     0.2575   -0.1767    2.4191 C.2      1 ZINC000000005986    0.6800
22     N22     0.9094   -0.6231    3.5110 N.am     1 ZINC000000005986   -0.8700
23     O23    -0.7393    0.5082    2.5438 O.2      1 ZINC000000005986   -0.6600
24     H24     1.0039    1.9031    0.0027 H        1 ZINC000000005986    0.0600
25     H25    -0.5459    1.8868   -0.8726 H        1 ZINC000000005986    0.0500
26     H26    -0.5289    1.8773    0.9072 H        1 ZINC000000005986    0.0800
27     H27    -4.9033    0.4282    0.0403 H        1 ZINC000000005986    0.1400
28     H28    -7.0856   -0.8736    0.0567 H        1 ZINC000000005986    0.1400
29     H29    -6.8137   -4.5856    0.5667 H        1 ZINC000000005986    0.0900
30     H30    -7.9786   -3.2399    0.5762 H        1 ZINC000000005986    0.0900
31     H31    -8.9436   -2.4172   -1.4956 H        1 ZINC000000005986    0.1300
32     H32    -9.5835   -2.9522   -3.8120 H        1 ZINC000000005986    0.1300
33     H33    -6.8031   -6.1914   -3.8284 H        1 ZINC000000005986    0.1400
34     H34    -6.1621   -5.6503   -1.5137 H        1 ZINC000000005986    0.1300
35     H35     1.7046   -1.1695    3.4114 H        1 ZINC000000005986    0.4000
36     H36     0.5832   -0.3981    4.3963 H        1 ZINC000000005986    0.3900
@<TRIPOS>BOND
1     1     2     1
2     1     24    1
3     1     25    1
4     1     26    1
5     2     3     1
6     2     4     1
7     2     19    1
8     4     5     3
9     5     6     1
10    6     18    1
11    6     7     2
12    7     8     1
13    7     27    1
14    8     9     2
15    8     28    1
16    9     10    1
17    9     18    1
18    10    11    1
19    10    29    1
20    10    30    1
21    11    17    ar
22    11    12    ar
23    12    13    ar
24    12    31    1
25    13    14    ar
26    13    32    1
27    14    15    1
28    14    16    ar
29    16    17    ar
30    16    33    1
31    17    34    1
32    19    20    1
33    19    21    am
34    21    22    am
35    21    23    2
36    22    35    1
37    22    36    1
@<TRIPOS>SUBSTRUCTURE
1   ZINC000000005986 1     RESIDUE    1   A     ZIN   1
