@<TRIPOS>MOLECULE
ZINC000013605142
  46   48    0    0    0
SMALL
USER_CHARGES
NO_NAME
@<TRIPOS>ATOM
    1 C1        1.8292     2.6023    -1.4439 C.3    1 <0>      -0.1600
    2 C2        2.7831     1.6352    -2.1479 C.3    1 <0>       0.1300
    3 C3        1.9780     0.5777    -2.9058 C.3    1 <0>      -0.1400
    4 O4        3.6114     2.3560    -3.0610 O.3    1 <0>      -0.2900
    5 C5        4.5599     3.1784    -2.5442 C.ar   1 <0>       0.2000
    6 C6        5.1165     4.1500    -3.3741 C.ar   1 <0>      -0.1500
    7 C7        6.0843     5.0030    -2.8962 C.ar   1 <0>      -0.0300
    8 C8        6.5124     4.8945    -1.5704 C.ar   1 <0>      -0.0700
    9 C9        7.5209     5.7769    -1.0654 C.1    1 <0>       0.2600
   10 N10       8.3208     6.4768    -0.6647 N.1    1 <0>      -0.4200
   11 C11       5.9516     3.9217    -0.7405 C.ar   1 <0>      -0.0200
   12 C12       4.9789     3.0709    -1.2265 C.ar   1 <0>      -0.1500
   13 C13       4.3891     2.0408    -0.2965 C.3    1 <0>       0.1100
   14 H14       5.1844     1.5913     0.2980 H      1 <0>       0.0600
   15 N15       3.4201     2.6853     0.5933 N.2    1 <0>      -0.5900
   16 C16       3.5295     2.5483     1.8839 C.2    1 <0>       0.6300
   17 N17       4.4394     1.6531     2.4079 N.pl3  1 <0>      -0.6300
   18 C18       4.6328     1.5896     3.7476 C.1    1 <0>       0.3900
   19 N19       4.7949     1.5363     4.8707 N.1    1 <0>      -0.3800
   20 N20       2.7377     3.2964     2.7250 N.pl3  1 <0>      -0.6600
   21 C21       1.7062     4.0824     2.1995 C.ar   1 <0>       0.1700
   22 C22       0.7753     3.5211     1.3352 C.ar   1 <0>      -0.0900
   23 C23      -0.2418     4.2991     0.8179 C.ar   1 <0>      -0.0900
   24 C24      -0.3338     5.6368     1.1601 C.ar   1 <0>      -0.0400
   25 Cl25     -1.6139     6.6118     0.5086 Cl     1 <0>      -0.0700
   26 C26       0.5925     6.1986     2.0212 C.ar   1 <0>      -0.0900
   27 C27       1.6082     5.4237     2.5458 C.ar   1 <0>      -0.1200
   28 C28       3.6852     0.9531    -1.1114 C.3    1 <0>       0.0800
   29 H29       3.0812     0.3317    -0.4503 H      1 <0>       0.0800
   30 O30       4.6577     0.1446    -1.7768 O.3    1 <0>      -0.5400
   31 H31       2.3908     3.4580    -1.0688 H      1 <0>       0.1000
   32 H32       1.0730     2.9453    -2.1500 H      1 <0>       0.0600
   33 H33       1.3443     2.0927    -0.6113 H      1 <0>       0.0700
   34 H34       1.3453     1.0653    -3.6474 H      1 <0>       0.0700
   35 H35       2.6607    -0.1093    -3.4059 H      1 <0>       0.0700
   36 H36       1.3546     0.0237    -2.2040 H      1 <0>       0.0800
   37 H37       4.7862     4.2335    -4.3990 H      1 <0>       0.1400
   38 H38       6.5117     5.7544    -3.5436 H      1 <0>       0.1400
   39 H39       6.2798     3.8345     0.2847 H      1 <0>       0.1300
   40 H40       4.9405     1.0692     1.8173 H      1 <0>       0.4400
   41 H41       2.8947     3.2789     3.6820 H      1 <0>       0.4200
   42 H42       0.8468     2.4773     1.0675 H      1 <0>       0.1400
   43 H43      -0.9659     3.8632     0.1455 H      1 <0>       0.1400
   44 H44       0.5184     7.2428     2.2866 H      1 <0>       0.1400
   45 H45       2.3309     5.8626     3.2177 H      1 <0>       0.1300
   46 H46       5.2728    -0.3024    -1.1794 H      1 <0>       0.3800
@<TRIPOS>BOND
   1    1    2 1
   2    1   31 1
   3    1   32 1
   4    1   33 1
   5    2   28 1
   6    2    3 1
   7    2    4 1
   8    3   34 1
   9    3   35 1
  10    3   36 1
  11    4    5 1
  12    5   12 ar
  13    5    6 ar
  14    6    7 ar
  15    6   37 1
  16    7    8 ar
  17    7   38 1
  18    8    9 1
  19    8   11 ar
  20    9   10 3
  21   11   12 ar
  22   11   39 1
  23   12   13 1
  24   13   14 1
  25   13   15 1
  26   13   28 1
  27   15   16 2
  28   16   17 1
  29   16   20 1
  30   17   18 1
  31   17   40 1
  32   18   19 3
  33   20   21 1
  34   20   41 1
  35   21   27 ar
  36   21   22 ar
  37   22   23 ar
  38   22   42 1
  39   23   24 ar
  40   23   43 1
  41   24   25 1
  42   24   26 ar
  43   26   27 ar
  44   26   44 1
  45   27   45 1
  46   28   29 1
  47   28   30 1
  48   30   46 1
