@<TRIPOS>MOLECULE
ZINC000018142033
  29   28    0    0    0
SMALL
USER_CHARGES
NO_NAME
@<TRIPOS>ATOM
    1 C1       -0.0178     1.4608     0.0101 C.3    1 <0>       0.0800
    2 N2        0.0021    -0.0041     0.0020 N.am   1 <0>      -0.6600
    3 C3        0.6044    -0.6754     1.0035 C.2    1 <0>       0.5800
    4 S4        1.3462     0.1837     2.2852 S.2    1 <0>      -0.6000
    5 N5        0.6227    -2.0230     0.9961 N.am   1 <0>      -0.5400
    6 N6        0.0156    -2.7260    -0.0527 N.2    1 <0>      -0.2400
    7 C7        0.0332    -4.0276    -0.0598 C.2    1 <0>       0.1400
    8 C8       -0.6004    -4.7613    -1.1544 C.2    1 <0>       0.1600
    9 C9       -0.5800    -6.2682    -1.1627 C.3    1 <0>      -0.1600
   10 N10      -1.1821    -4.1130    -2.1217 N.2    1 <0>      -0.2400
   11 N11      -1.7892    -4.8160    -3.1705 N.am   1 <0>      -0.5400
   12 C12      -2.3915    -4.1447    -4.1720 C.2    1 <0>       0.5800
   13 S13      -3.1334    -5.0038    -5.4536 S.2    1 <0>      -0.6000
   14 N14      -2.4098    -2.7971    -4.1646 N.am   1 <0>      -0.6600
   15 C15      -3.0645    -2.0674    -5.2533 C.3    1 <0>       0.0800
   16 H16       1.0048     1.8381     0.0023 H      1 <0>       0.0800
   17 H17      -0.5450     1.8219    -0.8730 H      1 <0>       0.0900
   18 H18      -0.5280     1.8123     0.9069 H      1 <0>       0.0800
   19 H19      -0.4183    -0.4908    -0.7241 H      1 <0>       0.4100
   20 H20       1.0561    -2.5061     1.7169 H      1 <0>       0.4200
   21 H21       0.5159    -4.5655     0.7427 H      1 <0>       0.1500
   22 H22      -1.4600    -6.6463    -0.6424 H      1 <0>       0.1000
   23 H23      -0.5848    -6.6259    -2.1923 H      1 <0>       0.0800
   24 H24       0.3197    -6.6221    -0.6593 H      1 <0>       0.1000
   25 H25      -1.7761    -5.7859    -3.1758 H      1 <0>       0.4200
   26 H26      -1.9895    -2.3103    -3.4385 H      1 <0>       0.4100
   27 H27      -4.1178    -2.3448    -5.2947 H      1 <0>       0.0800
   28 H28      -2.9778    -0.9954    -5.0758 H      1 <0>       0.0900
   29 H29      -2.5850    -2.3191    -6.1992 H      1 <0>       0.0800
@<TRIPOS>BOND
   1    1    2 1
   2    1   16 1
   3    1   17 1
   4    1   18 1
   5    2    3 am
   6    2   19 1
   7    3    4 2
   8    3    5 am
   9    5    6 1
  10    5   20 1
  11    6    7 2
  12    7    8 1
  13    7   21 1
  14    8    9 1
  15    8   10 2
  16    9   22 1
  17    9   23 1
  18    9   24 1
  19   10   11 1
  20   11   12 am
  21   11   25 1
  22   12   13 2
  23   12   14 am
  24   14   15 1
  25   14   26 1
  26   15   27 1
  27   15   28 1
  28   15   29 1
