@<TRIPOS>MOLECULE
ZINC000096170454
42    44    1     0     0
SMALL
USER_CHARGES
@<TRIPOS>ATOM
1      O1      0.0021   -0.0041    0.0020 O.2      1 ZINC000096170454   -0.5500
2      C2     -0.0144    1.2129    0.0087 C.2      1 ZINC000096170454    0.5600
3      C3      1.2426    1.9617    0.0007 C.2      1 ZINC000096170454   -0.2100
4      C4      2.4150    1.3058   -0.0140 C.2      1 ZINC000096170454    0.1700
5      N5      3.6018    2.0127   -0.0215 N.pl3    1 ZINC000096170454   -0.3400
6      C6      4.8515    1.4967   -0.0417 C.2      1 ZINC000096170454    0.2900
7      N7      5.7018    2.4875   -0.0424 N.2      1 ZINC000096170454   -0.5200
8      C8      5.0404    3.6543   -0.0230 C.2      1 ZINC000096170454    0.2800
9      C9      5.6641    5.0004   -0.0183 C.ar     1 ZINC000096170454   -0.0200
10     C10     4.8647    6.1415    0.0079 C.ar     1 ZINC000096170454    0.0000
11     C11     5.4503    7.3912    0.0127 C.ar     1 ZINC000096170454   -0.1900
12     C12     4.5871    8.6262    0.0414 C.3      1 ZINC000096170454    0.5100
13     F13     3.2391    8.2526    0.0595 F        1 ZINC000096170454   -0.1700
14     F14     4.8796    9.3729    1.1878 F        1 ZINC000096170454   -0.1700
15     F15     4.8415    9.3995   -1.0963 F        1 ZINC000096170454   -0.1700
16     C16     6.8281    7.5123   -0.0084 C.ar     1 ZINC000096170454    0.0000
17     C17     7.6265    6.3830   -0.0344 C.ar     1 ZINC000096170454   -0.1900
18     C18     9.1268    6.5230   -0.0568 C.3      1 ZINC000096170454    0.5100
19     F19     9.6122    6.5509    1.2550 F        1 ZINC000096170454   -0.1700
20     F20     9.6864    5.4368   -0.7381 F        1 ZINC000096170454   -0.1700
21     F21     9.4746    7.7113   -0.7081 F        1 ZINC000096170454   -0.1700
22     C22     7.0518    5.1283   -0.0341 C.ar     1 ZINC000096170454    0.0100
23     N23     3.7487    3.4095   -0.0159 N.2      1 ZINC000096170454   -0.2900
24     N24    -1.1906    1.8708    0.0179 N.am     1 ZINC000096170454   -0.5100
25     N25    -2.3943    1.1539    0.0197 N.pl3    1 ZINC000096170454   -0.5100
26     C26    -3.6074    1.8325    0.0291 C.ar     1 ZINC000096170454    0.3500
27     C27    -4.8053    1.1217    0.0367 C.ar     1 ZINC000096170454    0.0100
28     N28    -5.9546    1.7698    0.0456 N.ar     1 ZINC000096170454   -0.3900
29     C29    -5.9700    3.0921    0.0473 C.ar     1 ZINC000096170454   -0.0200
30     C30    -4.7836    3.8009    0.0398 C.ar     1 ZINC000096170454    0.1100
31     N31    -3.6276    3.1591    0.0364 N.ar     1 ZINC000096170454   -0.5100
32     H32     1.2280    3.0415    0.0067 H        1 ZINC000096170454    0.1500
33     H33     2.4297    0.2260   -0.0199 H        1 ZINC000096170454    0.1900
34     H34     5.1028    0.4464   -0.0549 H        1 ZINC000096170454    0.2400
35     H35     3.7888    6.0481    0.0240 H        1 ZINC000096170454    0.1600
36     H36     7.2821    8.4922   -0.0050 H        1 ZINC000096170454    0.1600
37     H37     7.6761    4.2472   -0.0541 H        1 ZINC000096170454    0.1600
38     H38    -1.2038    2.8407    0.0232 H        1 ZINC000096170454    0.4400
39     H39    -2.3812    0.1840    0.0143 H        1 ZINC000096170454    0.4500
40     H40    -4.7934    0.0417    0.0349 H        1 ZINC000096170454    0.1700
41     H41    -6.9124    3.6196    0.0543 H        1 ZINC000096170454    0.1700
42     H42    -4.8007    4.8808    0.0413 H        1 ZINC000096170454    0.1700
@<TRIPOS>BOND
1     1     2     2
2     2     3     1
3     2     24    am
4     3     4     2
5     3     32    1
6     4     5     1
7     4     33    1
8     5     23    1
9     5     6     1
10    6     7     2
11    6     34    1
12    7     8     1
13    8     9     1
14    8     23    2
15    9     22    ar
16    9     10    ar
17    10    11    ar
18    10    35    1
19    11    12    1
20    11    16    ar
21    12    13    1
22    12    14    1
23    12    15    1
24    16    17    ar
25    16    36    1
26    17    18    1
27    17    22    ar
28    18    19    1
29    18    20    1
30    18    21    1
31    22    37    1
32    24    25    1
33    24    38    1
34    25    26    1
35    25    39    1
36    26    31    ar
37    26    27    ar
38    27    28    ar
39    27    40    1
40    28    29    ar
41    29    30    ar
42    29    41    1
43    30    31    ar
44    30    42    1
@<TRIPOS>SUBSTRUCTURE
1   ZINC000096170454 1     RESIDUE    1   A     ZIN   1
