@<TRIPOS>MOLECULE
ZINC000003932652
53    56    1     0     0
SMALL
USER_CHARGES
@<TRIPOS>ATOM
1      N1     -0.0167    1.3799    0.0096 N.pl3    1 ZINC000003932652   -0.8200
2      C2      0.0021   -0.0041    0.0020 C.ar     1 ZINC000003932652    0.5100
3      C3     -1.1979   -0.7395    0.0036 C.ar     1 ZINC000003932652   -0.0900
4      N4     -2.5110   -0.4146    0.0119 N.2      1 ZINC000003932652   -0.4600
5      C5     -3.2278   -1.5019    0.0091 C.2      1 ZINC000003932652    0.2700
6      N6     -2.4161   -2.5958   -0.0012 N.pl3    1 ZINC000003932652   -0.4700
7      C7     -2.8476   -3.9958   -0.0072 C.3      1 ZINC000003932652    0.3100
8      H8     -2.1714   -4.6020   -0.6099 H        1 ZINC000003932652    0.1300
9      O9     -4.2021   -4.1082   -0.4942 O.3      1 ZINC000003932652   -0.3500
10     C10    -4.7198   -5.3587   -0.0099 C.3      1 ZINC000003932652    0.0500
11     H11    -4.5564   -6.1399   -0.7523 H        1 ZINC000003932652    0.1000
12     C12    -6.2155   -5.2242    0.2829 C.3      1 ZINC000003932652    0.0800
13     O13    -6.9228   -5.0093   -0.9401 O.3      1 ZINC000003932652   -0.5600
14     C14    -3.9576   -5.6992    1.2854 C.3      1 ZINC000003932652    0.0400
15     H15    -4.6400   -5.7206    2.1351 H        1 ZINC000003932652    0.0900
16     O16    -3.2841   -6.9527    1.1546 O.3      1 ZINC000003932652   -0.5400
17     C17    -2.9325   -4.5469    1.4390 C.3      1 ZINC000003932652    0.0800
18     H18    -3.3048   -3.7836    2.1222 H        1 ZINC000003932652    0.0900
19     O19    -1.6666   -5.0455    1.8761 O.3      1 ZINC000003932652   -0.5200
20     C20    -1.1191   -2.1451   -0.0049 C.ar     1 ZINC000003932652    0.3200
21     N21     0.0726   -2.7254   -0.0141 N.ar     1 ZINC000003932652   -0.5000
22     C22     1.1784   -1.9953   -0.0152 C.ar     1 ZINC000003932652    0.5100
23     N23     2.3933   -2.6331   -0.0253 N.2      1 ZINC000003932652   -0.1700
24     N24     3.4415   -1.9705   -0.0265 N.2      1 ZINC000003932652   -0.1500
25     C25     4.7385   -2.6514   -0.0373 C.3      1 ZINC000003932652    0.0200
26     C26     5.5190   -2.2422   -1.2880 C.3      1 ZINC000003932652   -0.0700
27     C27     5.8462   -0.7492   -1.2193 C.3      1 ZINC000003932652   -0.1100
28     C28     6.6267   -0.3401   -2.4700 C.3      1 ZINC000003932652   -0.1200
29     C29     7.9262   -1.1440   -2.5460 C.3      1 ZINC000003932652   -0.1200
30     C30     7.5990   -2.6370   -2.6147 C.3      1 ZINC000003932652   -0.1200
31     C31     6.8186   -3.0462   -1.3640 C.3      1 ZINC000003932652   -0.1100
32     N32     1.1513   -0.6661   -0.0125 N.ar     1 ZINC000003932652   -0.5700
33     H33     0.8167    1.8763    0.0043 H        1 ZINC000003932652    0.4100
34     H34    -0.8632    1.8534    0.0162 H        1 ZINC000003932652    0.4200
35     H35    -4.3074   -1.5319    0.0142 H        1 ZINC000003932652    0.2300
36     H36    -6.5767   -6.1373    0.7559 H        1 ZINC000003932652    0.0700
37     H37    -6.3803   -4.3790    0.9512 H        1 ZINC000003932652    0.0600
38     H38    -7.8789   -4.9147   -0.8301 H        1 ZINC000003932652    0.3900
39     H39    -3.8748   -7.7022    0.9985 H        1 ZINC000003932652    0.3900
40     H40    -1.6919   -5.4798    2.7397 H        1 ZINC000003932652    0.3900
41     H41     5.3036   -2.3708    0.8516 H        1 ZINC000003932652    0.1100
42     H42     4.5826   -3.7302   -0.0431 H        1 ZINC000003932652    0.0700
43     H43     4.9161   -2.4417   -2.1739 H        1 ZINC000003932652    0.0700
44     H44     4.9204   -0.1765   -1.1652 H        1 ZINC000003932652    0.0700
45     H45     6.4491   -0.5498   -0.3334 H        1 ZINC000003932652    0.0600
46     H46     6.0238   -0.5395   -3.3559 H        1 ZINC000003932652    0.0600
47     H47     6.8598    0.7236   -2.4211 H        1 ZINC000003932652    0.0600
48     H48     8.4822   -0.8525   -3.4370 H        1 ZINC000003932652    0.0600
49     H49     8.5291   -0.9446   -1.6601 H        1 ZINC000003932652    0.0600
50     H50     6.9961   -2.8364   -3.5006 H        1 ZINC000003932652    0.0600
51     H51     8.5248   -3.2097   -2.6688 H        1 ZINC000003932652    0.0600
52     H52     7.4215   -2.8467   -0.4781 H        1 ZINC000003932652    0.0700
53     H53     6.5855   -4.1098   -1.4129 H        1 ZINC000003932652    0.0700
@<TRIPOS>BOND
1     1     2     1
2     1     33    1
3     1     34    1
4     2     32    ar
5     2     3     ar
6     3     20    ar
7     3     4     1
8     4     5     2
9     5     6     1
10    5     35    1
11    6     7     1
12    6     20    1
13    7     8     1
14    7     17    1
15    7     9     1
16    9     10    1
17    10    11    1
18    10    12    1
19    10    14    1
20    12    13    1
21    12    36    1
22    12    37    1
23    13    38    1
24    14    15    1
25    14    16    1
26    14    17    1
27    16    39    1
28    17    18    1
29    17    19    1
30    19    40    1
31    20    21    ar
32    21    22    ar
33    22    23    1
34    22    32    ar
35    23    24    2
36    24    25    1
37    25    26    1
38    25    41    1
39    25    42    1
40    26    31    1
41    26    27    1
42    26    43    1
43    27    28    1
44    27    44    1
45    27    45    1
46    28    29    1
47    28    46    1
48    28    47    1
49    29    30    1
50    29    48    1
51    29    49    1
52    30    31    1
53    30    50    1
54    30    51    1
55    31    52    1
56    31    53    1
@<TRIPOS>SUBSTRUCTURE
1   ZINC000003932652 1     RESIDUE    1   A     ZIN   1
