@<TRIPOS>MOLECULE
ZINC000008214650
26    25    1     0     0
SMALL
USER_CHARGES
@<TRIPOS>ATOM
1      F1      0.0021   -0.0041    0.0020 F        1 ZINC000008214650   -0.1400
2      C2     -0.0169    1.3948    0.0097 C.3      1 ZINC000008214650    0.4400
3      F3      1.2956    1.8790   -0.0002 F        1 ZINC000008214650   -0.1400
4      F4     -0.6935    1.8582   -1.1237 F        1 ZINC000008214650   -0.1400
5      C5     -0.7330    1.8882    1.2685 C.3      1 ZINC000008214650    0.2300
6      F6     -0.0564    1.4248    2.4019 F        1 ZINC000008214650   -0.1200
7      F7     -0.7520    3.2871    1.2762 F        1 ZINC000008214650   -0.1200
8      C8     -2.1684    1.3586    1.2794 C.3      1 ZINC000008214650    0.2300
9      F9     -2.8451    1.8221    0.1460 F        1 ZINC000008214650   -0.1200
10     F10    -2.1494   -0.0402    1.2717 F        1 ZINC000008214650   -0.1200
11     C11    -2.8846    1.8520    2.5382 C.3      1 ZINC000008214650    0.2300
12     F12    -2.2079    1.3886    3.6716 F        1 ZINC000008214650   -0.1200
13     F13    -2.9035    3.2509    2.5459 F        1 ZINC000008214650   -0.1200
14     C14    -4.3199    1.3225    2.5490 C.3      1 ZINC000008214650    0.2300
15     F15    -4.9966    1.7859    1.4156 F        1 ZINC000008214650   -0.1200
16     F16    -4.3010   -0.0764    2.5413 F        1 ZINC000008214650   -0.1200
17     C17    -5.0361    1.8159    3.8078 C.3      1 ZINC000008214650    0.2300
18     F18    -4.3594    1.3524    4.9412 F        1 ZINC000008214650   -0.1200
19     F19    -5.0550    3.2147    3.8155 F        1 ZINC000008214650   -0.1200
20     C20    -6.4715    1.2863    3.8187 C.3      1 ZINC000008214650    0.2400
21     F21    -7.1481    1.7497    2.6853 F        1 ZINC000008214650   -0.1200
22     F22    -6.4525   -0.1126    3.8110 F        1 ZINC000008214650   -0.1200
23     C23    -7.1876    1.7797    5.0775 C.3      1 ZINC000008214650    0.2700
24     F24    -6.5110    1.3163    6.2109 F        1 ZINC000008214650   -0.1300
25     F25    -7.2066    3.1786    5.0852 F        1 ZINC000008214650   -0.1300
26     Br26   -9.0320    1.0992    5.0915 Br       1 ZINC000008214650    0.0000
@<TRIPOS>BOND
1     1     2     1
2     2     3     1
3     2     4     1
4     2     5     1
5     5     6     1
6     5     7     1
7     5     8     1
8     8     9     1
9     8     10    1
10    8     11    1
11    11    12    1
12    11    13    1
13    11    14    1
14    14    15    1
15    14    16    1
16    14    17    1
17    17    18    1
18    17    19    1
19    17    20    1
20    20    21    1
21    20    22    1
22    20    23    1
23    23    24    1
24    23    25    1
25    23    26    1
@<TRIPOS>SUBSTRUCTURE
1   ZINC000008214650 1     RESIDUE    1   A     ZIN   1
