@<TRIPOS>MOLECULE
ZINC000100285161
87    91    1     0     0
SMALL
USER_CHARGES
@<TRIPOS>ATOM
1      C1      1.3054    0.8893   -0.6123 C.3      1 ZINC000100285161   -0.1600
2      C2      0.8659   -0.5049   -0.1608 C.3      1 ZINC000100285161    0.0600
3      N3     -0.5875   -0.6381   -0.3276 N.3      1 ZINC000100285161   -0.4900
4      C4     -0.9874   -1.9698   -0.1895 C.ar     1 ZINC000100285161    0.0900
5      C5     -0.6504   -2.6792    0.9546 C.ar     1 ZINC000100285161   -0.1000
6      C6     -1.0471   -4.0074    1.0955 C.ar     1 ZINC000100285161   -0.0800
7      C7     -0.6856   -4.7642    2.3199 C.ar     1 ZINC000100285161    0.0100
8      C8      0.0455   -4.1472    3.3328 C.ar     1 ZINC000100285161   -0.1100
9      C9      0.3786   -4.8555    4.4696 C.ar     1 ZINC000100285161   -0.0800
10     C10    -0.0117   -6.1756    4.6042 C.ar     1 ZINC000100285161   -0.1700
11     C11     0.3553   -6.9441    5.8475 C.3      1 ZINC000100285161    0.0500
12     N12    -0.7039   -6.7841    6.8526 N.4      1 ZINC000100285161   -0.3800
13     H13    -0.8640   -5.8019    7.0193 H        1 ZINC000100285161    0.4200
14     C14    -0.2929   -7.4330    8.1052 C.3      1 ZINC000100285161   -0.0400
15     C15    -1.3981   -7.2648    9.1508 C.3      1 ZINC000100285161    0.0400
16     O16    -2.6145   -7.8219    8.6451 O.3      1 ZINC000100285161   -0.3600
17     C17    -3.0440   -7.2380    7.4120 C.3      1 ZINC000100285161    0.0400
18     C18    -1.9419   -7.4061    6.3630 C.3      1 ZINC000100285161   -0.0500
19     C19    -0.7381   -6.7930    3.6019 C.ar     1 ZINC000100285161   -0.0900
20     C20    -1.0811   -6.0924    2.4632 C.ar     1 ZINC000100285161   -0.1100
21     C21    -1.7824   -4.6237    0.0884 C.ar     1 ZINC000100285161   -0.0700
22     C22    -2.1209   -3.9102   -1.0605 C.ar     1 ZINC000100285161   -0.1300
23     C23    -2.9030   -4.5616   -2.1333 C.2      1 ZINC000100285161    0.5600
24     O24    -3.2989   -3.9087   -3.0790 O.2      1 ZINC000100285161   -0.5200
25     N25    -3.1767   -5.8794   -2.0625 N.am     1 ZINC000100285161   -0.7200
26     C26    -3.9514   -6.5248   -3.1252 C.3      1 ZINC000100285161    0.1900
27     C27    -4.1164   -7.9888   -2.8083 C.2      1 ZINC000100285161   -0.2600
28     C28    -5.2398   -8.4347   -2.1760 C.2      1 ZINC000100285161    0.0500
29     C29    -6.3291   -7.4689   -1.7868 C.3      1 ZINC000100285161   -0.1300
30     C30    -5.3699   -9.8015   -1.8927 C.2      1 ZINC000100285161   -0.2400
31     C31    -4.3865  -10.6616   -2.2464 C.2      1 ZINC000100285161    0.1800
32     C32    -4.5336  -12.1295   -1.9390 C.3      1 ZINC000100285161   -0.1300
33     N33    -3.2691  -10.2159   -2.8757 N.am     1 ZINC000100285161   -0.6100
34     C34    -3.1172   -8.9098   -3.1664 C.2      1 ZINC000100285161    0.5300
35     O35    -2.1070   -8.5244   -3.7328 O.2      1 ZINC000100285161   -0.5400
36     C36    -1.7256   -2.5789   -1.1942 C.ar     1 ZINC000100285161    0.0200
37     C37    -2.0909   -1.8056   -2.4350 C.3      1 ZINC000100285161   -0.1200
38     C38    -1.3072    0.2281    0.6156 C.3      1 ZINC000100285161    0.0900
39     C39    -1.4095    1.6425    0.0365 C.3      1 ZINC000100285161   -0.1600
40     C40    -2.2284    2.5176    0.9892 C.3      1 ZINC000100285161    0.0600
41     O41    -3.5182    1.9330    1.1808 O.3      1 ZINC000100285161   -0.3800
42     C42    -3.4869    0.6287    1.7637 C.3      1 ZINC000100285161    0.0700
43     C43    -2.7186   -0.3223    0.8422 C.3      1 ZINC000100285161   -0.1600
44     H44     2.3744    0.8821   -0.8250 H        1 ZINC000100285161    0.0600
45     H45     0.7578    1.1692   -1.5123 H        1 ZINC000100285161    0.0700
46     H46     1.0971    1.6098    0.1786 H        1 ZINC000100285161    0.0600
47     H47     1.3715   -1.2586   -0.7646 H        1 ZINC000100285161    0.0800
48     H48     1.1256   -0.6458    0.8884 H        1 ZINC000100285161    0.0400
49     H49    -0.0795   -2.2011    1.7368 H        1 ZINC000100285161    0.1300
50     H50     0.3514   -3.1166    3.2285 H        1 ZINC000100285161    0.1400
51     H51     0.9453   -4.3782    5.2554 H        1 ZINC000100285161    0.1300
52     H52     0.4669   -8.0002    5.6022 H        1 ZINC000100285161    0.1400
53     H53     1.2952   -6.5624    6.2463 H        1 ZINC000100285161    0.1400
54     H54    -0.1209   -8.4943    7.9255 H        1 ZINC000100285161    0.1400
55     H55     0.6253   -6.9721    8.4692 H        1 ZINC000100285161    0.1400
56     H56    -1.1141   -7.7822   10.0672 H        1 ZINC000100285161    0.1400
57     H57    -1.5426   -6.2049    9.3603 H        1 ZINC000100285161    0.0800
58     H58    -3.9512   -7.7361    7.0699 H        1 ZINC000100285161    0.1400
59     H59    -3.2448   -6.1772    7.5620 H        1 ZINC000100285161    0.0800
60     H60    -2.2479   -6.9252    5.4339 H        1 ZINC000100285161    0.1400
61     H61    -1.7692   -8.4673    6.1839 H        1 ZINC000100285161    0.1400
62     H62    -1.0403   -7.8239    3.7120 H        1 ZINC000100285161    0.1300
63     H63    -1.6482   -6.5753    1.6812 H        1 ZINC000100285161    0.1400
64     H64    -2.0902   -5.6533    0.1961 H        1 ZINC000100285161    0.1300
65     H65    -2.8607   -6.4005   -1.3078 H        1 ZINC000100285161    0.3900
66     H66    -4.9327   -6.0555   -3.1958 H        1 ZINC000100285161    0.0800
67     H67    -3.4273   -6.4154   -4.0746 H        1 ZINC000100285161    0.0800
68     H68    -7.0462   -7.3818   -2.6031 H        1 ZINC000100285161    0.0900
69     H69    -6.8371   -7.8345   -0.8944 H        1 ZINC000100285161    0.0800
70     H70    -5.8920   -6.4917   -1.5814 H        1 ZINC000100285161    0.0800
71     H71    -6.2540  -10.1679   -1.3921 H        1 ZINC000100285161    0.1500
72     H72    -5.0234  -12.6285   -2.7751 H        1 ZINC000100285161    0.1000
73     H73    -3.5484  -12.5681   -1.7807 H        1 ZINC000100285161    0.0800
74     H74    -5.1354  -12.2536   -1.0387 H        1 ZINC000100285161    0.1000
75     H75    -2.5740  -10.8460   -3.1222 H        1 ZINC000100285161    0.4200
76     H76    -3.0942   -1.3943   -2.3246 H        1 ZINC000100285161    0.0800
77     H77    -1.3789   -0.9929   -2.5793 H        1 ZINC000100285161    0.0800
78     H78    -2.0636   -2.4702   -3.2985 H        1 ZINC000100285161    0.1000
79     H79    -0.7712    0.2590    1.5642 H        1 ZINC000100285161    0.0500
80     H80    -0.4103    2.0631   -0.0763 H        1 ZINC000100285161    0.0900
81     H81    -1.9012    1.6035   -0.9355 H        1 ZINC000100285161    0.0800
82     H82    -1.7155    2.5891    1.9483 H        1 ZINC000100285161    0.0500
83     H83    -2.3407    3.5139    0.5616 H        1 ZINC000100285161    0.1000
84     H84    -2.9905    0.6755    2.7330 H        1 ZINC000100285161    0.0500
85     H85    -4.5058    0.2642    1.8942 H        1 ZINC000100285161    0.1000
86     H86    -3.2367   -0.4010   -0.1136 H        1 ZINC000100285161    0.0800
87     H87    -2.6556   -1.3068    1.3056 H        1 ZINC000100285161    0.0700
@<TRIPOS>BOND
1     1     2     1
2     1     44    1
3     1     45    1
4     1     46    1
5     2     3     1
6     2     47    1
7     2     48    1
8     3     4     1
9     3     38    1
10    4     36    ar
11    4     5     ar
12    5     6     ar
13    5     49    1
14    6     7     1
15    6     21    ar
16    7     20    ar
17    7     8     ar
18    8     9     ar
19    8     50    1
20    9     10    ar
21    9     51    1
22    10    11    1
23    10    19    ar
24    11    12    1
25    11    52    1
26    11    53    1
27    12    13    1
28    12    18    1
29    12    14    1
30    14    15    1
31    14    54    1
32    14    55    1
33    15    16    1
34    15    56    1
35    15    57    1
36    16    17    1
37    17    18    1
38    17    58    1
39    17    59    1
40    18    60    1
41    18    61    1
42    19    20    ar
43    19    62    1
44    20    63    1
45    21    22    ar
46    21    64    1
47    22    23    1
48    22    36    ar
49    23    24    2
50    23    25    am
51    25    26    1
52    25    65    1
53    26    27    1
54    26    66    1
55    26    67    1
56    27    34    1
57    27    28    2
58    28    29    1
59    28    30    1
60    29    68    1
61    29    69    1
62    29    70    1
63    30    31    2
64    30    71    1
65    31    32    1
66    31    33    1
67    32    72    1
68    32    73    1
69    32    74    1
70    33    34    am
71    33    75    1
72    34    35    2
73    36    37    1
74    37    76    1
75    37    77    1
76    37    78    1
77    38    43    1
78    38    39    1
79    38    79    1
80    39    40    1
81    39    80    1
82    39    81    1
83    40    41    1
84    40    82    1
85    40    83    1
86    41    42    1
87    42    43    1
88    42    84    1
89    42    85    1
90    43    86    1
91    43    87    1
@<TRIPOS>SUBSTRUCTURE
1   ZINC000100285161 1     RESIDUE    1   A     ZIN   1
