@<TRIPOS>MOLECULE
ZINC000001914117
59    62    1     0     0
SMALL
USER_CHARGES
@<TRIPOS>ATOM
1      O1      0.0021   -0.0041    0.0020 O.co2    1 ZINC000001914117   -0.6700
2      C2     -0.0145    1.2150    0.0087 C.2      1 ZINC000001914117    0.5100
3      O3      1.0330    1.8389    0.0021 O.co2    1 ZINC000001914117   -0.6900
4      C4     -1.3296    1.9507    0.0190 C.3      1 ZINC000001914117   -0.1500
5      S5     -2.6923    0.7533    0.0189 S.3      1 ZINC000001914117   -0.1800
6      C6     -4.1655    1.8116    0.0317 C.3      1 ZINC000001914117   -0.0500
7      H7     -4.1127    2.4978    0.8770 H        1 ZINC000001914117    0.0800
8      C8     -5.4175    0.9414    0.1586 C.3      1 ZINC000001914117   -0.0900
9      C9     -5.4134    0.2370    1.5168 C.3      1 ZINC000001914117   -0.1200
10     C10    -6.6655   -0.6332    1.6437 C.3      1 ZINC000001914117   -0.0800
11     C11    -6.6614   -1.3271    2.9815 C.ar     1 ZINC000001914117   -0.0800
12     C12    -6.0621   -2.5654    3.1160 C.ar     1 ZINC000001914117   -0.1100
13     C13    -6.0584   -3.2019    4.3431 C.ar     1 ZINC000001914117   -0.1200
14     C14    -6.6537   -2.5998    5.4358 C.ar     1 ZINC000001914117   -0.1300
15     C15    -7.2523   -1.3610    5.3015 C.ar     1 ZINC000001914117   -0.1200
16     C16    -7.2522   -0.7226    4.0753 C.ar     1 ZINC000001914117   -0.1200
17     C17    -4.2292    2.5994   -1.2515 C.ar     1 ZINC000001914117   -0.1000
18     C18    -4.3079    1.9389   -2.4636 C.ar     1 ZINC000001914117   -0.0600
19     C19    -4.3664    2.6587   -3.6413 C.ar     1 ZINC000001914117   -0.1500
20     C20    -4.3467    4.0454   -3.6070 C.ar     1 ZINC000001914117    0.1200
21     O21    -4.4046    4.7558   -4.7641 O.3      1 ZINC000001914117   -0.3100
22     C22    -4.3800    6.1802   -4.6527 C.3      1 ZINC000001914117    0.1100
23     C23    -4.4518    6.7929   -6.0277 C.ar     1 ZINC000001914117    0.1600
24     C24    -4.5326    5.9570   -7.1390 C.ar     1 ZINC000001914117   -0.1500
25     C25    -4.5989    6.4946   -8.3931 C.ar     1 ZINC000001914117   -0.0600
26     C26    -4.5827    7.8964   -8.5162 C.ar     1 ZINC000001914117   -0.1000
27     C27    -4.6482    8.5210   -9.7723 C.ar     1 ZINC000001914117   -0.1000
28     C28    -4.6304    9.8800   -9.8496 C.ar     1 ZINC000001914117   -0.1200
29     C29    -4.5481   10.6608   -8.6981 C.ar     1 ZINC000001914117   -0.1000
30     C30    -4.4831   10.0890   -7.4651 C.ar     1 ZINC000001914117   -0.0900
31     C31    -4.4990    8.6883   -7.3439 C.ar     1 ZINC000001914117    0.1300
32     N32    -4.4419    8.0986   -6.1459 N.ar     1 ZINC000001914117   -0.4700
33     C33    -4.2682    4.7058   -2.3894 C.ar     1 ZINC000001914117   -0.2100
34     C34    -4.2148    3.9815   -1.2143 C.ar     1 ZINC000001914117   -0.0800
35     H35    -1.3917    2.5717    0.9126 H        1 ZINC000001914117    0.0700
36     H36    -1.4001    2.5813   -0.8673 H        1 ZINC000001914117    0.0700
37     H37    -6.3055    1.5683    0.0771 H        1 ZINC000001914117    0.0700
38     H38    -5.4244    0.1965   -0.6371 H        1 ZINC000001914117    0.0700
39     H39    -4.5255   -0.3899    1.5983 H        1 ZINC000001914117    0.0800
40     H40    -5.4066    0.9820    2.3124 H        1 ZINC000001914117    0.0600
41     H41    -7.5534   -0.0063    1.5622 H        1 ZINC000001914117    0.0700
42     H42    -6.6724   -1.3782    0.8480 H        1 ZINC000001914117    0.0700
43     H43    -5.5970   -3.0358    2.2623 H        1 ZINC000001914117    0.1200
44     H44    -5.5907   -4.1697    4.4480 H        1 ZINC000001914117    0.1200
45     H45    -6.6514   -3.0974    6.3943 H        1 ZINC000001914117    0.1200
46     H46    -7.7177   -0.8908    6.1551 H        1 ZINC000001914117    0.1200
47     H47    -7.7198    0.2452    3.9704 H        1 ZINC000001914117    0.1200
48     H48    -4.3232    0.8593   -2.4898 H        1 ZINC000001914117    0.1400
49     H49    -4.4271    2.1423   -4.5879 H        1 ZINC000001914117    0.1300
50     H50    -5.2330    6.5133   -4.0616 H        1 ZINC000001914117    0.0900
51     H51    -3.4562    6.4906   -4.1645 H        1 ZINC000001914117    0.0900
52     H52    -4.5424    4.8848   -7.0093 H        1 ZINC000001914117    0.1500
53     H53    -4.6616    5.8615   -9.2658 H        1 ZINC000001914117    0.1400
54     H54    -4.7120    7.9266  -10.6718 H        1 ZINC000001914117    0.1300
55     H55    -4.6805   10.3595  -10.8160 H        1 ZINC000001914117    0.1300
56     H56    -4.5352   11.7371   -8.7859 H        1 ZINC000001914117    0.1300
57     H57    -4.4193   10.7087   -6.5829 H        1 ZINC000001914117    0.1400
58     H58    -4.2524    5.7853   -2.3601 H        1 ZINC000001914117    0.1300
59     H59    -4.1540    4.4951   -0.2662 H        1 ZINC000001914117    0.1200
@<TRIPOS>BOND
1     1     2     ar
2     2     3     ar
3     2     4     1
4     4     5     1
5     4     35    1
6     4     36    1
7     5     6     1
8     6     7     1
9     6     8     1
10    6     17    1
11    8     9     1
12    8     37    1
13    8     38    1
14    9     10    1
15    9     39    1
16    9     40    1
17    10    11    1
18    10    41    1
19    10    42    1
20    11    16    ar
21    11    12    ar
22    12    13    ar
23    12    43    1
24    13    14    ar
25    13    44    1
26    14    15    ar
27    14    45    1
28    15    16    ar
29    15    46    1
30    16    47    1
31    17    34    ar
32    17    18    ar
33    18    19    ar
34    18    48    1
35    19    20    ar
36    19    49    1
37    20    21    1
38    20    33    ar
39    21    22    1
40    22    23    1
41    22    50    1
42    22    51    1
43    23    32    ar
44    23    24    ar
45    24    25    ar
46    24    52    1
47    25    26    ar
48    25    53    1
49    26    31    ar
50    26    27    ar
51    27    28    ar
52    27    54    1
53    28    29    ar
54    28    55    1
55    29    30    ar
56    29    56    1
57    30    31    ar
58    30    57    1
59    31    32    ar
60    33    34    ar
61    33    58    1
62    34    59    1
@<TRIPOS>SUBSTRUCTURE
1   ZINC000001914117 1     RESIDUE    1   A     ZIN   1
