@<TRIPOS>MOLECULE
ZINC000002516866
  24   23    0    0    0
SMALL
USER_CHARGES
NO_NAME
@<TRIPOS>ATOM
    1 O1        0.0021    -0.0041     0.0020 O.2    1 <0>      -0.4200
    2 C2       -0.0143     1.2034     0.0087 C.2    1 <0>       0.3300
    3 C3        1.2804     1.9746     0.0004 C.3    1 <0>       0.0200
    4 O4        2.3790     1.0609    -0.0150 O.3    1 <0>      -0.5600
    5 C5       -1.3295     1.9391     0.0189 C.3    1 <0>       0.0400
    6 H6       -1.2953     2.7546    -0.7035 H      1 <0>       0.1400
    7 O7       -2.3822     1.0378    -0.3297 O.3    1 <0>      -0.5300
    8 C8       -1.5857     2.5063     1.4166 C.3    1 <0>       0.0500
    9 H9       -1.6199     1.6908     2.1390 H      1 <0>       0.1200
   10 O10      -0.5330     3.4076     1.7652 O.3    1 <0>      -0.5500
   11 C11      -2.9210     3.2532     1.4270 C.3    1 <0>       0.0800
   12 H12      -3.7330     2.5483     1.2485 H      1 <0>       0.1200
   13 O13      -2.9188     4.2472     0.4003 O.3    1 <0>      -0.5400
   14 C14      -3.1188     3.9254     2.7871 C.3    1 <0>       0.0500
   15 O15      -4.4150     4.5246     2.8383 O.3    1 <0>      -0.5600
   16 H16       1.3211     2.6067    -0.8866 H      1 <0>       0.0800
   17 H17       1.3381     2.5972     0.8933 H      1 <0>       0.1000
   18 H18       3.2462     1.4886    -0.0209 H      1 <0>       0.3900
   19 H19      -2.4713     0.2857     0.2715 H      1 <0>       0.3900
   20 H20      -0.4439     4.1597     1.1639 H      1 <0>       0.3800
   21 H21      -2.2206     4.9094     0.4955 H      1 <0>       0.3700
   22 H22      -3.0319     3.1794     3.5771 H      1 <0>       0.0600
   23 H23      -2.3578     4.6931     2.9271 H      1 <0>       0.0600
   24 H24      -4.6096     4.9702     3.6741 H      1 <0>       0.3800
@<TRIPOS>BOND
   1    1    2 2
   2    2    3 1
   3    2    5 1
   4    3    4 1
   5    3   16 1
   6    3   17 1
   7    4   18 1
   8    5    6 1
   9    5    7 1
  10    5    8 1
  11    7   19 1
  12    8    9 1
  13    8   10 1
  14    8   11 1
  15   10   20 1
  16   11   12 1
  17   11   13 1
  18   11   14 1
  19   13   21 1
  20   14   15 1
  21   14   22 1
  22   14   23 1
  23   15   24 1
