@<TRIPOS>MOLECULE
ZINC000006119198
28    31    1     0     0
SMALL
USER_CHARGES
@<TRIPOS>ATOM
1      C1     -0.0161    1.3364    0.0094 C.2      1 ZINC000006119198   -0.0600
2      C2      1.2740    1.7421   -0.0007 C.2      1 ZINC000006119198   -0.2000
3      C3      2.0151    0.5276   -0.0143 C.2      1 ZINC000006119198    0.0900
4      C4      3.4922    0.3842   -0.0292 C.2      1 ZINC000006119198    0.3200
5      N5      4.3405    1.3992   -0.0261 N.2      1 ZINC000006119198   -0.4900
6      C6      5.5896    0.9094   -0.0420 C.2      1 ZINC000006119198   -0.0400
7      C7      6.8681    1.4349   -0.0482 C.2      1 ZINC000006119198    0.2100
8      N8      7.9229    0.6131   -0.0689 N.pl3    1 ZINC000006119198   -0.5000
9      C9      7.8138   -0.7460   -0.0836 C.2      1 ZINC000006119198    0.0800
10     C10     6.6087   -1.3503   -0.0727 C.2      1 ZINC000006119198   -0.0700
11     C11     6.4625   -2.8485   -0.0755 C.3      1 ZINC000006119198    0.1100
12     O12     7.6885   -3.4711   -0.4559 O.3      1 ZINC000006119198   -0.3700
13     C13     8.8103   -2.9953    0.2977 C.3      1 ZINC000006119198    0.0600
14     C14     9.0907   -1.5516   -0.1191 C.3      1 ZINC000006119198   -0.1100
15     C15     5.4410   -0.5534   -0.0551 C.2      1 ZINC000006119198    0.1000
16     N16     4.1342   -0.7839   -0.0416 N.2      1 ZINC000006119198   -0.5000
17     N17     1.1303   -0.4385   -0.0111 N.2      1 ZINC000006119198   -0.3300
18     O18     0.0021   -0.0041    0.0020 O.3      1 ZINC000006119198    0.1100
19     H19    -0.8911    1.9693    0.0251 H        1 ZINC000006119198    0.2200
20     H20     1.6535    2.7533    0.0005 H        1 ZINC000006119198    0.1800
21     H21     7.0146    2.5048   -0.0367 H        1 ZINC000006119198    0.1900
22     H22     8.8107    1.0037   -0.0740 H        1 ZINC000006119198    0.4300
23     H23     6.1835   -3.1844    0.9233 H        1 ZINC000006119198    0.0800
24     H24     5.6813   -3.1322   -0.7807 H        1 ZINC000006119198    0.1200
25     H25     8.5799   -3.0321    1.3624 H        1 ZINC000006119198    0.0600
26     H26     9.6827   -3.6142    0.0884 H        1 ZINC000006119198    0.1100
27     H27     9.4979   -1.5396   -1.1301 H        1 ZINC000006119198    0.1000
28     H28     9.8152   -1.1116    0.5661 H        1 ZINC000006119198    0.1000
@<TRIPOS>BOND
1     1     18    1
2     1     2     2
3     1     19    1
4     2     3     1
5     2     20    1
6     3     4     1
7     3     17    2
8     4     16    1
9     4     5     2
10    5     6     1
11    6     15    1
12    6     7     2
13    7     8     1
14    7     21    1
15    8     9     1
16    8     22    1
17    9     14    1
18    9     10    2
19    10    11    1
20    10    15    1
21    11    12    1
22    11    23    1
23    11    24    1
24    12    13    1
25    13    14    1
26    13    25    1
27    13    26    1
28    14    27    1
29    14    28    1
30    15    16    2
31    17    18    1
@<TRIPOS>SUBSTRUCTURE
1   ZINC000006119198 1     RESIDUE    1   A     ZIN   1
