@<TRIPOS>MOLECULE
ZINC000003873163
44    45    1     0     0
SMALL
USER_CHARGES
@<TRIPOS>ATOM
1      C1      2.5095    7.9372   -1.0549 C.3      1 ZINC000003873163   -0.1500
2      C2      2.4715    6.4123   -1.1748 C.3      1 ZINC000003873163   -0.1200
3      C3      2.5344    5.7893    0.2212 C.3      1 ZINC000003873163   -0.0600
4      C4      2.4970    4.2874    0.1031 C.ar     1 ZINC000003873163   -0.1600
5      C5      3.6788    3.5706   -0.0165 C.ar     1 ZINC000003873163    0.1900
6      O6      4.8671    4.2251   -0.0266 O.3      1 ZINC000003873163   -0.3000
7      C7      6.0460    3.4275   -0.1530 C.3      1 ZINC000003873163    0.0600
8      C8      7.2784    4.3342   -0.1452 C.3      1 ZINC000003873163   -0.1200
9      C9      8.5407    3.4803   -0.2805 C.3      1 ZINC000003873163   -0.1000
10     C10     9.7731    4.3870   -0.2727 C.3      1 ZINC000003873163    0.0000
11     C11    11.0164    3.5459   -0.4059 C.2      1 ZINC000003873163    0.0500
12     N12    11.7274    3.0246    0.5833 N.2      1 ZINC000003873163   -0.3900
13     N13    12.7082    2.3736    0.0573 N.2      1 ZINC000003873163   -0.2000
14     N14    12.6404    2.4763   -1.2244 N.2      1 ZINC000003873163   -0.2000
15     N15    11.6123    3.1899   -1.5347 N.pl3    1 ZINC000003873163   -0.3900
16     C16     3.6515    2.1824   -0.1265 C.ar     1 ZINC000003873163   -0.2300
17     C17     2.4632    1.5123   -0.1180 C.ar     1 ZINC000003873163   -0.0200
18     C18     1.2590    2.2198    0.0019 C.ar     1 ZINC000003873163   -0.2500
19     C19    -0.0184    1.5028    0.0103 C.2      1 ZINC000003873163    0.4000
20     C20    -0.0366   -0.0041    0.0064 C.3      1 ZINC000003873163   -0.2000
21     O21    -1.0617    2.1221    0.0154 O.2      1 ZINC000003873163   -0.4500
22     C22     1.2831    3.6220    0.1083 C.ar     1 ZINC000003873163    0.2100
23     O23     0.1244    4.3177    0.2192 O.3      1 ZINC000003873163   -0.4700
24     H24     2.4647    8.3811   -2.0494 H        1 ZINC000003873163    0.0500
25     H25     1.6569    8.2767   -0.4667 H        1 ZINC000003873163    0.0500
26     H26     3.4339    8.2400   -0.5632 H        1 ZINC000003873163    0.0600
27     H27     3.3240    6.0728   -1.7630 H        1 ZINC000003873163    0.0600
28     H28     1.5470    6.1095   -1.6665 H        1 ZINC000003873163    0.0600
29     H29     1.6819    6.1288    0.8094 H        1 ZINC000003873163    0.0700
30     H30     3.4588    6.0921    0.7129 H        1 ZINC000003873163    0.0800
31     H31     6.1035    2.7292    0.6820 H        1 ZINC000003873163    0.0700
32     H32     6.0099    2.8715   -1.0898 H        1 ZINC000003873163    0.0700
33     H33     7.2210    5.0325   -0.9802 H        1 ZINC000003873163    0.0700
34     H34     7.3145    4.8902    0.7916 H        1 ZINC000003873163    0.0700
35     H35     8.5981    2.7820    0.5545 H        1 ZINC000003873163    0.0600
36     H36     8.5046    2.9243   -1.2173 H        1 ZINC000003873163    0.0600
37     H37     9.7156    5.0853   -1.1077 H        1 ZINC000003873163    0.0700
38     H38     9.8092    4.9430    0.6641 H        1 ZINC000003873163    0.0700
39     H39     4.5767    1.6331   -0.2195 H        1 ZINC000003873163    0.1400
40     H40     2.4502    0.4358   -0.2042 H        1 ZINC000003873163    0.1400
41     H41     0.9818   -0.3796   -0.0936 H        1 ZINC000003873163    0.0800
42     H42    -0.4668   -0.3647    0.9408 H        1 ZINC000003873163    0.0900
43     H43    -0.6381   -0.3580   -0.8309 H        1 ZINC000003873163    0.0900
44     H44    -0.1680    4.4520    1.1311 H        1 ZINC000003873163    0.3900
@<TRIPOS>BOND
1     1     2     1
2     1     24    1
3     1     25    1
4     1     26    1
5     2     3     1
6     2     27    1
7     2     28    1
8     3     4     1
9     3     29    1
10    3     30    1
11    4     22    ar
12    4     5     ar
13    5     6     1
14    5     16    ar
15    6     7     1
16    7     8     1
17    7     31    1
18    7     32    1
19    8     9     1
20    8     33    1
21    8     34    1
22    9     10    1
23    9     35    1
24    9     36    1
25    10    11    1
26    10    37    1
27    10    38    1
28    11    15    1
29    11    12    2
30    12    13    1
31    13    14    2
32    14    15    1
33    16    17    ar
34    16    39    1
35    17    18    ar
36    17    40    1
37    18    19    1
38    18    22    ar
39    19    20    1
40    19    21    2
41    20    41    1
42    20    42    1
43    20    43    1
44    22    23    1
45    23    44    1
@<TRIPOS>SUBSTRUCTURE
1   ZINC000003873163 1     RESIDUE    1   A     ZIN   1
