@<TRIPOS>MOLECULE
ZINC000013916716
39    41    1     0     0
SMALL
USER_CHARGES
@<TRIPOS>ATOM
1      C1     -0.2831    1.2517   -0.3870 C.ar     1 ZINC000013916716   -0.1700
2      C2      0.8792    1.9970   -0.4650 C.ar     1 ZINC000013916716    0.1100
3      N3      2.0632    1.4152   -0.4480 N.ar     1 ZINC000013916716   -0.4800
4      C4      2.1944    0.1081   -0.3567 C.ar     1 ZINC000013916716    0.1600
5      C5      1.0707   -0.7137   -0.2746 C.ar     1 ZINC000013916716   -0.1000
6      C6      1.2190   -2.1835   -0.1725 C.2      1 ZINC000013916716    0.4300
7      N7      2.4052   -2.7032   -0.1547 N.2      1 ZINC000013916716   -0.5400
8      C8      2.6382   -4.1395   -0.0355 C.3      1 ZINC000013916716    0.0700
9      H9      2.8902   -4.3792    0.9975 H        1 ZINC000013916716    0.0900
10     C10     3.8005   -4.5408   -0.9459 C.3      1 ZINC000013916716    0.0800
11     N11     4.9779   -3.7225   -0.6262 N.3      1 ZINC000013916716   -0.5100
12     C12     6.0347   -3.9066   -1.6290 C.3      1 ZINC000013916716    0.0600
13     C13     7.1827   -2.9349   -1.3464 C.3      1 ZINC000013916716   -0.1200
14     C14     7.7340   -3.1982    0.0576 C.3      1 ZINC000013916716   -0.1200
15     C15     6.6026   -3.0474    1.0782 C.3      1 ZINC000013916716   -0.1200
16     C16     5.4714   -4.0159    0.7254 C.3      1 ZINC000013916716    0.0600
17     C17     1.3873   -4.9200   -0.4452 C.3      1 ZINC000013916716    0.0000
18     O18     0.2541   -4.3505    0.2278 O.3      1 ZINC000013916716   -0.1300
19     N19     0.0911   -2.9742   -0.0925 N.pl3    1 ZINC000013916716   -0.6200
20     C20    -0.1986   -0.1266   -0.2897 C.ar     1 ZINC000013916716   -0.0600
21     H21    -1.2463    1.7400   -0.3975 H        1 ZINC000013916716    0.1400
22     H22     0.8166    3.0725   -0.5413 H        1 ZINC000013916716    0.1600
23     H23     3.1809   -0.3314   -0.3458 H        1 ZINC000013916716    0.1800
24     H24     4.0368   -5.5935   -0.7909 H        1 ZINC000013916716    0.0400
25     H25     3.5188   -4.3810   -1.9866 H        1 ZINC000013916716    0.0700
26     H26     6.4057   -4.9304   -1.5819 H        1 ZINC000013916716    0.0300
27     H27     5.6306   -3.7122   -2.6224 H        1 ZINC000013916716    0.0700
28     H28     7.9738   -3.0825   -2.0816 H        1 ZINC000013916716    0.0600
29     H29     6.8156   -1.9103   -1.4069 H        1 ZINC000013916716    0.0700
30     H30     8.1367   -4.2099    0.1070 H        1 ZINC000013916716    0.0600
31     H31     8.5232   -2.4799    0.2798 H        1 ZINC000013916716    0.0600
32     H32     6.9792   -3.2755    2.0754 H        1 ZINC000013916716    0.0600
33     H33     6.2263   -2.0246    1.0559 H        1 ZINC000013916716    0.0700
34     H34     4.6581   -3.9008    1.4419 H        1 ZINC000013916716    0.0700
35     H35     5.8450   -5.0392    0.7614 H        1 ZINC000013916716    0.0300
36     H36     1.2473   -4.8474   -1.5237 H        1 ZINC000013916716    0.0700
37     H37     1.4972   -5.9654   -0.1568 H        1 ZINC000013916716    0.1200
38     H38    -0.7894   -2.6022   -0.2572 H        1 ZINC000013916716    0.4300
39     H39    -1.0900   -0.7331   -0.2274 H        1 ZINC000013916716    0.1300
@<TRIPOS>BOND
1     1     20    ar
2     1     2     ar
3     1     21    1
4     2     3     ar
5     2     22    1
6     3     4     ar
7     4     5     ar
8     4     23    1
9     5     6     1
10    5     20    ar
11    6     19    1
12    6     7     2
13    7     8     1
14    8     9     1
15    8     10    1
16    8     17    1
17    10    11    1
18    10    24    1
19    10    25    1
20    11    16    1
21    11    12    1
22    12    13    1
23    12    26    1
24    12    27    1
25    13    14    1
26    13    28    1
27    13    29    1
28    14    15    1
29    14    30    1
30    14    31    1
31    15    16    1
32    15    32    1
33    15    33    1
34    16    34    1
35    16    35    1
36    17    18    1
37    17    36    1
38    17    37    1
39    18    19    1
40    19    38    1
41    20    39    1
@<TRIPOS>SUBSTRUCTURE
1   ZINC000013916716 1     RESIDUE    1   A     ZIN   1
