@<TRIPOS>MOLECULE
ZINC000038255464
51    54    1     0     0
SMALL
USER_CHARGES
@<TRIPOS>ATOM
1      C1      1.1773    1.0737   -0.4267 C.3      1 ZINC000038255464    0.0300
2      O2      0.6280   -0.2423   -0.3355 O.3      1 ZINC000038255464   -0.3200
3      C3      0.0343   -0.7423   -1.4522 C.ar     1 ZINC000038255464    0.1200
4      C4     -0.0130    0.0146   -2.6111 C.ar     1 ZINC000038255464   -0.1800
5      C5     -0.6164   -0.4950   -3.7462 C.ar     1 ZINC000038255464   -0.0600
6      C6     -1.1741   -1.7606   -3.7284 C.ar     1 ZINC000038255464   -0.1100
7      Br7    -1.9971   -2.4510   -5.2846 Br       1 ZINC000038255464   -0.0400
8      C8     -1.1307   -2.5225   -2.5747 C.ar     1 ZINC000038255464   -0.0700
9      C9     -0.5224   -2.0194   -1.4346 C.ar     1 ZINC000038255464    0.1400
10     N10    -0.4772   -2.7894   -0.2644 N.am     1 ZINC000038255464   -0.6700
11     C11    -0.5462   -4.1333   -0.3390 C.2      1 ZINC000038255464    0.7000
12     O12    -0.5441   -4.6829   -1.4237 O.2      1 ZINC000038255464   -0.5500
13     N13    -0.6174   -4.8680    0.7886 N.am     1 ZINC000038255464   -0.6700
14     C14    -0.5701   -6.2636    0.7179 C.ar     1 ZINC000038255464    0.2200
15     C15    -1.1452   -7.0416    1.7318 C.ar     1 ZINC000038255464   -0.1300
16     C16    -1.8558   -6.7296    2.9738 C.2      1 ZINC000038255464   -0.1800
17     C17    -2.1770   -7.9003    3.5466 C.2      1 ZINC000038255464    0.0400
18     N18    -1.7293   -8.9365    2.7715 N.pl3    1 ZINC000038255464   -0.4900
19     C19    -1.9011  -10.3573    3.0848 C.3      1 ZINC000038255464    0.1400
20     C20    -0.6709  -10.8686    3.7892 C.ar     1 ZINC000038255464    0.0400
21     C21     0.3929  -11.3944    3.0683 C.ar     1 ZINC000038255464   -0.1600
22     C22     1.5059  -11.8542    3.7436 C.ar     1 ZINC000038255464    0.1500
23     N23     1.5688  -11.7998    5.0604 N.ar     1 ZINC000038255464   -0.5000
24     H24     2.3625  -12.1296    5.5101 H        1 ZINC000038255464    0.4400
25     C25     0.5753  -11.3056    5.7832 C.ar     1 ZINC000038255464    0.4500
26     N26     0.6839  -11.2676    7.1685 N.pl3    1 ZINC000038255464   -0.8200
27     C27    -0.5737  -10.8194    5.1683 C.ar     1 ZINC000038255464   -0.1800
28     C28    -1.0936   -8.4439    1.6538 C.ar     1 ZINC000038255464    0.1200
29     C29    -0.4690   -9.0467    0.5658 C.ar     1 ZINC000038255464   -0.1600
30     C30     0.0934   -8.2707   -0.4242 C.ar     1 ZINC000038255464   -0.0600
31     C31     0.0396   -6.8864   -0.3563 C.ar     1 ZINC000038255464   -0.1600
32     H32     1.9447    1.0943   -1.2005 H        1 ZINC000038255464    0.0600
33     H33     0.3871    1.7806   -0.6798 H        1 ZINC000038255464    0.0600
34     H34     1.6191    1.3502    0.5306 H        1 ZINC000038255464    0.1000
35     H35     0.4213    1.0033   -2.6282 H        1 ZINC000038255464    0.1400
36     H36    -0.6527    0.0968   -4.6489 H        1 ZINC000038255464    0.1400
37     H37    -1.5672   -3.5103   -2.5629 H        1 ZINC000038255464    0.1700
38     H38    -0.3963   -2.3550    0.5991 H        1 ZINC000038255464    0.4200
39     H39    -0.7014   -4.4286    1.6493 H        1 ZINC000038255464    0.4100
40     H40    -2.0788   -5.7446    3.3564 H        1 ZINC000038255464    0.1500
41     H41    -2.7089   -8.0087    4.4803 H        1 ZINC000038255464    0.1700
42     H42    -2.7693  -10.4844    3.7314 H        1 ZINC000038255464    0.1200
43     H43    -2.0504  -10.9174    2.1617 H        1 ZINC000038255464    0.1200
44     H44     0.3500  -11.4436    1.9903 H        1 ZINC000038255464    0.1800
45     H45     2.3356  -12.2639    3.1868 H        1 ZINC000038255464    0.2100
46     H46     1.4848  -11.6021    7.6016 H        1 ZINC000038255464    0.4200
47     H47    -0.0412  -10.9065    7.7021 H        1 ZINC000038255464    0.4400
48     H48    -1.3824  -10.4166    5.7599 H        1 ZINC000038255464    0.1800
49     H49    -0.4247  -10.1237    0.4976 H        1 ZINC000038255464    0.1200
50     H50     0.5767   -8.7457   -1.2651 H        1 ZINC000038255464    0.1300
51     H51     0.4849   -6.2920   -1.1404 H        1 ZINC000038255464    0.1500
@<TRIPOS>BOND
1     1     2     1
2     1     32    1
3     1     33    1
4     1     34    1
5     2     3     1
6     3     9     ar
7     3     4     ar
8     4     5     ar
9     4     35    1
10    5     6     ar
11    5     36    1
12    6     7     1
13    6     8     ar
14    8     9     ar
15    8     37    1
16    9     10    1
17    10    11    am
18    10    38    1
19    11    12    2
20    11    13    am
21    13    14    1
22    13    39    1
23    14    31    ar
24    14    15    ar
25    15    28    ar
26    15    16    1
27    16    17    2
28    16    40    1
29    17    18    1
30    17    41    1
31    18    19    1
32    18    28    1
33    19    20    1
34    19    42    1
35    19    43    1
36    20    27    ar
37    20    21    ar
38    21    22    ar
39    21    44    1
40    22    23    ar
41    22    45    1
42    23    24    1
43    23    25    ar
44    25    26    1
45    25    27    ar
46    26    46    1
47    26    47    1
48    27    48    1
49    28    29    ar
50    29    30    ar
51    29    49    1
52    30    31    ar
53    30    50    1
54    31    51    1
@<TRIPOS>SUBSTRUCTURE
1   ZINC000038255464 1     RESIDUE    1   A     ZIN   1
