@<TRIPOS>MOLECULE
ZINC000001533881
  48   49    0    0    0
SMALL
USER_CHARGES
NO_NAME
@<TRIPOS>ATOM
    1 C1       -0.0509     1.3413     0.3087 C.3    1 <0>       0.0200
    2 O2       -0.0743    -0.0822     0.1863 O.3    1 <0>      -0.3000
    3 C3        0.5367    -0.6182    -0.9040 C.ar   1 <0>       0.1200
    4 C4        0.5415    -2.0066    -1.0811 C.ar   1 <0>       0.1000
    5 O5       -0.0650    -2.8045    -0.1618 O.3    1 <0>      -0.3200
    6 C6        0.7362    -3.2618     0.9295 C.3    1 <0>       0.0400
    7 C7        1.1554    -2.5747    -2.1802 C.ar   1 <0>       0.1200
    8 O8        1.1548    -3.9249    -2.3446 O.3    1 <0>      -0.3100
    9 C9        0.0692    -4.4879    -3.0838 C.3    1 <0>       0.0400
   10 C10       1.7796    -1.7465    -3.1266 C.ar   1 <0>       0.1500
   11 N11       2.3899    -2.2465    -4.2124 N.ar   1 <0>      -0.5300
   12 C12       2.9642    -1.4475    -5.0792 C.ar   1 <0>       0.3400
   13 N13       2.9794    -0.1303    -4.9441 N.ar   1 <0>      -0.5900
   14 C14       2.4058     0.4668    -3.9082 C.ar   1 <0>       0.4700
   15 N15       2.4290     1.8406    -3.7804 N.pl3  1 <0>      -0.7000
   16 C16       3.0935     2.6598    -4.7972 C.3    1 <0>       0.1300
   17 C17       2.9750     4.1375    -4.4189 C.3    1 <0>      -0.1300
   18 C18       3.6690     4.9930    -5.4807 C.3    1 <0>      -0.1100
   19 C19       3.5506     6.4707    -5.1025 C.3    1 <0>      -0.1100
   20 C20       4.2445     7.3262    -6.1643 C.3    1 <0>       0.0300
   21 O21       4.1339     8.7064    -5.8110 O.3    1 <0>      -0.2200
   22 N22       4.7471     9.5881    -6.7339 N.pl3  1 <0>       0.1200
   23 O23       5.3035     9.1445    -7.7224 O.2    1 <0>      -0.1300
   24 O24       4.7180    10.7901    -6.5393 O.2    1 <0>      -0.0800
   25 C25       1.7688    -0.3426    -2.9373 C.ar   1 <0>      -0.1500
   26 C26       1.1340     0.2059    -1.8166 C.ar   1 <0>      -0.1700
   27 H27       0.9824     1.6852     0.3534 H      1 <0>       0.0600
   28 H28      -0.5456     1.7883    -0.5536 H      1 <0>       0.0600
   29 H29      -0.5718     1.6362     1.2197 H      1 <0>       0.1100
   30 H30       0.1479    -3.9319     1.5564 H      1 <0>       0.1000
   31 H31       1.6054    -3.7947     0.5438 H      1 <0>       0.0500
   32 H32       1.0666    -2.4077     1.5207 H      1 <0>       0.0500
   33 H33       0.0286    -4.0327    -4.0733 H      1 <0>       0.0500
   34 H34       0.2171    -5.5632    -3.1844 H      1 <0>       0.1000
   35 H35      -0.8662    -4.2975    -2.5576 H      1 <0>       0.0500
   36 H36       3.4466    -1.8832    -5.9416 H      1 <0>       0.2000
   37 H37       2.0053     2.2640    -3.0174 H      1 <0>       0.4100
   38 H38       4.1461     2.3829    -4.8557 H      1 <0>       0.0700
   39 H39       2.6196     2.4932    -5.7645 H      1 <0>       0.0700
   40 H40       1.9224     4.4143    -4.3603 H      1 <0>       0.0700
   41 H41       3.4489     4.3040    -3.4515 H      1 <0>       0.0700
   42 H42       4.7217     4.7162    -5.5393 H      1 <0>       0.0800
   43 H43       3.1952     4.8264    -6.4481 H      1 <0>       0.0800
   44 H44       2.4979     6.7475    -5.0439 H      1 <0>       0.0800
   45 H45       4.0244     6.6373    -4.1351 H      1 <0>       0.0800
   46 H46       5.2972     7.0494    -6.2229 H      1 <0>       0.0900
   47 H47       3.7707     7.1597    -7.1317 H      1 <0>       0.0900
   48 H48       1.1196     1.2760    -1.6716 H      1 <0>       0.1400
@<TRIPOS>BOND
   1    1    2 1
   2    1   27 1
   3    1   28 1
   4    1   29 1
   5    2    3 1
   6    3   26 ar
   7    3    4 ar
   8    4    5 1
   9    4    7 ar
  10    5    6 1
  11    6   30 1
  12    6   31 1
  13    6   32 1
  14    7    8 1
  15    7   10 ar
  16    8    9 1
  17    9   33 1
  18    9   34 1
  19    9   35 1
  20   10   25 ar
  21   10   11 ar
  22   11   12 ar
  23   12   13 ar
  24   12   36 1
  25   13   14 ar
  26   14   15 1
  27   14   25 ar
  28   15   16 1
  29   15   37 1
  30   16   17 1
  31   16   38 1
  32   16   39 1
  33   17   18 1
  34   17   40 1
  35   17   41 1
  36   18   19 1
  37   18   42 1
  38   18   43 1
  39   19   20 1
  40   19   44 1
  41   19   45 1
  42   20   21 1
  43   20   46 1
  44   20   47 1
  45   21   22 1
  46   22   23 2
  47   22   24 2
  48   25   26 ar
  49   26   48 1
