@<TRIPOS>MOLECULE
ZINC000003788782
63    68    1     0     0
SMALL
USER_CHARGES
@<TRIPOS>ATOM
1      C1     -5.5697   -4.5039    2.6007 C.3      1 ZINC000003788782   -0.1300
2      C2     -4.6119   -4.1649    1.4568 C.3      1 ZINC000003788782   -0.4800
3      S3     -2.9325   -4.6893    1.8989 S.o      1 ZINC000003788782    1.3800
4      O4     -2.8243   -6.0992    1.7588 O.2      1 ZINC000003788782   -0.8400
5      C5     -1.9622   -4.0822    0.5593 C.ar     1 ZINC000003788782   -0.2200
6      N6     -1.9816   -4.7137   -0.5981 N.ar     1 ZINC000003788782   -0.4300
7      C7     -1.2722   -4.2956   -1.6282 C.ar     1 ZINC000003788782    0.0800
8      C8     -0.4761   -3.1705   -1.5283 C.ar     1 ZINC000003788782   -0.1400
9      C9     -0.4300   -2.4799   -0.3267 C.ar     1 ZINC000003788782   -0.0800
10     C10    -1.1938   -2.9462    0.7321 C.ar     1 ZINC000003788782   -0.1100
11     C11    -1.1780   -2.2302    2.0580 C.3      1 ZINC000003788782    0.1700
12     O12    -0.9525   -3.1734    3.1075 O.3      1 ZINC000003788782   -0.5500
13     C13    -0.0609   -1.1830    2.0607 C.3      1 ZINC000003788782   -0.1400
14     C14    -0.0888   -0.4179    3.3858 C.3      1 ZINC000003788782    0.0600
15     N15    -1.3948    0.2332    3.5492 N.3      1 ZINC000003788782   -0.5300
16     C16    -1.4106    1.0895    4.7427 C.3      1 ZINC000003788782    0.0800
17     C17    -2.8086    1.6834    4.9259 C.3      1 ZINC000003788782    0.0200
18     C18    -3.4818    2.3308    3.6550 C.3      1 ZINC000003788782   -0.0900
19     C19    -4.7877    2.7046    4.4564 C.3      1 ZINC000003788782   -0.0200
20     C20    -5.1260    1.3335    5.0473 C.ar     1 ZINC000003788782   -0.1000
21     C21    -6.3134    0.6938    5.3084 C.ar     1 ZINC000003788782   -0.1000
22     C22    -6.2999   -0.5770    5.8596 C.ar     1 ZINC000003788782   -0.1200
23     C23    -5.0980   -1.1970    6.1455 C.ar     1 ZINC000003788782   -0.1200
24     C24    -3.9017   -0.5501    5.8814 C.ar     1 ZINC000003788782   -0.1000
25     C25    -3.9172    0.7098    5.3342 C.ar     1 ZINC000003788782   -0.0800
26     C26    -4.1604    3.4702    5.6243 C.ar     1 ZINC000003788782   -0.0900
27     C27    -4.5650    4.5624    6.3527 C.ar     1 ZINC000003788782   -0.1000
28     C28    -3.7619    5.0388    7.3760 C.ar     1 ZINC000003788782   -0.1200
29     C29    -2.5602    4.4183    7.6615 C.ar     1 ZINC000003788782   -0.1200
30     C30    -2.1539    3.3172    6.9255 C.ar     1 ZINC000003788782   -0.1000
31     C31    -2.9368    2.8353    5.9260 C.ar     1 ZINC000003788782   -0.0900
32     C32    -2.4790   -0.7561    3.5970 C.3      1 ZINC000003788782    0.0300
33     C33    -2.5225   -1.5313    2.2782 C.3      1 ZINC000003788782   -0.1100
34     H34    -6.5788   -4.1889    2.3351 H        1 ZINC000003788782    0.0700
35     H35    -5.5594   -5.5796    2.7765 H        1 ZINC000003788782    0.0600
36     H36    -5.2534   -3.9849    3.5055 H        1 ZINC000003788782    0.0700
37     H37    -4.9282   -4.6840    0.5521 H        1 ZINC000003788782    0.0900
38     H38    -4.6222   -3.0892    1.2810 H        1 ZINC000003788782    0.1100
39     H39    -1.3136   -4.8390   -2.5606 H        1 ZINC000003788782    0.1600
40     H40     0.1031   -2.8335   -2.3753 H        1 ZINC000003788782    0.1400
41     H41     0.1832   -1.5974   -0.2194 H        1 ZINC000003788782    0.1500
42     H42    -0.1160   -3.6527    3.0325 H        1 ZINC000003788782    0.3800
43     H43     0.9031   -1.6789    1.9470 H        1 ZINC000003788782    0.0800
44     H44    -0.2124   -0.4871    1.2355 H        1 ZINC000003788782    0.0900
45     H45     0.0765   -1.1122    4.2096 H        1 ZINC000003788782    0.0500
46     H46     0.6964    0.3382    3.3852 H        1 ZINC000003788782    0.0800
47     H47    -1.1502    0.4960    5.6191 H        1 ZINC000003788782    0.0400
48     H48    -0.6866    1.8952    4.6214 H        1 ZINC000003788782    0.0900
49     H49    -2.9439    3.2078    3.2950 H        1 ZINC000003788782    0.0900
50     H50    -3.6678    1.6061    2.8624 H        1 ZINC000003788782    0.0900
51     H51    -5.5813    3.2049    3.9013 H        1 ZINC000003788782    0.1100
52     H52    -7.2522    1.1790    5.0854 H        1 ZINC000003788782    0.1200
53     H53    -7.2305   -1.0844    6.0668 H        1 ZINC000003788782    0.1200
54     H54    -5.0915   -2.1875    6.5759 H        1 ZINC000003788782    0.1300
55     H55    -2.9622   -1.0335    6.1049 H        1 ZINC000003788782    0.1200
56     H56    -5.5038    5.0471    6.1287 H        1 ZINC000003788782    0.1200
57     H57    -4.0753    5.8971    7.9518 H        1 ZINC000003788782    0.1200
58     H58    -1.9365    4.7929    8.4596 H        1 ZINC000003788782    0.1200
59     H59    -1.2149    2.8320    7.1476 H        1 ZINC000003788782    0.1200
60     H60    -2.3025   -1.4489    4.4198 H        1 ZINC000003788782    0.0600
61     H61    -3.4299   -0.2457    3.7498 H        1 ZINC000003788782    0.1000
62     H62    -2.7127   -0.8410    1.4564 H        1 ZINC000003788782    0.0900
63     H63    -3.3172   -2.2761    2.3199 H        1 ZINC000003788782    0.0800
@<TRIPOS>BOND
1     1     2     1
2     1     34    1
3     1     35    1
4     1     36    1
5     2     3     1
6     2     37    1
7     2     38    1
8     3     4     2
9     3     5     1
10    5     10    ar
11    5     6     ar
12    6     7     ar
13    7     8     ar
14    7     39    1
15    8     9     ar
16    8     40    1
17    9     10    ar
18    9     41    1
19    10    11    1
20    11    33    1
21    11    12    1
22    11    13    1
23    12    42    1
24    13    14    1
25    13    43    1
26    13    44    1
27    14    15    1
28    14    45    1
29    14    46    1
30    15    16    1
31    15    32    1
32    16    17    1
33    16    47    1
34    16    48    1
35    17    25    1
36    17    31    1
37    17    18    1
38    18    19    1
39    18    49    1
40    18    50    1
41    19    20    1
42    19    26    1
43    19    51    1
44    20    25    ar
45    20    21    ar
46    21    22    ar
47    21    52    1
48    22    23    ar
49    22    53    1
50    23    24    ar
51    23    54    1
52    24    25    ar
53    24    55    1
54    26    31    ar
55    26    27    ar
56    27    28    ar
57    27    56    1
58    28    29    ar
59    28    57    1
60    29    30    ar
61    29    58    1
62    30    31    ar
63    30    59    1
64    32    33    1
65    32    60    1
66    32    61    1
67    33    62    1
68    33    63    1
@<TRIPOS>SUBSTRUCTURE
1   ZINC000003788782 1     RESIDUE    1   A     ZIN   1
