@<TRIPOS>MOLECULE
ZINC000003994214
  50   51    0    0    0
SMALL
NO_CHARGES
@<TRIPOS>ATOM
   1 C1            -2.7424     0.0937    -2.7420 C.3     
   2 O2            -1.7865    -0.6926    -2.0279 O.3     
   3 C3            -0.7244    -1.1640    -2.7337 C.ar    
   4 C4            -0.5497    -0.7833    -4.0573 C.ar    
   5 C5             0.5246    -1.2566    -4.7804 C.ar    
   6 C6             1.4430    -2.1234    -4.1816 C.ar    
   7 C7             2.5912    -2.6303    -4.9517 C.2     
   8 C8             3.2830    -1.8008    -5.7507 C.2     
   9 C9             3.0159    -0.3522    -5.7168 C.ar    
  10 C10            2.7976     0.2912    -4.4956 C.ar    
  11 C11            2.5475     1.6515    -4.4672 C.ar    
  12 O12            2.3349     2.2784    -3.2792 O.3     
  13 C13            2.4966     1.4957    -2.0946 C.3     
  14 C14            2.5138     2.3790    -5.6527 C.ar    
  15 O15            2.2681     3.7169    -5.6213 O.3     
  16 C16            3.3995     4.5817    -5.5026 C.3     
  17 C17            2.7312     1.7416    -6.8702 C.ar    
  18 O18            2.6978     2.4565    -8.0266 O.3     
  19 C19            2.9296     1.7383    -9.2402 C.3     
  20 C20            2.9861     0.3824    -6.9052 C.ar    
  21 C21            1.2673    -2.5083    -2.8450 C.ar    
  22 O22            2.1560    -3.3510    -2.2552 O.3     
  23 P23            1.7416    -4.9043    -2.3412 P.3     
  24 O24            0.3202    -5.1012    -1.7123 O.co2   
  25 O25            1.7161    -5.3558    -3.8412 O.co2   
  26 O26            2.7852    -5.7676    -1.5537 O.co2   
  27 C27            0.1865    -2.0214    -2.1252 C.ar    
  28 O28            0.0108    -2.3914    -0.8273 O.3     
  29 P29            0.6524    -1.3687     0.2379 P.3     
  30 O30            2.1774    -1.1832    -0.0695 O.co2   
  31 O31           -0.0733     0.0159     0.1349 O.co2   
  32 O32            0.4774    -1.9437     1.6847 O.co2   
  33 H33           -2.2725     1.0167    -3.0817 H       
  34 H34           -3.1044    -0.4680    -3.6031 H       
  35 H35           -3.5794     0.3323    -2.0858 H       
  36 H36           -1.2583    -0.1141    -4.5226 H       
  37 H37            0.6563    -0.9576    -5.8098 H       
  38 H38            2.8773    -3.6688    -4.8743 H       
  39 H39            4.0349    -2.1958    -6.4178 H       
  40 H40            2.8236    -0.2729    -3.5750 H       
  41 H41            1.8543     0.6168    -2.1494 H       
  42 H42            3.5364     1.1809    -2.0062 H       
  43 H43            2.2224     2.0925    -1.2246 H       
  44 H44            3.0642     5.6188    -5.4893 H       
  45 H45            3.9309     4.3597    -4.5772 H       
  46 H46            4.0662     4.4262    -6.3508 H       
  47 H47            3.9179     1.2797    -9.2078 H       
  48 H48            2.1725     0.9625    -9.3535 H       
  49 H49            2.8753     2.4251   -10.0848 H       
  50 H50            3.1552    -0.1117    -7.8506 H       
@<TRIPOS>BOND
   1    1    2 1
   2    1   33 1
   3    1   34 1
   4    1   35 1
   5    2    3 1
   6    3   27 ar
   7    3    4 ar
   8    4    5 ar
   9    4   36 1
  10    5    6 ar
  11    5   37 1
  12    6    7 1
  13    6   21 ar
  14    7    8 2
  15    7   38 1
  16    8    9 1
  17    8   39 1
  18    9   20 ar
  19    9   10 ar
  20   10   11 ar
  21   10   40 1
  22   11   12 1
  23   11   14 ar
  24   12   13 1
  25   13   41 1
  26   13   42 1
  27   13   43 1
  28   14   15 1
  29   14   17 ar
  30   15   16 1
  31   16   44 1
  32   16   45 1
  33   16   46 1
  34   17   18 1
  35   17   20 ar
  36   18   19 1
  37   19   47 1
  38   19   48 1
  39   19   49 1
  40   20   50 1
  41   21   22 1
  42   21   27 ar
  43   22   23 1
  44   23   24 ar
  45   23   25 ar
  46   23   26 ar
  47   27   28 1
  48   28   29 1
  49   29   30 ar
  50   29   31 ar
  51   29   32 ar
