@<TRIPOS>MOLECULE
ZINC000003818826
  48   51    0    0    0
SMALL
USER_CHARGES
NO_NAME
@<TRIPOS>ATOM
    1 C1       -0.0173     1.4248     0.0099 C.3    1 <0>       0.0200
    2 O2        0.0021    -0.0041     0.0020 O.3    1 <0>      -0.3100
    3 C3        0.6262    -0.6188     1.0422 C.ar   1 <0>       0.1000
    4 C4        1.2019     0.1319     2.0503 C.ar   1 <0>      -0.2000
    5 C5        1.8387    -0.4880     3.1171 C.ar   1 <0>      -0.0300
    6 C6        1.8961    -1.8646     3.1790 C.ar   1 <0>      -0.1000
    7 C7        1.3233    -2.6212     2.1634 C.ar   1 <0>      -0.1100
    8 C8        0.6849    -2.0083     1.1020 C.ar   1 <0>       0.0700
    9 O9        0.1262    -2.7588     0.1151 O.3    1 <0>      -0.4900
   10 C10       2.5471    -2.6049     4.3177 C.3    1 <0>      -0.0800
   11 C11       3.4303    -1.6771     5.1509 C.3    1 <0>      -0.1100
   12 C12       2.6279    -0.4173     5.4759 C.3    1 <0>      -0.0800
   13 H13       1.6501    -0.6950     5.8697 H      1 <0>       0.0800
   14 C14       3.3477     0.4684     6.4716 C.3    1 <0>      -0.0800
   15 H15       4.2891     0.8243     6.0533 H      1 <0>       0.0800
   16 C16       3.5718    -0.1274     7.8655 C.3    1 <0>      -0.1100
   17 C17       3.7322     1.1317     8.7608 C.3    1 <0>      -0.1600
   18 C18       3.0078     2.2863     8.0244 C.3    1 <0>       0.1100
   19 H19       3.7227     3.0557     7.7327 H      1 <0>       0.0600
   20 O20       1.9921     2.8461     8.8592 O.3    1 <0>      -0.5600
   21 C21       2.3960     1.6609     6.7684 C.3    1 <0>      -0.0600
   22 C22       1.0084     1.1051     7.0950 C.3    1 <0>      -0.1400
   23 C23       2.3029     2.5444     5.5419 C.3    1 <0>      -0.1000
   24 C24       1.6747     1.7083     4.4107 C.3    1 <0>      -0.1100
   25 C25       2.4563     0.3791     4.1758 C.3    1 <0>      -0.0500
   26 H26       3.4686     0.6348     3.8627 H      1 <0>       0.0800
   27 H27       1.0053     1.8021     0.0021 H      1 <0>       0.0600
   28 H28      -0.5445     1.7859    -0.8732 H      1 <0>       0.1000
   29 H29      -0.5275     1.7763     0.9067 H      1 <0>       0.0600
   30 H30       1.1562     1.2101     2.0075 H      1 <0>       0.1300
   31 H31       1.3741    -3.6991     2.2064 H      1 <0>       0.1300
   32 H32      -0.7973    -2.9960     0.2764 H      1 <0>       0.3900
   33 H33       1.7726    -3.0291     4.9567 H      1 <0>       0.0800
   34 H34       3.1582    -3.4127     3.9151 H      1 <0>       0.0700
   35 H35       3.7199    -2.1772     6.0751 H      1 <0>       0.0700
   36 H36       4.3210    -1.4092     4.5826 H      1 <0>       0.0700
   37 H37       2.7082    -0.7148     8.1773 H      1 <0>       0.0700
   38 H38       4.4783    -0.7324     7.8851 H      1 <0>       0.0700
   39 H39       3.2707     0.9606     9.7334 H      1 <0>       0.0700
   40 H40       4.7884     1.3711     8.8842 H      1 <0>       0.0700
   41 H41       2.3263     3.2314     9.6807 H      1 <0>       0.3800
   42 H42       0.3593     1.9175     7.4217 H      1 <0>       0.0600
   43 H43       0.5858     0.6375     6.2058 H      1 <0>       0.0600
   44 H44       1.0917     0.3644     7.8903 H      1 <0>       0.0500
   45 H45       1.6740     3.4086     5.7558 H      1 <0>       0.0700
   46 H46       3.2991     2.8749     5.2479 H      1 <0>       0.0600
   47 H47       0.6611     1.4246     4.6942 H      1 <0>       0.0700
   48 H48       1.6382     2.3061     3.5000 H      1 <0>       0.0700
@<TRIPOS>BOND
   1    1    2 1
   2    1   27 1
   3    1   28 1
   4    1   29 1
   5    2    3 1
   6    3    8 ar
   7    3    4 ar
   8    4    5 ar
   9    4   30 1
  10    5   25 1
  11    5    6 ar
  12    6    7 ar
  13    6   10 1
  14    7    8 ar
  15    7   31 1
  16    8    9 1
  17    9   32 1
  18   10   11 1
  19   10   33 1
  20   10   34 1
  21   11   12 1
  22   11   35 1
  23   11   36 1
  24   12   13 1
  25   12   25 1
  26   12   14 1
  27   14   15 1
  28   14   21 1
  29   14   16 1
  30   16   17 1
  31   16   37 1
  32   16   38 1
  33   17   18 1
  34   17   39 1
  35   17   40 1
  36   18   19 1
  37   18   20 1
  38   18   21 1
  39   20   41 1
  40   21   22 1
  41   21   23 1
  42   22   42 1
  43   22   43 1
  44   22   44 1
  45   23   24 1
  46   23   45 1
  47   23   46 1
  48   24   25 1
  49   24   47 1
  50   24   48 1
  51   25   26 1
