@<TRIPOS>MOLECULE
ZINC000003830408
  42   45    0    0    0
SMALL
USER_CHARGES
NO_NAME
@<TRIPOS>ATOM
    1 C1        0.0461     1.5055    -0.0425 C.3    1 <0>      -0.0700
    2 C2        0.0582    -0.0015    -0.0422 C.2    1 <0>       0.0200
    3 N3        0.0245    -0.7631    -1.0868 N.2    1 <0>      -0.2500
    4 N4        0.0420    -2.0115    -0.9095 N.2    1 <0>      -0.2700
    5 C5        0.0930    -2.4463     0.3179 C.2    1 <0>       0.0100
    6 S6        0.1269    -4.1341     0.8226 S.3    1 <0>       0.0400
    7 C7        0.0709    -4.9467    -0.7938 C.3    1 <0>      -0.0400
    8 C8        0.0909    -6.4418    -0.6054 C.2    1 <0>      -0.2200
    9 C9       -1.0764    -7.0600    -0.7334 C.2    1 <0>       0.1700
   10 C10      -2.2790    -6.2911    -1.0924 C.2    1 <0>       0.5300
   11 O11      -2.6254    -6.2082    -2.2629 O.co2  1 <0>      -0.6600
   12 O12      -2.9323    -5.7347    -0.2203 O.co2  1 <0>      -0.6500
   13 N13      -1.1664    -8.4430    -0.5280 N.am   1 <0>      -0.5500
   14 C14      -2.0132    -9.4081    -0.1920 C.2    1 <0>       0.5200
   15 O15      -3.2244    -9.4713    -0.2115 O.2    1 <0>      -0.4500
   16 C16      -0.9528   -10.4010     0.2232 C.3    1 <0>       0.1400
   17 H17      -1.0400   -11.3783    -0.2515 H      1 <0>       0.1600
   18 N18      -0.7236   -10.4735     1.6683 N.am   1 <0>      -0.6900
   19 C19      -1.2012   -11.5172     2.3748 C.2    1 <0>       0.5100
   20 O20      -1.8208   -12.3963     1.8142 O.2    1 <0>      -0.5000
   21 C21      -0.9654   -11.5918     3.8614 C.3    1 <0>       0.1000
   22 N22      -1.5789   -12.8115     4.3925 N.pl3  1 <0>      -0.3000
   23 C23      -0.9642   -13.7664     5.1150 C.2    1 <0>       0.1600
   24 N24      -1.8694   -14.6750     5.3852 N.2    1 <0>      -0.3100
   25 N25      -2.9820   -14.2980     4.8562 N.2    1 <0>      -0.0800
   26 N26      -2.8114   -13.1696     4.2603 N.2    1 <0>      -0.0600
   27 C27      -0.0476    -9.4261    -0.5087 C.3    1 <0>       0.1100
   28 H28       0.2810    -9.7643    -1.4914 H      1 <0>       0.1500
   29 S29       1.2848    -8.6894     0.4962 S.3    1 <0>      -0.2400
   30 C30       1.4232    -7.0460    -0.3035 C.3    1 <0>      -0.0100
   31 S31       0.1286    -1.0395     1.3832 S.3    1 <0>       0.0800
   32 H32       1.0698     1.8771    -0.0872 H      1 <0>       0.0900
   33 H33      -0.5089     1.8642    -0.9093 H      1 <0>       0.0900
   34 H34      -0.4315     1.8651     0.8690 H      1 <0>       0.0800
   35 H35      -0.8424    -4.6582    -1.3140 H      1 <0>       0.1200
   36 H36       0.9361    -4.6432    -1.3832 H      1 <0>       0.1000
   37 H37      -0.2281    -9.7705     2.1167 H      1 <0>       0.4200
   38 H38       0.1065   -11.6086     4.0588 H      1 <0>       0.1500
   39 H39      -1.4101   -10.7216     4.3440 H      1 <0>       0.1400
   40 H40       0.0736   -13.7812     5.4137 H      1 <0>       0.2400
   41 H41       1.9694    -7.1534    -1.2407 H      1 <0>       0.1000
   42 H42       1.9800    -6.3783     0.3540 H      1 <0>       0.1200
@<TRIPOS>BOND
   1    1    2 1
   2    1   32 1
   3    1   33 1
   4    1   34 1
   5    2   31 1
   6    2    3 2
   7    3    4 1
   8    4    5 2
   9    5    6 1
  10    5   31 1
  11    6    7 1
  12    7    8 1
  13    7   35 1
  14    7   36 1
  15    8   30 1
  16    8    9 2
  17    9   10 1
  18    9   13 1
  19   10   11 ar
  20   10   12 ar
  21   13   27 1
  22   13   14 am
  23   14   15 2
  24   14   16 1
  25   16   17 1
  26   16   18 1
  27   16   27 1
  28   18   19 am
  29   18   37 1
  30   19   20 2
  31   19   21 1
  32   21   22 1
  33   21   38 1
  34   21   39 1
  35   22   26 1
  36   22   23 1
  37   23   24 2
  38   23   40 1
  39   24   25 1
  40   25   26 2
  41   27   28 1
  42   27   29 1
  43   29   30 1
  44   30   41 1
  45   30   42 1
