@<TRIPOS>MOLECULE
ZINC000001850826
28    29    1     0     0
SMALL
USER_CHARGES
@<TRIPOS>ATOM
1      C1     -0.0187    1.5258    0.0104 C.3      1 ZINC000001850826   -0.1500
2      C2      0.0021   -0.0041    0.0020 C.3      1 ZINC000001850826   -0.1200
3      C3      0.7421   -0.5109    1.2415 C.3      1 ZINC000001850826   -0.1200
4      C4      0.7628   -2.0407    1.2331 C.3      1 ZINC000001850826   -0.1200
5      C5      1.5028   -2.5476    2.4727 C.3      1 ZINC000001850826    0.1200
6      H6      1.0611   -2.1197    3.3726 H        1 ZINC000001850826    0.1300
7      O7      2.9110   -2.1949    2.3920 O.3      1 ZINC000001850826   -0.3100
8      C8      3.6451   -3.3200    2.3983 C.2      1 ZINC000001850826    0.5200
9      O9      4.8579   -3.3588    2.3419 O.2      1 ZINC000001850826   -0.4500
10     C10     2.7667   -4.5009    2.4842 C.ar     1 ZINC000001850826   -0.2000
11     C11     3.0285   -5.8713    2.5222 C.ar     1 ZINC000001850826   -0.0300
12     C12     1.9823   -6.7672    2.6055 C.ar     1 ZINC000001850826   -0.1300
13     C13     0.6761   -6.3135    2.6510 C.ar     1 ZINC000001850826   -0.0800
14     C14     0.4084   -4.9548    2.6137 C.ar     1 ZINC000001850826   -0.1000
15     C15     1.4420   -4.0532    2.5320 C.ar     1 ZINC000001850826   -0.1000
16     H16     1.0039    1.9031    0.0027 H        1 ZINC000001850826    0.0600
17     H17    -0.5459    1.8868   -0.8726 H        1 ZINC000001850826    0.0500
18     H18    -0.5289    1.8773    0.9072 H        1 ZINC000001850826    0.0500
19     H19    -1.0205   -0.3814    0.0098 H        1 ZINC000001850826    0.0600
20     H20     0.5123   -0.3556   -0.8948 H        1 ZINC000001850826    0.0600
21     H21     1.7647   -0.1336    1.2338 H        1 ZINC000001850826    0.0700
22     H22     0.2319   -0.1594    2.1383 H        1 ZINC000001850826    0.0700
23     H23    -0.2598   -2.4180    1.2409 H        1 ZINC000001850826    0.0900
24     H24     1.2730   -2.3923    0.3363 H        1 ZINC000001850826    0.0800
25     H25     4.0468   -6.2295    2.4862 H        1 ZINC000001850826    0.1400
26     H26     2.1841   -7.8278    2.6350 H        1 ZINC000001850826    0.1400
27     H27    -0.1374   -7.0209    2.7155 H        1 ZINC000001850826    0.1400
28     H28    -0.6124   -4.6040    2.6493 H        1 ZINC000001850826    0.1400
@<TRIPOS>BOND
1     1     2     1
2     1     16    1
3     1     17    1
4     1     18    1
5     2     3     1
6     2     19    1
7     2     20    1
8     3     4     1
9     3     21    1
10    3     22    1
11    4     5     1
12    4     23    1
13    4     24    1
14    5     6     1
15    5     15    1
16    5     7     1
17    7     8     1
18    8     9     2
19    8     10    1
20    10    15    ar
21    10    11    ar
22    11    12    ar
23    11    25    1
24    12    13    ar
25    12    26    1
26    13    14    ar
27    13    27    1
28    14    15    ar
29    14    28    1
@<TRIPOS>SUBSTRUCTURE
1   ZINC000001850826 1     RESIDUE    1   A     ZIN   1
