@<TRIPOS>MOLECULE
ZINC000100031333
  48   50    0    0    0
SMALL
USER_CHARGES
NO_NAME
@<TRIPOS>ATOM
    1 C1        0.0808     1.3596     0.0028 C.2    1 <0>      -0.1200
    2 C2        0.0637     0.0316     0.0029 C.2    1 <0>       0.0100
    3 N3       -1.1193    -0.6481     0.0206 N.2    1 <0>      -0.4600
    4 C4       -1.1962    -1.9051    -0.2147 C.2    1 <0>       0.1900
    5 C5       -2.5574    -2.5509    -0.1827 C.3    1 <0>      -0.1200
    6 C6       -0.0102    -2.7718    -0.5208 C.3    1 <0>      -0.0900
    7 C7       -0.3809    -3.7601    -1.5964 C.2    1 <0>       0.4700
    8 O8        0.2208    -3.7668    -2.6441 O.2    1 <0>      -0.4800
    9 O9       -1.3797    -4.6330    -1.3905 O.3    1 <0>      -0.3400
   10 C10      -1.6819    -5.5556    -2.4701 C.3    1 <0>       0.0800
   11 C11      -2.2285    -6.8606    -1.8878 C.3    1 <0>      -0.1500
   12 C12      -2.7287    -4.9322    -3.3956 C.3    1 <0>      -0.1700
   13 C13       1.1673    -1.9204    -1.0016 C.3    1 <0>      -0.0200
   14 H14       2.0722    -2.5274    -1.0297 H      1 <0>       0.1200
   15 C15       0.8751    -1.3805    -2.3779 C.ar   1 <0>       0.0100
   16 C16      -0.2718    -0.6973    -2.6156 C.ar   1 <0>      -0.1400
   17 C17      -0.5781    -0.1808    -3.8810 C.ar   1 <0>      -0.0800
   18 C18       0.2550    -0.3350    -4.9397 C.ar   1 <0>      -0.0700
   19 C19       1.4660    -1.0338    -4.7702 C.ar   1 <0>       0.0200
   20 N20       2.5021    -1.3920    -5.4877 N.2    1 <0>      -0.3500
   21 O21       3.2793    -2.0057    -4.7843 O.3    1 <0>       0.3700
   22 N22       2.9533    -2.1528    -3.6235 N.2    1 <0>      -0.3300
   23 C23       1.7933    -1.5761    -3.4278 C.ar   1 <0>       0.0700
   24 C24       1.3554    -0.7558    -0.0228 C.3    1 <0>      -0.0700
   25 C25       2.4870     0.1252    -0.4860 C.2    1 <0>       0.4700
   26 O26       3.0882    -0.1458    -1.4984 O.2    1 <0>      -0.4800
   27 O27       2.8270     1.2109     0.2263 O.3    1 <0>      -0.3500
   28 C28       3.9265     2.0133    -0.2794 C.3    1 <0>       0.0300
   29 H29       1.0229     1.8875    -0.0159 H      1 <0>       0.1300
   30 H30      -0.8473     1.9116     0.0168 H      1 <0>       0.1200
   31 H31      -3.3110    -1.7988     0.0506 H      1 <0>       0.0900
   32 H32      -2.7734    -2.9919    -1.1558 H      1 <0>       0.0900
   33 H33      -2.5725    -3.3292     0.5803 H      1 <0>       0.0900
   34 H34       0.2818    -3.3128     0.3793 H      1 <0>       0.1500
   35 H35      -0.7737    -5.7625    -3.0362 H      1 <0>       0.0900
   36 H36      -3.1367    -6.6536    -1.3218 H      1 <0>       0.0700
   37 H37      -2.4554    -7.5532    -2.6983 H      1 <0>       0.0800
   38 H38      -1.4827    -7.3047    -1.2285 H      1 <0>       0.0700
   39 H39      -2.3394    -4.0025    -3.8105 H      1 <0>       0.0600
   40 H40      -2.9556    -5.6248    -4.2061 H      1 <0>       0.0800
   41 H41      -3.6370    -4.7252    -2.8296 H      1 <0>       0.0700
   42 H42      -0.9699    -0.5472    -1.8053 H      1 <0>       0.1600
   43 H43      -1.5054     0.3558    -4.0176 H      1 <0>       0.1400
   44 H44      -0.0078     0.0741    -5.9041 H      1 <0>       0.1400
   45 H45       1.5684    -1.1406     0.9745 H      1 <0>       0.1300
   46 H46       3.6796     2.3817    -1.2751 H      1 <0>       0.0600
   47 H47       4.0973     2.8576     0.3884 H      1 <0>       0.1100
   48 H48       4.8280     1.4028    -0.3311 H      1 <0>       0.0700
@<TRIPOS>BOND
   1    1    2 2
   2    1   29 1
   3    1   30 1
   4    2   24 1
   5    2    3 1
   6    3    4 2
   7    4    5 1
   8    4    6 1
   9    5   31 1
  10    5   32 1
  11    5   33 1
  12    6    7 1
  13    6   13 1
  14    6   34 1
  15    7    8 2
  16    7    9 1
  17    9   10 1
  18   10   11 1
  19   10   12 1
  20   10   35 1
  21   11   36 1
  22   11   37 1
  23   11   38 1
  24   12   39 1
  25   12   40 1
  26   12   41 1
  27   13   14 1
  28   13   15 1
  29   13   24 1
  30   15   23 ar
  31   15   16 ar
  32   16   17 ar
  33   16   42 1
  34   17   18 ar
  35   17   43 1
  36   18   19 ar
  37   18   44 1
  38   19   23 ar
  39   19   20 2
  40   20   21 1
  41   21   22 1
  42   22   23 2
  43   24   25 1
  44   24   45 1
  45   25   26 2
  46   25   27 1
  47   27   28 1
  48   28   46 1
  49   28   47 1
  50   28   48 1
