@<TRIPOS>MOLECULE
ZINC000040919044
  29   29    0    0    0
SMALL
USER_CHARGES
NO_NAME
@<TRIPOS>ATOM
    1 C1       -0.0187     1.5258     0.0104 C.3    1 <0>      -0.1900
    2 C2        0.0021    -0.0041     0.0020 C.3    1 <0>       0.1000
    3 H3        0.5123    -0.3556    -0.8948 H      1 <0>       0.1100
    4 O4        0.6932    -0.4774     1.1597 O.3    1 <0>      -0.5600
    5 C5       -1.4333    -0.5336     0.0129 C.3    1 <0>      -0.1400
    6 C6       -1.4157    -2.0577    -0.1212 C.3    1 <0>       0.1000
    7 H7       -0.7892    -2.4843     0.6621 H      1 <0>       0.0800
    8 O8       -0.8902    -2.4175    -1.4005 O.3    1 <0>      -0.3600
    9 C9       -0.8054    -3.8268    -1.6210 C.3    1 <0>       0.0300
   10 C10      -2.2067    -4.4388    -1.5463 C.3    1 <0>       0.0400
   11 H11      -2.8301    -4.0189    -2.3356 H      1 <0>       0.0800
   12 O12      -2.1184    -5.8556    -1.7104 O.3    1 <0>      -0.5600
   13 C13      -2.8235    -4.1178    -0.1814 C.3    1 <0>       0.0800
   14 H14      -2.2275    -4.5795     0.6057 H      1 <0>       0.0700
   15 O15      -4.1588    -4.6240    -0.1293 O.3    1 <0>      -0.5600
   16 C16      -2.8414    -2.5986     0.0141 C.3    1 <0>       0.0900
   17 H17      -3.4777    -2.1413    -0.7437 H      1 <0>       0.0700
   18 O18      -3.3495    -2.2904     1.3136 O.3    1 <0>      -0.5500
   19 H19       1.0039     1.9031     0.0027 H      1 <0>       0.0700
   20 H20      -0.5459     1.8868    -0.8726 H      1 <0>       0.0700
   21 H21      -0.5289     1.8773     0.9072 H      1 <0>       0.0600
   22 H22       0.2938    -0.2021     1.9962 H      1 <0>       0.3700
   23 H23      -1.9156    -0.2570     0.9504 H      1 <0>       0.0900
   24 H24      -1.9862    -0.1019    -0.8214 H      1 <0>       0.0800
   25 H25      -0.3784    -4.0156    -2.6060 H      1 <0>       0.1000
   26 H26      -0.1711    -4.2767    -0.8573 H      1 <0>       0.0700
   27 H27      -1.7320    -6.1306    -2.5531 H      1 <0>       0.3900
   28 H28      -4.2216    -5.5811    -0.2520 H      1 <0>       0.3900
   29 H29      -4.2493    -2.6083     1.4698 H      1 <0>       0.3900
@<TRIPOS>BOND
   1    1    2 1
   2    1   19 1
   3    1   20 1
   4    1   21 1
   5    2    3 1
   6    2    4 1
   7    2    5 1
   8    4   22 1
   9    5    6 1
  10    5   23 1
  11    5   24 1
  12    6    7 1
  13    6   16 1
  14    6    8 1
  15    8    9 1
  16    9   10 1
  17    9   25 1
  18    9   26 1
  19   10   11 1
  20   10   12 1
  21   10   13 1
  22   12   27 1
  23   13   14 1
  24   13   15 1
  25   13   16 1
  26   15   28 1
  27   16   17 1
  28   16   18 1
  29   18   29 1
