@<TRIPOS>MOLECULE
ZINC000003915526
45    48    1     0     0
SMALL
USER_CHARGES
@<TRIPOS>ATOM
1      N1      0.1878    2.9119    3.8719 N.pl3    1 ZINC000003915526   -0.7800
2      C2      0.6172    1.7300    3.2920 C.cat    1 ZINC000003915526    0.3400
3      N3     -0.1447    0.7270    2.9863 N.pl3    1 ZINC000003915526   -0.4900
4      H4     -1.1002    0.7461    3.1523 H        1 ZINC000003915526    0.4500
5      C5      0.4463   -0.3323    2.4324 C.2      1 ZINC000003915526    0.2200
6      C6     -0.3056   -1.5421    2.0355 C.2      1 ZINC000003915526   -0.1100
7      N7      0.3197   -2.5506    1.4978 N.2      1 ZINC000003915526   -0.2200
8      O8     -0.4156   -3.6365    0.9638 O.3      1 ZINC000003915526   -0.4400
9      C9     -1.7706   -1.6073    2.2492 C.2      1 ZINC000003915526    0.5600
10     O10    -2.3726   -0.6248    2.6349 O.2      1 ZINC000003915526   -0.6100
11     N11    -2.4352   -2.7564    2.0159 N.am     1 ZINC000003915526   -0.6600
12     C12    -3.8975   -2.7868    2.0994 C.3      1 ZINC000003915526    0.1200
13     H13    -4.3527   -1.8132    1.9177 H        1 ZINC000003915526    0.1400
14     C14    -4.4228   -3.4827    3.3436 C.2      1 ZINC000003915526    0.5400
15     O15    -4.5008   -3.1792    4.5156 O.2      1 ZINC000003915526   -0.4400
16     N16    -4.7671   -4.5681    2.6297 N.am     1 ZINC000003915526   -0.5600
17     C17    -5.0716   -5.9298    2.8569 C.2      1 ZINC000003915526    0.2000
18     C18    -5.6755   -6.3294    4.0667 C.2      1 ZINC000003915526    0.4400
19     O19    -6.0555   -7.5958    4.2354 O.co2    1 ZINC000003915526   -0.6100
20     O20    -5.8664   -5.4407    5.0417 O.co2    1 ZINC000003915526   -0.6700
21     C21    -4.7813   -6.8436    1.9095 C.2      1 ZINC000003915526   -0.2300
22     S22    -5.1040   -8.5238    2.3307 S.3      1 ZINC000003915526    0.0700
23     C23    -3.4281   -9.2002    2.2313 C.3      1 ZINC000003915526   -0.1700
24     S24    -2.4387   -8.5702    3.6151 S.3      1 ZINC000003915526   -0.0300
25     C25    -3.0410   -9.4969    4.9873 C.2      1 ZINC000003915526    0.0000
26     C26    -2.6279   -9.4011    6.2788 C.2      1 ZINC000003915526   -0.0300
27     N27    -3.3712  -10.3042    6.9777 N.pl3    1 ZINC000003915526   -0.3900
28     N28    -4.1674  -10.8916    6.1546 N.2      1 ZINC000003915526   -0.0800
29     N29    -4.0014  -10.4318    4.9653 N.2      1 ZINC000003915526   -0.2400
30     C30    -4.2201   -6.6056    0.5465 C.3      1 ZINC000003915526   -0.0300
31     S31    -3.3628   -5.0073    0.4210 S.3      1 ZINC000003915526   -0.1800
32     C32    -4.5329   -3.9186    1.2984 C.3      1 ZINC000003915526    0.1200
33     H33    -5.4243   -3.6597    0.7271 H        1 ZINC000003915526    0.1400
34     C34     1.7781   -0.2208    2.2601 C.2      1 ZINC000003915526   -0.2500
35     S35     2.2811    1.3615    2.8496 S.3      1 ZINC000003915526    0.2800
36     H36     0.8253    3.6169    4.0655 H        1 ZINC000003915526    0.4400
37     H37    -0.7512    3.0364    4.0810 H        1 ZINC000003915526    0.4300
38     H38    -1.9452   -3.5633    1.7927 H        1 ZINC000003915526    0.4300
39     H39    -3.4718  -10.2881    2.2816 H        1 ZINC000003915526    0.1200
40     H40    -2.9696   -8.8981    1.2897 H        1 ZINC000003915526    0.1100
41     H41    -1.8658   -8.7439    6.6707 H        1 ZINC000003915526    0.1900
42     H42    -3.3104  -10.4753    7.9306 H        1 ZINC000003915526    0.4400
43     H43    -3.5161   -7.4035    0.3102 H        1 ZINC000003915526    0.1100
44     H44    -5.0332   -6.6282   -0.1791 H        1 ZINC000003915526    0.1000
45     H45     2.4254   -0.9708    1.8300 H        1 ZINC000003915526    0.2200
@<TRIPOS>BOND
1     1     2     ar
2     1     36    1
3     1     37    1
4     2     35    1
5     2     3     ar
6     3     4     1
7     3     5     1
8     5     6     1
9     5     34    2
10    6     7     2
11    6     9     1
12    7     8     1
13    9     10    2
14    9     11    am
15    11    12    1
16    11    38    1
17    12    13    1
18    12    32    1
19    12    14    1
20    14    15    2
21    14    16    am
22    16    32    1
23    16    17    1
24    17    18    1
25    17    21    2
26    18    19    ar
27    18    20    ar
28    21    22    1
29    21    30    1
30    22    23    1
31    23    24    1
32    23    39    1
33    23    40    1
34    24    25    1
35    25    29    1
36    25    26    2
37    26    27    1
38    26    41    1
39    27    28    1
40    27    42    1
41    28    29    2
42    30    31    1
43    30    43    1
44    30    44    1
45    31    32    1
46    32    33    1
47    34    35    1
48    34    45    1
@<TRIPOS>SUBSTRUCTURE
1   ZINC000003915526 1     RESIDUE    1   A     ZIN   1
