@<TRIPOS>MOLECULE
ZINC000002004483
  32   31    0    0    0
SMALL
USER_CHARGES
NO_NAME
@<TRIPOS>ATOM
    1 C1       -0.0184     1.5028     0.0103 C.3    1 <0>      -0.1600
    2 C2        0.0021    -0.0041     0.0020 C.cat  1 <0>       0.5400
    3 N3        0.0215    -0.6566     1.1184 N.pl3  1 <0>      -0.7300
    4 H4        0.0347    -1.6265     1.1130 H      1 <0>       0.4300
    5 H5        0.0230    -0.1762     1.9610 H      1 <0>       0.4500
    6 N6        0.0000    -0.6826    -1.1881 N.pl3  1 <0>      -0.6700
    7 C7        0.0199    -2.1475    -1.1962 C.3    1 <0>       0.0900
    8 C8        0.0130    -2.6497    -2.6414 C.3    1 <0>      -0.1300
    9 S9        0.0376    -4.4635    -2.6514 S.3    1 <0>      -0.1900
   10 C10       0.0263    -4.8620    -4.4210 C.3    1 <0>      -0.1100
   11 C11       0.0453    -6.3812    -4.6018 C.3    1 <0>      -0.1100
   12 C12       0.0357    -6.7173    -6.0944 C.3    1 <0>      -0.0400
   13 H13       0.8661    -6.2107    -6.5863 H      1 <0>       0.1400
   14 N14      -1.2314    -6.2710    -6.6887 N.4    1 <0>      -0.6100
   15 H15      -2.0001    -6.7400    -6.2334 H      1 <0>       0.4300
   16 H16      -1.3267    -5.2738    -6.5679 H      1 <0>       0.4100
   17 H17      -1.2377    -6.4927    -7.6731 H      1 <0>       0.4400
   18 C18       0.1781    -8.2067    -6.2748 C.2    1 <0>       0.4900
   19 O19      -0.7657    -8.8649    -6.6779 O.co2  1 <0>      -0.6600
   20 O20       1.2372    -8.7534    -6.0178 O.co2  1 <0>      -0.6300
   21 H21       1.0042     1.8801     0.0026 H      1 <0>       0.1400
   22 H22      -0.5455     1.8639    -0.8728 H      1 <0>       0.1200
   23 H23      -0.5286     1.8543     0.9071 H      1 <0>       0.1300
   24 H24      -0.0146    -0.1932    -2.0255 H      1 <0>       0.4400
   25 H25       0.9196    -2.5014    -0.6928 H      1 <0>       0.1100
   26 H26      -0.8601    -2.5256    -0.6760 H      1 <0>       0.1100
   27 H27      -0.8866    -2.2957    -3.1448 H      1 <0>       0.1000
   28 H28       0.8931    -2.2715    -3.1616 H      1 <0>       0.1000
   29 H29      -0.8737    -4.4527    -4.8799 H      1 <0>       0.0800
   30 H30       0.9060    -4.4285    -4.8967 H      1 <0>       0.1000
   31 H31       0.9453    -6.7905    -4.1430 H      1 <0>       0.1200
   32 H32      -0.8344    -6.8147    -4.1261 H      1 <0>       0.0900
@<TRIPOS>BOND
   1    1    2 1
   2    1   21 1
   3    1   22 1
   4    1   23 1
   5    2    3 ar
   6    2    6 ar
   7    3    4 1
   8    3    5 1
   9    6    7 1
  10    6   24 1
  11    7    8 1
  12    7   25 1
  13    7   26 1
  14    8    9 1
  15    8   27 1
  16    8   28 1
  17    9   10 1
  18   10   11 1
  19   10   29 1
  20   10   30 1
  21   11   12 1
  22   11   31 1
  23   11   32 1
  24   12   13 1
  25   12   14 1
  26   12   18 1
  27   14   15 1
  28   14   16 1
  29   14   17 1
  30   18   19 ar
  31   18   20 ar
