@<TRIPOS>MOLECULE
ZINC000231226004
54    56    1     0     0
SMALL
USER_CHARGES
@<TRIPOS>ATOM
1      O1     -5.8702    2.6801    0.4107 O.co2    1 ZINC000231226004   -0.6800
2      C2     -5.9964    3.8807    0.2398 C.2      1 ZINC000231226004    0.4900
3      O3     -7.1093    4.3767    0.1966 O.co2    1 ZINC000231226004   -0.6900
4      C4     -4.7767    4.7516    0.0820 C.3      1 ZINC000231226004    0.0500
5      N5     -3.5710    3.9242    0.1708 N.am     1 ZINC000231226004   -0.6700
6      C6     -2.3540    4.4922    0.0570 C.2      1 ZINC000231226004    0.5900
7      O7     -2.2524    5.7023   -0.0235 O.2      1 ZINC000231226004   -0.5900
8      C8     -1.1529    3.6523    0.0301 C.2      1 ZINC000231226004   -0.4200
9      C9      0.1229    4.2205    0.0459 C.2      1 ZINC000231226004    0.5000
10     O10     0.2742    5.5572    0.0872 O.3      1 ZINC000231226004   -0.4600
11     N11     1.2137    3.4012    0.0194 N.am     1 ZINC000231226004   -0.5200
12     C12     2.5547    3.9907    0.0353 C.3      1 ZINC000231226004    0.1300
13     C13     2.7333    4.8175    1.3102 C.3      1 ZINC000231226004   -0.1400
14     C14     4.1339    5.4331    1.3268 C.3      1 ZINC000231226004   -0.1100
15     C15     4.3083    6.3366    0.1044 C.3      1 ZINC000231226004   -0.1200
16     C16     4.1297    5.5098   -1.1705 C.3      1 ZINC000231226004   -0.1100
17     C17     2.7292    4.8942   -1.1871 C.3      1 ZINC000231226004   -0.1400
18     C18     1.0827    2.0659   -0.0214 C.2      1 ZINC000231226004    0.7100
19     O19     2.0849    1.3784   -0.0438 O.2      1 ZINC000231226004   -0.5300
20     N20    -0.1177    1.4631   -0.0379 N.am     1 ZINC000231226004   -0.5500
21     C21    -0.1935    0.0007   -0.0827 C.3      1 ZINC000231226004    0.1500
22     C22    -0.9422   -0.4328   -1.3446 C.3      1 ZINC000231226004   -0.1400
23     C23    -1.0213   -1.9600   -1.3914 C.3      1 ZINC000231226004   -0.1100
24     C24    -1.7659   -2.4702   -0.1560 C.3      1 ZINC000231226004   -0.1200
25     C25    -1.0172   -2.0367    1.1059 C.3      1 ZINC000231226004   -0.1100
26     C26    -0.9381   -0.5095    1.1527 C.3      1 ZINC000231226004   -0.1400
27     C27    -1.2543    2.1897   -0.0193 C.2      1 ZINC000231226004    0.5700
28     O28    -2.3416    1.6428   -0.0394 O.2      1 ZINC000231226004   -0.4800
29     H29    -4.7614    5.5021    0.8723 H        1 ZINC000231226004    0.0700
30     H30    -4.8069    5.2467   -0.8887 H        1 ZINC000231226004    0.0700
31     H31    -3.6485    2.9676    0.3116 H        1 ZINC000231226004    0.4300
32     H32    -0.5289    6.0921    0.0243 H        1 ZINC000231226004    0.4400
33     H33     3.3010    3.1966    0.0096 H        1 ZINC000231226004    0.1200
34     H34     1.9870    5.6115    1.3358 H        1 ZINC000231226004    0.0900
35     H35     2.6090    4.1738    2.1810 H        1 ZINC000231226004    0.0700
36     H36     4.8801    4.6391    1.3012 H        1 ZINC000231226004    0.0600
37     H37     4.2611    6.0222    2.2351 H        1 ZINC000231226004    0.0700
38     H38     5.3061    6.7752    0.1162 H        1 ZINC000231226004    0.0600
39     H39     3.5620    7.1307    0.1300 H        1 ZINC000231226004    0.0700
40     H40     4.8760    4.7158   -1.1961 H        1 ZINC000231226004    0.0600
41     H41     4.2540    6.1535   -2.0413 H        1 ZINC000231226004    0.0700
42     H42     2.6019    4.3052   -2.0954 H        1 ZINC000231226004    0.0700
43     H43     1.9829    5.6882   -1.1615 H        1 ZINC000231226004    0.0900
44     H44     0.8140   -0.4150   -0.0972 H        1 ZINC000231226004    0.1100
45     H45    -1.9497   -0.0170   -1.3302 H        1 ZINC000231226004    0.0900
46     H46    -0.4117   -0.0693   -2.2247 H        1 ZINC000231226004    0.0600
47     H47    -0.0138   -2.3757   -1.4058 H        1 ZINC000231226004    0.0600
48     H48    -1.5547   -2.2688   -2.2904 H        1 ZINC000231226004    0.0700
49     H49    -1.8223   -3.5582   -0.1893 H        1 ZINC000231226004    0.0600
50     H50    -2.7734   -2.0544   -0.1416 H        1 ZINC000231226004    0.0700
51     H51    -0.0097   -2.4524    1.0915 H        1 ZINC000231226004    0.0600
52     H52    -1.5476   -2.4002    1.9860 H        1 ZINC000231226004    0.0700
53     H53    -0.4046   -0.2006    2.0517 H        1 ZINC000231226004    0.0600
54     H54    -1.9455   -0.0937    1.1671 H        1 ZINC000231226004    0.0900
@<TRIPOS>BOND
1     1     2     ar
2     2     3     ar
3     2     4     1
4     4     5     1
5     4     29    1
6     4     30    1
7     5     6     am
8     5     31    1
9     6     7     2
10    6     8     1
11    8     27    1
12    8     9     2
13    9     10    1
14    9     11    1
15    10    32    1
16    11    12    1
17    11    18    am
18    12    17    1
19    12    13    1
20    12    33    1
21    13    14    1
22    13    34    1
23    13    35    1
24    14    15    1
25    14    36    1
26    14    37    1
27    15    16    1
28    15    38    1
29    15    39    1
30    16    17    1
31    16    40    1
32    16    41    1
33    17    42    1
34    17    43    1
35    18    19    2
36    18    20    am
37    20    21    1
38    20    27    am
39    21    26    1
40    21    22    1
41    21    44    1
42    22    23    1
43    22    45    1
44    22    46    1
45    23    24    1
46    23    47    1
47    23    48    1
48    24    25    1
49    24    49    1
50    24    50    1
51    25    26    1
52    25    51    1
53    25    52    1
54    26    53    1
55    26    54    1
56    27    28    2
@<TRIPOS>SUBSTRUCTURE
1   ZINC000231226004 1     RESIDUE    1   A     ZIN   1
