@<TRIPOS>MOLECULE
ZINC000000001448
32    33    1     0     0
SMALL
USER_CHARGES
@<TRIPOS>ATOM
1      C1     -0.0225    1.8097    0.0120 C.3      1 ZINC000000001448   -0.1500
2      S2      0.0021   -0.0041    0.0020 S.3      1 ZINC000000001448   -0.1100
3      C3      0.8516   -0.3807   -1.4950 C.ar     1 ZINC000000001448   -0.1200
4      C4      1.3089    0.6457   -2.3119 C.ar     1 ZINC000000001448   -0.0900
5      C5      1.9749    0.3493   -3.4847 C.ar     1 ZINC000000001448   -0.1200
6      C6      2.1874   -0.9726   -3.8472 C.ar     1 ZINC000000001448    0.1200
7      O7      2.8435   -1.2633   -5.0025 O.3      1 ZINC000000001448   -0.3100
8      C8      3.0273   -2.6458   -5.3140 C.3      1 ZINC000000001448    0.1400
9      C9      3.7681   -2.7723   -6.6202 C.2      1 ZINC000000001448    0.2700
10     N10     3.2196   -2.8354   -7.8027 N.2      1 ZINC000000001448   -0.4500
11     C11     4.1814   -2.9428   -8.7313 C.2      1 ZINC000000001448    0.1100
12     C12     5.3711   -2.9465   -8.1004 C.2      1 ZINC000000001448    0.0100
13     N13     6.7054   -3.0479   -8.7335 N.pl3    1 ZINC000000001448    0.0600
14     O14     6.7995   -3.1402   -9.9444 O.2      1 ZINC000000001448   -0.1200
15     O15     7.7091   -3.0391   -8.0436 O.2      1 ZINC000000001448   -0.1600
16     N16     5.1097   -2.8332   -6.7615 N.pl3    1 ZINC000000001448   -0.4200
17     C17     6.1001   -2.7941   -5.6827 C.3      1 ZINC000000001448    0.0500
18     C18     1.7316   -1.9983   -3.0321 C.ar     1 ZINC000000001448   -0.1900
19     C19     1.0695   -1.7042   -1.8565 C.ar     1 ZINC000000001448   -0.0600
20     H20     1.0001    2.1870    0.0043 H        1 ZINC000000001448    0.0900
21     H21    -0.5497    2.1708   -0.8711 H        1 ZINC000000001448    0.0900
22     H22    -0.5327    2.1613    0.9088 H        1 ZINC000000001448    0.1100
23     H23     1.1432    1.6750   -2.0300 H        1 ZINC000000001448    0.1300
24     H24     2.3302    1.1471   -4.1201 H        1 ZINC000000001448    0.1400
25     H25     3.6039   -3.1232   -4.5216 H        1 ZINC000000001448    0.0900
26     H26     2.0552   -3.1315   -5.3990 H        1 ZINC000000001448    0.1100
27     H27     4.0284   -3.0143   -9.7980 H        1 ZINC000000001448    0.2100
28     H28     6.3905   -1.7607   -5.4934 H        1 ZINC000000001448    0.1000
29     H29     5.6687   -3.2220   -4.7778 H        1 ZINC000000001448    0.1000
30     H30     6.9780   -3.3706   -5.9744 H        1 ZINC000000001448    0.1100
31     H31     1.8976   -3.0272   -3.3154 H        1 ZINC000000001448    0.1400
32     H32     0.7148   -2.5030   -1.2220 H        1 ZINC000000001448    0.1300
@<TRIPOS>BOND
1     1     2     1
2     1     20    1
3     1     21    1
4     1     22    1
5     2     3     1
6     3     19    ar
7     3     4     ar
8     4     5     ar
9     4     23    1
10    5     6     ar
11    5     24    1
12    6     7     1
13    6     18    ar
14    7     8     1
15    8     9     1
16    8     25    1
17    8     26    1
18    9     16    1
19    9     10    2
20    10    11    1
21    11    12    2
22    11    27    1
23    12    13    1
24    12    16    1
25    13    14    2
26    13    15    2
27    16    17    1
28    17    28    1
29    17    29    1
30    17    30    1
31    18    19    ar
32    18    31    1
33    19    32    1
@<TRIPOS>SUBSTRUCTURE
1   ZINC000000001448 1     RESIDUE    1   A     ZIN   1
