@<TRIPOS>MOLECULE
ZINC000100021546
24    23    1     0     0
SMALL
USER_CHARGES
@<TRIPOS>ATOM
1      O1      0.0021   -0.0041    0.0020 O.2      1 ZINC000100021546   -0.4400
2      C2     -0.0143    1.2034    0.0087 C.2      1 ZINC000100021546    0.3200
3      C3      1.2804    1.9746    0.0004 C.3      1 ZINC000100021546    0.0100
4      H4      1.3381    2.5972    0.8933 H        1 ZINC000100021546    0.1400
5      O5      2.3790    1.0609   -0.0150 O.3      1 ZINC000100021546   -0.5200
6      C6      1.3376    2.8619   -1.2447 C.3      1 ZINC000100021546    0.0500
7      H7      0.5529    3.6164   -1.1895 H        1 ZINC000100021546    0.1300
8      O8      1.1452    2.0590   -2.4110 O.3      1 ZINC000100021546   -0.5400
9      C9      2.7022    3.5498   -1.3184 C.3      1 ZINC000100021546    0.0500
10     H10     2.8122    4.2303   -0.4741 H        1 ZINC000100021546    0.1100
11     O11     3.7357    2.5639   -1.2734 O.3      1 ZINC000100021546   -0.5300
12     C12     2.8060    4.3381   -2.6256 C.3      1 ZINC000100021546    0.0800
13     H13     2.6960    3.6576   -3.4700 H        1 ZINC000100021546    0.1100
14     O14     1.7725    5.3240   -2.6707 O.3      1 ZINC000100021546   -0.5400
15     C15     4.1706    5.0260   -2.6994 C.3      1 ZINC000100021546    0.0400
16     O16     4.3135    5.6658   -3.9692 O.3      1 ZINC000100021546   -0.5700
17     H17    -0.9568    1.7306    0.0160 H        1 ZINC000100021546    0.1000
18     H18     2.3916    0.4739   -0.7833 H        1 ZINC000100021546    0.3700
19     H19     1.8088    1.3649   -2.5246 H        1 ZINC000100021546    0.3700
20     H20     3.6997    1.9231   -1.9967 H        1 ZINC000100021546    0.3700
21     H21     1.8085    5.9648   -1.9474 H        1 ZINC000100021546    0.3700
22     H22     4.2455    5.7706   -1.9069 H        1 ZINC000100021546    0.0500
23     H23     4.9590    4.2835   -2.5759 H        1 ZINC000100021546    0.0600
24     H24     5.1573    6.1233   -4.0863 H        1 ZINC000100021546    0.3800
@<TRIPOS>BOND
1     1     2     2
2     2     3     1
3     2     17    1
4     3     4     1
5     3     5     1
6     3     6     1
7     5     18    1
8     6     7     1
9     6     8     1
10    6     9     1
11    8     19    1
12    9     10    1
13    9     11    1
14    9     12    1
15    11    20    1
16    12    13    1
17    12    14    1
18    12    15    1
19    14    21    1
20    15    16    1
21    15    22    1
22    15    23    1
23    16    24    1
@<TRIPOS>SUBSTRUCTURE
1   ZINC000100021546 1     RESIDUE    1   A     ZIN   1
