@<TRIPOS>MOLECULE
ZINC000000004504
  29   29    0    0    0
SMALL
USER_CHARGES
NO_NAME
@<TRIPOS>ATOM
    1 C1       -0.1570     1.3222     0.1346 C.3    1 <0>      -0.1800
    2 C2        0.0078    -0.1975     0.0694 C.3    1 <0>       0.0900
    3 N3        0.6910    -0.5616    -1.1744 N.pl3  1 <0>      -0.4300
    4 C4        0.1037    -0.9666    -2.3163 C.2    1 <0>       0.2100
    5 N5        1.0159    -1.2060    -3.2184 N.2    1 <0>      -0.4700
    6 C6        2.2321    -0.9667    -2.7005 C.2    1 <0>       0.0000
    7 C7        3.5274    -1.1167    -3.3976 C.2    1 <0>       0.6000
    8 O8        4.5640    -0.8663    -2.8144 O.2    1 <0>      -0.5300
    9 N9        3.5586    -1.5311    -4.6797 N.am   1 <0>      -0.7200
   10 C10       4.8420    -1.6797    -5.3704 C.3    1 <0>       0.0900
   11 C11       2.0456    -0.5467    -1.3904 C.2    1 <0>       0.0000
   12 C12       3.0916    -0.1691    -0.4247 C.2    1 <0>       0.6000
   13 O13       3.5266     0.9665    -0.4125 O.2    1 <0>      -0.5100
   14 N14       3.5667    -1.0821     0.4455 N.am   1 <0>      -0.7200
   15 C15       4.5269    -0.6809     1.4766 C.3    1 <0>       0.0900
   16 H16       0.8244     1.7957     0.1071 H      1 <0>       0.0700
   17 H17      -0.7477     1.6605    -0.7168 H      1 <0>       0.0700
   18 H18      -0.6653     1.5931     1.0600 H      1 <0>       0.0800
   19 H19       0.5985    -0.5357     0.9208 H      1 <0>       0.0900
   20 H20      -0.9736    -0.6710     0.0970 H      1 <0>       0.1100
   21 H21      -0.9605    -1.0772    -2.4633 H      1 <0>       0.2200
   22 H22       2.7313    -1.7309    -5.1451 H      1 <0>       0.4100
   23 H23       5.4562    -2.4094    -4.8428 H      1 <0>       0.0600
   24 H24       4.6680    -2.0211    -6.3908 H      1 <0>       0.0800
   25 H25       5.3566    -0.7190    -5.3915 H      1 <0>       0.0600
   26 H26       3.2728    -2.0048     0.3890 H      1 <0>       0.4000
   27 H27       4.7945    -1.5478     2.0809 H      1 <0>       0.0800
   28 H28       5.4220    -0.2782     1.0026 H      1 <0>       0.0700
   29 H29       4.0787     0.0816     2.1136 H      1 <0>       0.0600
@<TRIPOS>BOND
   1    1    2 1
   2    1   16 1
   3    1   17 1
   4    1   18 1
   5    2    3 1
   6    2   19 1
   7    2   20 1
   8    3   11 1
   9    3    4 1
  10    4    5 2
  11    4   21 1
  12    5    6 1
  13    6    7 1
  14    6   11 2
  15    7    8 2
  16    7    9 am
  17    9   10 1
  18    9   22 1
  19   10   23 1
  20   10   24 1
  21   10   25 1
  22   11   12 1
  23   12   13 2
  24   12   14 am
  25   14   15 1
  26   14   26 1
  27   15   27 1
  28   15   28 1
  29   15   29 1
