@<TRIPOS>MOLECULE
ZINC000004636519
32    33    1     0     0
SMALL
USER_CHARGES
@<TRIPOS>ATOM
1      N1     -0.0116    1.0048    0.0076 N.4      1 ZINC000004636519   -0.6400
2      H2      0.0021   -0.0041    0.0020 H        1 ZINC000004636519    0.4400
3      H3      0.9350    1.3541    0.0004 H        1 ZINC000004636519    0.4300
4      H4     -0.4996    1.3391   -0.8099 H        1 ZINC000004636519    0.4400
5      C5     -0.6992    1.4786    1.2162 C.3      1 ZINC000004636519    0.0000
6      C6      0.0408    0.9717    2.4557 C.3      1 ZINC000004636519   -0.1300
7      H7      0.1569   -0.1116    2.4225 H        1 ZINC000004636519    0.1300
8      C8      1.4118    1.6708    2.6061 C.3      1 ZINC000004636519   -0.1600
9      C9      1.1310    2.8462    3.5162 C.2      1 ZINC000004636519    0.5100
10     O10     1.8632    3.8019    3.6625 O.2      1 ZINC000004636519   -0.5100
11     N11    -0.0484    2.6775    4.1387 N.am     1 ZINC000004636519   -0.6100
12     C12    -0.6281    3.6343    5.0846 C.3      1 ZINC000004636519    0.1600
13     C13    -1.4863    4.6223    4.3374 C.ar     1 ZINC000004636519   -0.1200
14     C14    -0.9300    5.7888    3.8470 C.ar     1 ZINC000004636519   -0.1000
15     C15    -1.7172    6.6951    3.1616 C.ar     1 ZINC000004636519   -0.1200
16     C16    -3.0606    6.4347    2.9662 C.ar     1 ZINC000004636519   -0.1100
17     C17    -3.6168    5.2677    3.4558 C.ar     1 ZINC000004636519   -0.1200
18     C18    -2.8286    4.3594    4.1375 C.ar     1 ZINC000004636519   -0.1100
19     C19    -0.6813    1.4109    3.7488 C.3      1 ZINC000004636519    0.1100
20     H20    -0.7140    2.5685    1.2222 H        1 ZINC000004636519    0.1300
21     H21    -1.7218    1.1013    1.2239 H        1 ZINC000004636519    0.1400
22     H22     2.1352    0.9971    3.0654 H        1 ZINC000004636519    0.1300
23     H23     1.7723    2.0162    1.6372 H        1 ZINC000004636519    0.1000
24     H24    -1.2387    3.1005    5.8129 H        1 ZINC000004636519    0.0900
25     H25     0.1719    4.1652    5.6006 H        1 ZINC000004636519    0.1000
26     H26     0.1197    5.9923    3.9996 H        1 ZINC000004636519    0.1300
27     H27    -1.2827    7.6069    2.7790 H        1 ZINC000004636519    0.1300
28     H28    -3.6758    7.1431    2.4313 H        1 ZINC000004636519    0.1300
29     H29    -4.6664    5.0643    3.3034 H        1 ZINC000004636519    0.1300
30     H30    -3.2631    3.4476    4.5200 H        1 ZINC000004636519    0.1200
31     H31    -1.7430    1.5638    3.5550 H        1 ZINC000004636519    0.0900
32     H32    -0.5435    0.6641    4.5306 H        1 ZINC000004636519    0.1000
@<TRIPOS>BOND
1     1     2     1
2     1     3     1
3     1     4     1
4     1     5     1
5     5     6     1
6     5     20    1
7     5     21    1
8     6     7     1
9     6     19    1
10    6     8     1
11    8     9     1
12    8     22    1
13    8     23    1
14    9     10    2
15    9     11    am
16    11    12    1
17    11    19    1
18    12    13    1
19    12    24    1
20    12    25    1
21    13    18    ar
22    13    14    ar
23    14    15    ar
24    14    26    1
25    15    16    ar
26    15    27    1
27    16    17    ar
28    16    28    1
29    17    18    ar
30    17    29    1
31    18    30    1
32    19    31    1
33    19    32    1
@<TRIPOS>SUBSTRUCTURE
1   ZINC000004636519 1     RESIDUE    1   A     ZIN   1
