@<TRIPOS>MOLECULE
ZINC000000001630
38    39    1     0     0
SMALL
USER_CHARGES
@<TRIPOS>ATOM
1      C1     -0.6034   -0.2934    0.9209 C.3      1 ZINC000000001630    0.0400
2      O2      0.0492    0.3813   -0.1565 O.3      1 ZINC000000001630   -0.3200
3      C3      0.7207   -0.3912   -1.0528 C.ar     1 ZINC000000001630    0.1000
4      C4      0.0514   -0.8882   -2.1766 C.ar     1 ZINC000000001630    0.1000
5      O5     -1.2638   -0.5937   -2.3615 O.3      1 ZINC000000001630   -0.3200
6      C6     -1.5672    0.6511   -2.9943 C.3      1 ZINC000000001630    0.0300
7      C7      0.7113   -1.6731   -3.0993 C.ar     1 ZINC000000001630    0.1000
8      O8      0.0498   -2.1493   -4.1880 O.3      1 ZINC000000001630   -0.2800
9      C9      0.0594   -1.3833   -5.2900 C.2      1 ZINC000000001630    0.4500
10     C10    -0.6524   -1.8457   -6.5352 C.3      1 ZINC000000001630   -0.1400
11     O11     0.6407   -0.3197   -5.2837 O.2      1 ZINC000000001630   -0.4900
12     C12     2.0730   -1.9790   -2.9096 C.ar     1 ZINC000000001630   -0.0300
13     C13     2.7727   -2.7753   -3.8316 C.ar     1 ZINC000000001630   -0.0900
14     C14     4.0895   -3.0532   -3.6202 C.ar     1 ZINC000000001630   -0.0200
15     Cl15    4.9505   -4.0370   -4.7623 Cl       1 ZINC000000001630   -0.0500
16     C16     4.7559   -2.5581   -2.4995 C.ar     1 ZINC000000001630   -0.1000
17     C17     4.1093   -1.7836   -1.5859 C.ar     1 ZINC000000001630   -0.0800
18     C18     2.7509   -1.4760   -1.7707 C.ar     1 ZINC000000001630   -0.0400
19     C19     2.0554   -0.6717   -0.8468 C.ar     1 ZINC000000001630    0.1000
20     O20     2.6961   -0.1777    0.2463 O.3      1 ZINC000000001630   -0.2800
21     C21     3.2884    1.0195    0.1162 C.2      1 ZINC000000001630    0.4500
22     C22     4.0175    1.6305    1.2850 C.3      1 ZINC000000001630   -0.1400
23     O23     3.2368    1.6094   -0.9415 O.2      1 ZINC000000001630   -0.4900
24     H24    -1.3945   -0.9302    0.5249 H        1 ZINC000000001630    0.0600
25     H25     0.1209   -0.9056    1.4582 H        1 ZINC000000001630    0.0500
26     H26    -1.0345    0.4408    1.6015 H        1 ZINC000000001630    0.1000
27     H27    -1.2178    1.4718   -2.3679 H        1 ZINC000000001630    0.0600
28     H28    -1.0703    0.6967   -3.9634 H        1 ZINC000000001630    0.0500
29     H29    -2.6449    0.7343   -3.1344 H        1 ZINC000000001630    0.1000
30     H30    -1.1128   -2.8164   -6.3513 H        1 ZINC000000001630    0.1000
31     H31    -1.4231   -1.1228   -6.8027 H        1 ZINC000000001630    0.1100
32     H32     0.0639   -1.9322   -7.3522 H        1 ZINC000000001630    0.1100
33     H33     2.2690   -3.1656   -4.7036 H        1 ZINC000000001630    0.1400
34     H34     5.8000   -2.7929   -2.3543 H        1 ZINC000000001630    0.1500
35     H35     4.6381   -1.4074   -0.7226 H        1 ZINC000000001630    0.1400
36     H36     3.9567    0.9598    2.1420 H        1 ZINC000000001630    0.1000
37     H37     5.0630    1.7869    1.0195 H        1 ZINC000000001630    0.1100
38     H38     3.5601    2.5868    1.5388 H        1 ZINC000000001630    0.1100
@<TRIPOS>BOND
1     1     2     1
2     1     24    1
3     1     25    1
4     1     26    1
5     2     3     1
6     3     19    ar
7     3     4     ar
8     4     5     1
9     4     7     ar
10    5     6     1
11    6     27    1
12    6     28    1
13    6     29    1
14    7     8     1
15    7     12    ar
16    8     9     1
17    9     10    1
18    9     11    2
19    10    30    1
20    10    31    1
21    10    32    1
22    12    18    ar
23    12    13    ar
24    13    14    ar
25    13    33    1
26    14    15    1
27    14    16    ar
28    16    17    ar
29    16    34    1
30    17    18    ar
31    17    35    1
32    18    19    ar
33    19    20    1
34    20    21    1
35    21    22    1
36    21    23    2
37    22    36    1
38    22    37    1
39    22    38    1
@<TRIPOS>SUBSTRUCTURE
1   ZINC000000001630 1     RESIDUE    1   A     ZIN   1
