@<TRIPOS>MOLECULE
ZINC000070466463
49    51    1     0     0
SMALL
USER_CHARGES
@<TRIPOS>ATOM
1      C1      2.9141    0.8810   -0.5025 C.3      1 ZINC000070466463   -0.1000
2      C2      2.2916   -0.4891   -0.4222 C.ar     1 ZINC000070466463    0.0400
3      C3      2.3194   -1.1900    0.7685 C.ar     1 ZINC000070466463    0.0900
4      N4      1.7739   -2.3921    0.8432 N.ar     1 ZINC000070466463   -0.4300
5      C5      1.1995   -2.9255   -0.2264 C.ar     1 ZINC000070466463    0.3200
6      N6      0.6231   -4.1923   -0.1514 N.am     1 ZINC000070466463   -0.6600
7      C7      0.7377   -4.9190    0.9778 C.2      1 ZINC000070466463    0.7000
8      O8      1.2635   -4.4350    1.9615 O.2      1 ZINC000070466463   -0.5100
9      N9      0.2694   -6.1822    1.0167 N.am     1 ZINC000070466463   -0.6700
10     C10     0.2808   -6.8970    2.2222 C.ar     1 ZINC000070466463    0.1400
11     C11     0.2691   -6.2195    3.4321 C.ar     1 ZINC000070466463   -0.0600
12     C12     0.2799   -6.9272    4.6206 C.ar     1 ZINC000070466463   -0.1100
13     Br13    0.2632   -6.0021    6.2697 Br       1 ZINC000070466463   -0.0400
14     C14     0.3023   -8.3100    4.6053 C.ar     1 ZINC000070466463   -0.0300
15     C15     0.3135   -9.0760    5.9031 C.3      1 ZINC000070466463   -0.1300
16     C16     0.3141   -8.9916    3.4020 C.ar     1 ZINC000070466463   -0.1900
17     C17     0.2981   -8.2900    2.2080 C.ar     1 ZINC000070466463    0.1200
18     O18     0.3097   -8.9593    1.0242 O.3      1 ZINC000070466463   -0.3000
19     C19     0.3385  -10.3867    1.0861 C.3      1 ZINC000070466463    0.0700
20     C20     0.3477  -10.9587   -0.3329 C.3      1 ZINC000070466463    0.1000
21     H21    -0.5029  -10.5652   -0.8895 H        1 ZINC000070466463    0.0800
22     C22     0.2549  -12.4855   -0.2693 C.3      1 ZINC000070466463    0.0300
23     N23     0.3418  -13.0337   -1.6306 N.3      1 ZINC000070466463   -0.6900
24     C24     1.6007  -12.6317   -2.2747 C.3      1 ZINC000070466463    0.0200
25     C25     1.6800  -11.1033   -2.3182 C.3      1 ZINC000070466463    0.0600
26     O26     1.5620  -10.5860   -0.9901 O.3      1 ZINC000070466463   -0.3700
27     C27     1.1733   -2.2165   -1.4246 C.ar     1 ZINC000070466463    0.0300
28     N28     1.7153   -1.0152   -1.4900 N.ar     1 ZINC000070466463   -0.4100
29     H29     2.1688    1.6343   -0.2471 H        1 ZINC000070466463    0.0800
30     H30     3.7478    0.9429    0.1970 H        1 ZINC000070466463    0.0800
31     H31     3.2760    1.0569   -1.5156 H        1 ZINC000070466463    0.0800
32     H32     2.7876   -0.7553    1.6393 H        1 ZINC000070466463    0.1700
33     H33     0.1395   -4.5509   -0.9120 H        1 ZINC000070466463    0.4200
34     H34    -0.0755   -6.5966    0.2104 H        1 ZINC000070466463    0.4100
35     H35     0.2519   -5.1398    3.4465 H        1 ZINC000070466463    0.1700
36     H36    -0.7113   -9.2773    6.2150 H        1 ZINC000070466463    0.0800
37     H37     0.8429  -10.0186    5.7641 H        1 ZINC000070466463    0.0700
38     H38     0.8171   -8.4859    6.6688 H        1 ZINC000070466463    0.0800
39     H39     0.3317  -10.0714    3.3934 H        1 ZINC000070466463    0.1400
40     H40     1.2360  -10.7094    1.6138 H        1 ZINC000070466463    0.0700
41     H41    -0.5436  -10.7452    1.6167 H        1 ZINC000070466463    0.0800
42     H42     1.0755  -12.8752    0.3331 H        1 ZINC000070466463    0.0500
43     H43    -0.6957  -12.7740    0.1793 H        1 ZINC000070466463    0.0900
44     H44     0.2442  -14.0380   -1.6229 H        1 ZINC000070466463    0.3500
45     H45     2.4428  -13.0237   -1.7043 H        1 ZINC000070466463    0.0400
46     H46     1.6325  -13.0268   -3.2900 H        1 ZINC000070466463    0.0900
47     H47     2.6370  -10.8005   -2.7431 H        1 ZINC000070466463    0.1000
48     H48     0.8685  -10.7142   -2.9332 H        1 ZINC000070466463    0.0600
49     H49     0.7064   -2.6475   -2.2979 H        1 ZINC000070466463    0.1700
@<TRIPOS>BOND
1     1     2     1
2     1     29    1
3     1     30    1
4     1     31    1
5     2     28    ar
6     2     3     ar
7     3     4     ar
8     3     32    1
9     4     5     ar
10    5     6     1
11    5     27    ar
12    6     7     am
13    6     33    1
14    7     8     2
15    7     9     am
16    9     10    1
17    9     34    1
18    10    17    ar
19    10    11    ar
20    11    12    ar
21    11    35    1
22    12    13    1
23    12    14    ar
24    14    15    1
25    14    16    ar
26    15    36    1
27    15    37    1
28    15    38    1
29    16    17    ar
30    16    39    1
31    17    18    1
32    18    19    1
33    19    20    1
34    19    40    1
35    19    41    1
36    20    21    1
37    20    26    1
38    20    22    1
39    22    23    1
40    22    42    1
41    22    43    1
42    23    24    1
43    23    44    1
44    24    25    1
45    24    45    1
46    24    46    1
47    25    26    1
48    25    47    1
49    25    48    1
50    27    28    ar
51    27    49    1
@<TRIPOS>SUBSTRUCTURE
1   ZINC000070466463 1     RESIDUE    1   A     ZIN   1
