@<TRIPOS>MOLECULE
ZINC000003860621
  16   16    0    0    0
SMALL
USER_CHARGES
NO_NAME
@<TRIPOS>ATOM
    1 C1       -0.0178     1.4608     0.0101 C.3    1 <0>       0.0900
    2 N2        0.0021    -0.0041     0.0020 N.am   1 <0>      -0.6300
    3 C3       -1.1983    -0.8485     0.0031 C.3    1 <0>       0.1000
    4 C4       -0.7183    -2.2476    -0.4424 C.3    1 <0>      -0.1300
    5 C5        0.7699    -2.2185    -0.0238 C.3    1 <0>      -0.1600
    6 C6        1.1220    -0.7473    -0.0131 C.2    1 <0>       0.5100
    7 O7        2.2505    -0.3031    -0.0111 O.2    1 <0>      -0.5300
    8 H8        1.0048     1.8381     0.0023 H      1 <0>       0.0800
    9 H9       -0.5450     1.8219    -0.8730 H      1 <0>       0.0600
   10 H10      -0.5280     1.8123     0.9069 H      1 <0>       0.0600
   11 H11      -1.6242    -0.8973     1.0053 H      1 <0>       0.0700
   12 H12      -1.9335    -0.4599    -0.7015 H      1 <0>       0.0800
   13 H13      -1.2575    -3.0323     0.0882 H      1 <0>       0.0900
   14 H14      -0.8178    -2.3689    -1.5211 H      1 <0>       0.0800
   15 H15       0.8956    -2.6520     0.9684 H      1 <0>       0.1100
   16 H16       1.3819    -2.7491    -0.7532 H      1 <0>       0.1000
@<TRIPOS>BOND
   1    1    2 1
   2    1    8 1
   3    1    9 1
   4    1   10 1
   5    2    6 am
   6    2    3 1
   7    3    4 1
   8    3   11 1
   9    3   12 1
  10    4    5 1
  11    4   13 1
  12    4   14 1
  13    5    6 1
  14    5   15 1
  15    5   16 1
  16    6    7 2
