@<TRIPOS>MOLECULE
ZINC000000000640
43    45    1     0     0
SMALL
USER_CHARGES
@<TRIPOS>ATOM
1      C1      0.0845    2.6050   -1.4118 C.3      1 ZINC000000000640    0.0300
2      O2      0.0391    1.2009   -1.1499 O.3      1 ZINC000000000640   -0.3200
3      C3     -1.1913    0.6277   -1.0683 C.ar     1 ZINC000000000640    0.0900
4      C4     -2.3294    1.4007   -1.2426 C.ar     1 ZINC000000000640   -0.1700
5      C5     -3.5794    0.8183   -1.1597 C.ar     1 ZINC000000000640   -0.1700
6      C6     -3.6961   -0.5394   -0.9022 C.ar     1 ZINC000000000640    0.1000
7      O7     -4.9265   -1.1126   -0.8206 O.3      1 ZINC000000000640   -0.3100
8      C8     -6.0549   -0.2567   -1.0106 C.3      1 ZINC000000000640    0.0300
9      C9     -2.5577   -1.3127   -0.7282 C.ar     1 ZINC000000000640   -0.0700
10     C10    -2.6844   -2.7882   -0.4493 C.3      1 ZINC000000000640   -0.0200
11     C11    -2.8180   -3.5358   -1.7510 C.ar     1 ZINC000000000640   -0.1800
12     C12    -4.0771   -3.8534   -2.2452 C.ar     1 ZINC000000000640    0.2100
13     N13    -4.2326   -4.5043   -3.3765 N.ar     1 ZINC000000000640   -0.4900
14     C14    -3.1826   -4.8896   -4.1021 C.ar     1 ZINC000000000640    0.4100
15     N15    -3.3297   -5.5535   -5.2575 N.ar     1 ZINC000000000640   -0.5900
16     C16    -2.2737   -5.9235   -5.9573 C.ar     1 ZINC000000000640    0.6200
17     N17    -2.4723   -6.6058   -7.1424 N.pl3    1 ZINC000000000640   -0.8100
18     N18    -1.0268   -5.6680   -5.5718 N.ar     1 ZINC000000000640   -0.6200
19     C19    -0.7742   -5.0175   -4.4450 C.ar     1 ZINC000000000640    0.5200
20     N20     0.5209   -4.7571   -4.0542 N.pl3    1 ZINC000000000640   -0.8500
21     C21    -1.8711   -4.5965   -3.6531 C.ar     1 ZINC000000000640   -0.2800
22     C22    -1.6980   -3.8988   -2.4523 C.ar     1 ZINC000000000640    0.0400
23     C23    -0.3204   -3.5605   -1.9434 C.3      1 ZINC000000000640   -0.1600
24     C24    -1.3079   -0.7314   -0.8163 C.ar     1 ZINC000000000640   -0.1100
25     H25     1.1230    2.9337   -1.4516 H        1 ZINC000000000640    0.1000
26     H26    -0.3991    2.8124   -2.3664 H        1 ZINC000000000640    0.0500
27     H27    -0.4357    3.1399   -0.6172 H        1 ZINC000000000640    0.0600
28     H28    -2.2385    2.4581   -1.4429 H        1 ZINC000000000640    0.1300
29     H29    -4.4657    1.4203   -1.2952 H        1 ZINC000000000640    0.1300
30     H30    -6.0468    0.5284   -0.2545 H        1 ZINC000000000640    0.0500
31     H31    -6.0066    0.1934   -2.0022 H        1 ZINC000000000640    0.0500
32     H32    -6.9719   -0.8389   -0.9201 H        1 ZINC000000000640    0.1000
33     H33    -1.7970   -3.1356    0.0797 H        1 ZINC000000000640    0.0900
34     H34    -3.5670   -2.9674    0.1648 H        1 ZINC000000000640    0.0900
35     H35    -4.9515   -3.5578   -1.6845 H        1 ZINC000000000640    0.1700
36     H36    -3.3730   -6.8029   -7.4435 H        1 ZINC000000000640    0.4200
37     H37    -1.7109   -6.8876   -7.6733 H        1 ZINC000000000640    0.4200
38     H38     0.7490   -3.8935   -3.6760 H        1 ZINC000000000640    0.4200
39     H39     1.2047   -5.4373   -4.1572 H        1 ZINC000000000640    0.4100
40     H40     0.0351   -2.6537   -2.4327 H        1 ZINC000000000640    0.0900
41     H41    -0.3603   -3.4002   -0.8660 H        1 ZINC000000000640    0.0800
42     H42     0.3603   -4.3828   -2.1635 H        1 ZINC000000000640    0.1000
43     H43    -0.4216   -1.3336   -0.6812 H        1 ZINC000000000640    0.1400
@<TRIPOS>BOND
1     1     2     1
2     1     25    1
3     1     26    1
4     1     27    1
5     2     3     1
6     3     24    ar
7     3     4     ar
8     4     5     ar
9     4     28    1
10    5     6     ar
11    5     29    1
12    6     7     1
13    6     9     ar
14    7     8     1
15    8     30    1
16    8     31    1
17    8     32    1
18    9     10    1
19    9     24    ar
20    10    11    1
21    10    33    1
22    10    34    1
23    11    22    ar
24    11    12    ar
25    12    13    ar
26    12    35    1
27    13    14    ar
28    14    21    ar
29    14    15    ar
30    15    16    ar
31    16    17    1
32    16    18    ar
33    17    36    1
34    17    37    1
35    18    19    ar
36    19    20    1
37    19    21    ar
38    20    38    1
39    20    39    1
40    21    22    ar
41    22    23    1
42    23    40    1
43    23    41    1
44    23    42    1
45    24    43    1
@<TRIPOS>SUBSTRUCTURE
1   ZINC000000000640 1     RESIDUE    1   A     ZIN   1
