@<TRIPOS>MOLECULE
ZINC000254442034
70    73    1     0     0
SMALL
USER_CHARGES
@<TRIPOS>ATOM
1      C1     -1.8331    1.3864   -3.7302 C.3      1 ZINC000254442034   -0.1500
2      C2     -1.5128   -0.0575   -3.3387 C.3      1 ZINC000254442034   -0.1200
3      C3     -2.7083   -0.6631   -2.6006 C.3      1 ZINC000254442034   -0.1100
4      C4     -2.3880   -2.1070   -2.2091 C.3      1 ZINC000254442034   -0.1200
5      C5     -3.5656   -2.7035   -1.4822 C.2      1 ZINC000254442034    0.4500
6      O6     -4.5592   -2.0416   -1.2962 O.2      1 ZINC000254442034   -0.4900
7      O7     -3.5107   -3.9701   -1.0412 O.3      1 ZINC000254442034   -0.3400
8      C8     -4.7317   -4.5220   -0.4514 C.3      1 ZINC000254442034    0.1000
9      C9     -5.1281   -3.6746    0.7190 C.2      1 ZINC000254442034    0.3600
10     O10    -6.2960   -3.4708    0.9488 O.2      1 ZINC000254442034   -0.3800
11     C11    -4.0694   -3.0766    1.6093 C.3      1 ZINC000254442034    0.0300
12     O12    -4.6878   -2.2408    2.5896 O.3      1 ZINC000254442034   -0.5500
13     C13    -5.8425   -4.5083   -1.5279 C.3      1 ZINC000254442034   -0.1300
14     C14    -5.6801   -5.8696   -2.2420 C.3      1 ZINC000254442034   -0.1200
15     C15    -5.3363   -6.8384   -1.0730 C.3      1 ZINC000254442034   -0.0700
16     H16    -4.7527   -7.6992   -1.4407 H        1 ZINC000254442034    0.0900
17     C17    -6.6835   -7.3193   -0.5143 C.3      1 ZINC000254442034   -0.0700
18     H18    -7.3615   -6.4685   -0.4687 H        1 ZINC000254442034    0.0900
19     C19    -7.2314   -8.3157   -1.5319 C.3      1 ZINC000254442034   -0.1100
20     C20    -8.0079   -9.4618   -0.9080 C.3      1 ZINC000254442034   -0.0900
21     C21    -8.6804   -8.9746    0.3520 C.2      1 ZINC000254442034   -0.0100
22     C22   -10.0041   -8.9864    0.4511 C.2      1 ZINC000254442034   -0.2400
23     C23   -10.6782   -8.5289    1.6646 C.2      1 ZINC000254442034    0.3900
24     O24   -11.8883   -8.5174    1.7251 O.2      1 ZINC000254442034   -0.4700
25     C25    -9.8543   -8.0704    2.8417 C.3      1 ZINC000254442034   -0.1700
26     C26    -8.5466   -7.4648    2.3173 C.3      1 ZINC000254442034   -0.0900
27     C27    -7.7935   -8.4825    1.4670 C.3      1 ZINC000254442034   -0.0200
28     C28    -7.4085   -9.6863    2.3438 C.3      1 ZINC000254442034   -0.1400
29     C29    -6.5161   -7.8908    0.8785 C.3      1 ZINC000254442034   -0.0500
30     H30    -5.7507   -8.6813    0.8372 H        1 ZINC000254442034    0.0800
31     C31    -5.9981   -6.7704    1.7920 C.3      1 ZINC000254442034    0.1100
32     H32    -5.9495   -7.1353    2.8213 H        1 ZINC000254442034    0.0600
33     O33    -6.8632   -5.6387    1.7342 O.3      1 ZINC000254442034   -0.5400
34     C34    -4.5996   -6.3782    1.3368 C.3      1 ZINC000254442034   -0.1500
35     C35    -4.4960   -5.9940   -0.1137 C.3      1 ZINC000254442034   -0.0200
36     C36    -3.0132   -6.2730   -0.5040 C.3      1 ZINC000254442034   -0.1400
37     H37    -0.9814    1.8178   -4.2560 H        1 ZINC000254442034    0.0600
38     H38    -2.7073    1.4010   -4.3811 H        1 ZINC000254442034    0.0600
39     H39    -2.0390    1.9692   -2.8324 H        1 ZINC000254442034    0.0600
40     H40    -1.3069   -0.6403   -4.2366 H        1 ZINC000254442034    0.0600
41     H41    -0.6386   -0.0721   -2.6878 H        1 ZINC000254442034    0.0600
42     H42    -2.9142   -0.0804   -1.7028 H        1 ZINC000254442034    0.0700
43     H43    -3.5825   -0.6486   -3.2516 H        1 ZINC000254442034    0.0700
44     H44    -2.1821   -2.6898   -3.1070 H        1 ZINC000254442034    0.1100
45     H45    -1.5138   -2.1216   -1.5582 H        1 ZINC000254442034    0.1100
46     H46    -3.5199   -3.8754    2.1073 H        1 ZINC000254442034    0.0800
47     H47    -3.3815   -2.4828    1.0074 H        1 ZINC000254442034    0.0700
48     H48    -4.0646   -1.8217    3.1987 H        1 ZINC000254442034    0.3900
49     H49    -6.8203   -4.4375   -1.0615 H        1 ZINC000254442034    0.1000
50     H50    -5.6795   -3.6925   -2.2265 H        1 ZINC000254442034    0.0800
51     H51    -6.6104   -6.1612   -2.7268 H        1 ZINC000254442034    0.0800
52     H52    -4.8662   -5.8295   -2.9647 H        1 ZINC000254442034    0.0700
53     H53    -7.8910   -7.7816   -2.2200 H        1 ZINC000254442034    0.0600
54     H54    -6.3984   -8.7257   -2.1058 H        1 ZINC000254442034    0.0700
55     H55    -8.7653   -9.8147   -1.6089 H        1 ZINC000254442034    0.0800
56     H56    -7.3285  -10.2788   -0.6682 H        1 ZINC000254442034    0.0800
57     H57   -10.5962   -9.3392   -0.3817 H        1 ZINC000254442034    0.1300
58     H58   -10.4083   -7.3016    3.3883 H        1 ZINC000254442034    0.0900
59     H59    -9.6554   -8.9030    3.5079 H        1 ZINC000254442034    0.1000
60     H60    -8.7998   -6.5944    1.7042 H        1 ZINC000254442034    0.0900
61     H61    -7.9337   -7.1567    3.1639 H        1 ZINC000254442034    0.0800
62     H62    -8.3109  -10.1440    2.7491 H        1 ZINC000254442034    0.0600
63     H63    -6.8697  -10.4173    1.7409 H        1 ZINC000254442034    0.0600
64     H64    -6.7721   -9.3507    3.1626 H        1 ZINC000254442034    0.0600
65     H65    -6.6431   -4.9426    2.3684 H        1 ZINC000254442034    0.3700
66     H66    -4.1921   -5.6114    1.9900 H        1 ZINC000254442034    0.0700
67     H67    -3.9502   -7.2652    1.4875 H        1 ZINC000254442034    0.0800
68     H68    -2.7935   -7.3314   -0.3637 H        1 ZINC000254442034    0.0600
69     H69    -2.8558   -6.0046   -1.5486 H        1 ZINC000254442034    0.0700
70     H70    -2.3532   -5.6781    0.1274 H        1 ZINC000254442034    0.0600
@<TRIPOS>BOND
1     1     2     1
2     1     37    1
3     1     38    1
4     1     39    1
5     2     3     1
6     2     40    1
7     2     41    1
8     3     4     1
9     3     42    1
10    3     43    1
11    4     5     1
12    4     44    1
13    4     45    1
14    5     6     2
15    5     7     1
16    7     8     1
17    8     35    1
18    8     9     1
19    8     13    1
20    9     10    2
21    9     11    1
22    11    12    1
23    11    46    1
24    11    47    1
25    12    48    1
26    13    14    1
27    13    49    1
28    13    50    1
29    14    15    1
30    14    51    1
31    14    52    1
32    15    16    1
33    15    35    1
34    15    17    1
35    17    18    1
36    17    29    1
37    17    19    1
38    19    20    1
39    19    53    1
40    19    54    1
41    20    21    1
42    20    55    1
43    20    56    1
44    21    27    1
45    21    22    2
46    22    23    1
47    22    57    1
48    23    24    2
49    23    25    1
50    25    26    1
51    25    58    1
52    25    59    1
53    26    27    1
54    26    60    1
55    26    61    1
56    27    28    1
57    27    29    1
58    28    62    1
59    28    63    1
60    28    64    1
61    29    30    1
62    29    31    1
63    31    32    1
64    31    33    1
65    31    34    1
66    33    65    1
67    34    35    1
68    34    66    1
69    34    67    1
70    35    36    1
71    36    68    1
72    36    69    1
73    36    70    1
@<TRIPOS>SUBSTRUCTURE
1   ZINC000254442034 1     RESIDUE    1   A     ZIN   1
