@<TRIPOS>MOLECULE
ZINC000004393014
68    74    1     0     0
SMALL
USER_CHARGES
@<TRIPOS>ATOM
1      C1      0.1832    1.4201   -0.0171 C.3      1 ZINC000004393014    0.0700
2      N2      0.2041   -0.0447   -0.0355 N.am     1 ZINC000004393014   -0.6200
3      C3      0.2623   -0.7324    1.1221 C.2      1 ZINC000004393014    0.5600
4      O4      0.2797   -1.9497    1.1068 O.2      1 ZINC000004393014   -0.5400
5      C5      0.3032   -0.0383    2.3578 C.2      1 ZINC000004393014   -0.2600
6      C6      0.3615   -0.7278    3.5184 C.2      1 ZINC000004393014    0.0600
7      C7      0.4039   -0.0088    4.7984 C.2      1 ZINC000004393014   -0.1900
8      C8      0.3857    1.3450    4.9872 C.2      1 ZINC000004393014    0.0100
9      O9      0.4385    1.5871    6.3016 O.3      1 ZINC000004393014   -0.1700
10     C10     0.4915    0.4412    6.9983 C.2      1 ZINC000004393014   -0.0300
11     C11     0.4685   -0.5947    6.1462 C.2      1 ZINC000004393014   -0.2000
12     C12     0.1618   -0.7619   -1.3122 C.3      1 ZINC000004393014    0.1300
13     H13     0.1863   -1.8313   -1.1028 H        1 ZINC000004393014    0.1100
14     C14     1.4016   -0.4041   -2.0984 C.3      1 ZINC000004393014   -0.1200
15     C15     1.3428   -0.9500   -3.5245 C.3      1 ZINC000004393014   -0.1400
16     C16     0.1675   -0.2849   -4.2340 C.3      1 ZINC000004393014    0.1500
17     O17     0.3640    1.1304   -4.2512 O.3      1 ZINC000004393014   -0.5400
18     C18     0.0315   -0.7860   -5.6707 C.3      1 ZINC000004393014    0.0100
19     H19     0.9474   -0.5271   -6.2018 H        1 ZINC000004393014    0.1400
20     C20    -0.1753   -2.2851   -5.8039 C.3      1 ZINC000004393014   -0.0900
21     C21    -0.9523   -2.8804   -4.6753 C.ar     1 ZINC000004393014   -0.0600
22     C22    -1.3194   -4.2112   -4.5782 C.ar     1 ZINC000004393014   -0.1100
23     C23    -2.0028   -4.6662   -3.4620 C.ar     1 ZINC000004393014   -0.1000
24     C24    -2.3445   -3.8485   -2.3871 C.ar     1 ZINC000004393014    0.1100
25     O25    -2.9937   -4.3403   -1.2981 O.3      1 ZINC000004393014   -0.4800
26     C26    -1.9890   -2.4984   -2.4786 C.ar     1 ZINC000004393014    0.1100
27     C27    -1.3473   -2.0748   -3.6336 C.ar     1 ZINC000004393014   -0.1900
28     C28    -1.1236   -0.6046   -3.5031 C.3      1 ZINC000004393014   -0.0300
29     C29    -2.2715    0.1397   -4.1869 C.3      1 ZINC000004393014   -0.1200
30     C30    -2.3362   -0.3231   -5.6478 C.3      1 ZINC000004393014   -0.0100
31     N31    -1.0780   -0.0756   -6.3214 N.4      1 ZINC000004393014   -0.3700
32     H32    -1.1539   -0.3683   -7.2841 H        1 ZINC000004393014    0.4200
33     C33    -0.7805    1.3622   -6.2759 C.3      1 ZINC000004393014   -0.0100
34     C34    -1.7267    2.1089   -7.2183 C.3      1 ZINC000004393014   -0.2100
35     C35    -2.6992    3.1117   -6.5942 C.3      1 ZINC000004393014   -0.1700
36     C36    -1.5001    3.6107   -7.4029 C.3      1 ZINC000004393014   -0.1500
37     C37    -1.1534   -0.4407   -1.9951 C.3      1 ZINC000004393014    0.1000
38     H38    -1.5058    0.5515   -1.7135 H        1 ZINC000004393014    0.1300
39     O39    -2.1238   -1.4655   -1.6181 O.3      1 ZINC000004393014   -0.2700
40     H40     1.2046    1.7985   -0.0551 H        1 ZINC000004393014    0.0600
41     H41    -0.3724    1.7864   -0.8804 H        1 ZINC000004393014    0.0700
42     H42    -0.2983    1.7651    0.8979 H        1 ZINC000004393014    0.0800
43     H43     0.2878    1.0415    2.3714 H        1 ZINC000004393014    0.1300
44     H44     0.3770   -1.8076    3.5048 H        1 ZINC000004393014    0.1400
45     H45     0.3373    2.0914    4.2081 H        1 ZINC000004393014    0.2100
46     H46     0.5406    0.3650    8.0745 H        1 ZINC000004393014    0.2100
47     H47     0.4982   -1.6445    6.3980 H        1 ZINC000004393014    0.1600
48     H48     1.4975    0.6810   -2.1368 H        1 ZINC000004393014    0.0800
49     H49     2.2744   -0.8192   -1.5945 H        1 ZINC000004393014    0.0900
50     H50     2.2699   -0.7154   -4.0476 H        1 ZINC000004393014    0.0900
51     H51     1.1956   -2.0297   -3.5001 H        1 ZINC000004393014    0.0900
52     H52     1.1694    1.4101   -4.7075 H        1 ZINC000004393014    0.3900
53     H53    -0.7053   -2.4831   -6.7356 H        1 ZINC000004393014    0.1000
54     H54     0.8000   -2.7695   -5.8503 H        1 ZINC000004393014    0.1300
55     H55    -1.0727   -4.8971   -5.3750 H        1 ZINC000004393014    0.1400
56     H56    -2.2854   -5.7079   -3.4235 H        1 ZINC000004393014    0.1400
57     H57    -2.4053   -4.6608   -0.6008 H        1 ZINC000004393014    0.4000
58     H58    -3.2110   -0.0922   -3.6853 H        1 ZINC000004393014    0.1200
59     H59    -2.0884    1.2135   -4.1487 H        1 ZINC000004393014    0.1100
60     H60    -2.5512   -1.3913   -5.6788 H        1 ZINC000004393014    0.1300
61     H61    -3.1302    0.2175   -6.1628 H        1 ZINC000004393014    0.1400
62     H62    -0.9164    1.7293   -5.2586 H        1 ZINC000004393014    0.1800
63     H63     0.2503    1.5300   -6.5881 H        1 ZINC000004393014    0.1200
64     H64    -2.0734    1.5422   -8.0825 H        1 ZINC000004393014    0.1200
65     H65    -3.6860    3.2049   -7.0477 H        1 ZINC000004393014    0.1100
66     H66    -2.6648    3.2395   -5.5122 H        1 ZINC000004393014    0.1000
67     H67    -0.6768    4.0668   -6.8530 H        1 ZINC000004393014    0.1100
68     H68    -1.6980    4.0321   -8.3884 H        1 ZINC000004393014    0.1100
@<TRIPOS>BOND
1     1     2     1
2     1     40    1
3     1     41    1
4     1     42    1
5     2     3     am
6     2     12    1
7     3     4     2
8     3     5     1
9     5     6     2
10    5     43    1
11    6     7     1
12    6     44    1
13    7     11    1
14    7     8     2
15    8     9     1
16    8     45    1
17    9     10    1
18    10    11    2
19    10    46    1
20    11    47    1
21    12    13    1
22    12    37    1
23    12    14    1
24    14    15    1
25    14    48    1
26    14    49    1
27    15    16    1
28    15    50    1
29    15    51    1
30    16    28    1
31    16    17    1
32    16    18    1
33    17    52    1
34    18    19    1
35    18    31    1
36    18    20    1
37    20    21    1
38    20    53    1
39    20    54    1
40    21    27    ar
41    21    22    ar
42    22    23    ar
43    22    55    1
44    23    24    ar
45    23    56    1
46    24    25    1
47    24    26    ar
48    25    57    1
49    26    39    1
50    26    27    ar
51    27    28    1
52    28    29    1
53    28    37    1
54    29    30    1
55    29    58    1
56    29    59    1
57    30    31    1
58    30    60    1
59    30    61    1
60    31    32    1
61    31    33    1
62    33    34    1
63    33    62    1
64    33    63    1
65    34    36    1
66    34    35    1
67    34    64    1
68    35    36    1
69    35    65    1
70    35    66    1
71    36    67    1
72    36    68    1
73    37    38    1
74    37    39    1
@<TRIPOS>SUBSTRUCTURE
1   ZINC000004393014 1     RESIDUE    1   A     ZIN   1
