@<TRIPOS>MOLECULE
ZINC000001661709
  24   24    0    0    0
SMALL
USER_CHARGES
NO_NAME
@<TRIPOS>ATOM
    1 N1       -0.0162     1.3436     0.0094 N.am   1 <0>      -0.8500
    2 C2        0.0021    -0.0041     0.0020 C.2    1 <0>       0.4900
    3 O3        1.0605    -0.5961    -0.0113 O.2    1 <0>      -0.5200
    4 C4       -1.2926    -0.7753     0.0102 C.3    1 <0>       0.0900
    5 N5       -1.0054    -2.2118    -0.0002 N.pl3  1 <0>      -0.5300
    6 C6       -0.8753    -2.8843    -1.2077 C.2    1 <0>       0.0700
    7 C7       -0.2892    -4.0595    -1.2673 C.2    1 <0>      -0.2100
    8 C8        0.2701    -4.7280    -0.0446 C.3    1 <0>      -0.0200
    9 C9       -0.2684    -4.0941     1.2064 C.2    1 <0>      -0.3000
   10 C10      -0.1447    -4.7780     2.4384 C.2    1 <0>       0.5800
   11 N11       0.4514    -5.9860     2.4817 N.am   1 <0>      -0.8600
   12 O12      -0.5769    -4.2753     3.4600 O.2    1 <0>      -0.5700
   13 C13      -0.8603    -2.8877     1.1788 C.2    1 <0>       0.2100
   14 H14       0.8172     1.8399     0.0041 H      1 <0>       0.4100
   15 H15      -0.8627     1.8171     0.0160 H      1 <0>       0.4000
   16 H16      -1.8592    -0.5245     0.9070 H      1 <0>       0.1200
   17 H17      -1.8762    -0.5150    -0.8728 H      1 <0>       0.1200
   18 H18      -1.2613    -2.4357    -2.1111 H      1 <0>       0.1400
   19 H19      -0.2081    -4.5581    -2.2219 H      1 <0>       0.1300
   20 H20      -0.0019    -5.7834    -0.0571 H      1 <0>       0.0700
   21 H21       1.3564    -4.6386    -0.0526 H      1 <0>       0.0700
   22 H22       0.7957    -6.3864     1.6680 H      1 <0>       0.4000
   23 H23       0.5362    -6.4550     3.3265 H      1 <0>       0.4000
   24 H24      -1.2318    -2.4516     2.0942 H      1 <0>       0.1600
@<TRIPOS>BOND
   1    1    2 am
   2    1   14 1
   3    1   15 1
   4    2    3 2
   5    2    4 1
   6    4    5 1
   7    4   16 1
   8    4   17 1
   9    5   13 1
  10    5    6 1
  11    6    7 2
  12    6   18 1
  13    7    8 1
  14    7   19 1
  15    8    9 1
  16    8   20 1
  17    8   21 1
  18    9   10 1
  19    9   13 2
  20   10   11 am
  21   10   12 2
  22   11   22 1
  23   11   23 1
  24   13   24 1
