@<TRIPOS>MOLECULE
ZINC000003809801
50    52    1     0     0
SMALL
USER_CHARGES
@<TRIPOS>ATOM
1      O1      0.0021   -0.0041    0.0020 O.co2    1 ZINC000003809801   -0.7000
2      C2     -0.0145    1.2150    0.0087 C.2      1 ZINC000003809801    0.5000
3      O3      1.0330    1.8389    0.0021 O.co2    1 ZINC000003809801   -0.6800
4      C4     -1.3296    1.9507    0.0190 C.3      1 ZINC000003809801    0.0800
5      H5     -1.9493    1.5329    0.8124 H        1 ZINC000003809801    0.0800
6      C6     -2.0216    1.7091   -1.3038 C.3      1 ZINC000003809801   -0.1000
7      C7     -2.9863    2.8669   -1.5906 C.3      1 ZINC000003809801   -0.1200
8      C8     -2.1111    4.1001   -1.8201 C.3      1 ZINC000003809801   -0.1000
9      C9     -1.3639    4.4652   -0.5427 C.3      1 ZINC000003809801    0.1900
10     H10    -2.0183    5.1318    0.0192 H        1 ZINC000003809801    0.0700
11     S11     0.0906    5.4368   -0.9926 S.3      1 ZINC000003809801   -0.2500
12     C12     0.5721    6.2961    0.4982 C.3      1 ZINC000003809801   -0.0900
13     C13     1.0960    5.3789    1.5735 C.3      1 ZINC000003809801   -0.1300
14     C14     0.0190    4.6461    2.3219 C.3      1 ZINC000003809801    0.1700
15     H15    -0.7582    5.3589    2.5977 H        1 ZINC000003809801    0.1000
16     N16     0.5978    4.0919    3.5483 N.am     1 ZINC000003809801   -0.6900
17     C17    -0.1906    3.8417    4.6124 C.2      1 ZINC000003809801    0.5400
18     O18    -1.3792    4.0754    4.5547 O.2      1 ZINC000003809801   -0.5300
19     C19     0.4049    3.2716    5.8739 C.3      1 ZINC000003809801   -0.0500
20     H20     1.3182    2.7283    5.6313 H        1 ZINC000003809801    0.1400
21     S21     0.7911    4.6205    7.0236 S.3      1 ZINC000003809801   -0.2000
22     C22    -0.5982    2.3176    6.5255 C.3      1 ZINC000003809801   -0.0700
23     C23     0.0412    1.6542    7.7181 C.ar     1 ZINC000003809801   -0.0800
24     C24     0.7278    0.4647    7.5617 C.ar     1 ZINC000003809801   -0.1100
25     C25     1.3143   -0.1438    8.6556 C.ar     1 ZINC000003809801   -0.1200
26     C26     1.2145    0.4375    9.9059 C.ar     1 ZINC000003809801   -0.1200
27     C27     0.5287    1.6276   10.0620 C.ar     1 ZINC000003809801   -0.1200
28     C28    -0.0541    2.2382    8.9674 C.ar     1 ZINC000003809801   -0.0900
29     C29    -0.5997    3.5498    1.5630 C.2      1 ZINC000003809801    0.4800
30     O30    -0.7127    2.5495    2.2395 O.2      1 ZINC000003809801   -0.5300
31     N31    -1.0684    3.3625    0.3299 N.am     1 ZINC000003809801   -0.5400
32     H32    -1.2775    1.6503   -2.0982 H        1 ZINC000003809801    0.0700
33     H33    -2.5794    0.7738   -1.2571 H        1 ZINC000003809801    0.0800
34     H34    -3.5743    2.6529   -2.4831 H        1 ZINC000003809801    0.0700
35     H35    -3.6440    3.0275   -0.7363 H        1 ZINC000003809801    0.0700
36     H36    -1.3914    3.8895   -2.6112 H        1 ZINC000003809801    0.0800
37     H37    -2.7400    4.9376   -2.1220 H        1 ZINC000003809801    0.0800
38     H38     1.3468    7.0212    0.2491 H        1 ZINC000003809801    0.1200
39     H39    -0.2932    6.8327    0.8874 H        1 ZINC000003809801    0.0800
40     H40     1.7600    4.6470    1.1137 H        1 ZINC000003809801    0.1000
41     H41     1.6733    5.9700    2.2844 H        1 ZINC000003809801    0.0900
42     H42     1.5485    3.9050    3.5944 H        1 ZINC000003809801    0.4100
43     H43    -0.4078    5.1938    7.2310 H        1 ZINC000003809801    0.0900
44     H44    -1.4755    2.8779    6.8484 H        1 ZINC000003809801    0.0800
45     H45    -0.8978    1.5573    5.8041 H        1 ZINC000003809801    0.0900
46     H46     0.8057    0.0105    6.5850 H        1 ZINC000003809801    0.1200
47     H47     1.8501   -1.0735    8.5336 H        1 ZINC000003809801    0.1200
48     H48     1.6721   -0.0382   10.7607 H        1 ZINC000003809801    0.1200
49     H49     0.4505    2.0816   11.0389 H        1 ZINC000003809801    0.1200
50     H50    -0.5899    3.1680    9.0894 H        1 ZINC000003809801    0.1200
@<TRIPOS>BOND
1     1     2     ar
2     2     3     ar
3     2     4     1
4     4     5     1
5     4     31    1
6     4     6     1
7     6     7     1
8     6     32    1
9     6     33    1
10    7     8     1
11    7     34    1
12    7     35    1
13    8     9     1
14    8     36    1
15    8     37    1
16    9     10    1
17    9     31    1
18    9     11    1
19    11    12    1
20    12    13    1
21    12    38    1
22    12    39    1
23    13    14    1
24    13    40    1
25    13    41    1
26    14    15    1
27    14    16    1
28    14    29    1
29    16    17    am
30    16    42    1
31    17    18    2
32    17    19    1
33    19    20    1
34    19    21    1
35    19    22    1
36    21    43    1
37    22    23    1
38    22    44    1
39    22    45    1
40    23    28    ar
41    23    24    ar
42    24    25    ar
43    24    46    1
44    25    26    ar
45    25    47    1
46    26    27    ar
47    26    48    1
48    27    28    ar
49    27    49    1
50    28    50    1
51    29    30    2
52    29    31    am
@<TRIPOS>SUBSTRUCTURE
1   ZINC000003809801 1     RESIDUE    1   A     ZIN   1
