@<TRIPOS>MOLECULE
ZINC000008674218
69    73    1     0     0
SMALL
USER_CHARGES
@<TRIPOS>ATOM
1      C1      0.7408   -0.0458   -1.4426 C.3      1 ZINC000008674218    0.0100
2      N2      0.1645    0.0254   -0.0933 N.3      1 ZINC000008674218   -0.4900
3      C3      0.3683    1.3552    0.4967 C.3      1 ZINC000008674218    0.0400
4      C4     -1.2607   -0.3303   -0.1101 C.3      1 ZINC000008674218    0.0900
5      H5     -1.7102    0.0241   -1.0377 H        1 ZINC000008674218    0.0400
6      C6     -1.9500    0.3199    1.0576 C.2      1 ZINC000008674218    0.3500
7      O7     -2.3184    1.6052    0.9525 O.3      1 ZINC000008674218   -0.6300
8      C8     -2.2184   -0.3486    2.2275 C.2      1 ZINC000008674218   -0.5100
9      C9     -2.8972    0.3489    3.3312 C.2      1 ZINC000008674218    0.5900
10     O10    -3.3155    1.4797    3.1702 O.2      1 ZINC000008674218   -0.5600
11     N11    -3.0553   -0.2651    4.5205 N.am     1 ZINC000008674218   -0.7400
12     C12    -3.6339    0.4654    5.6509 C.3      1 ZINC000008674218    0.2800
13     N13    -5.0772    0.2004    5.7180 N.3      1 ZINC000008674218   -0.5300
14     C14    -5.3580   -1.0175    6.5206 C.3      1 ZINC000008674218    0.0300
15     C15    -6.8449   -0.8439    6.9200 C.3      1 ZINC000008674218   -0.1200
16     C16    -6.9585    0.6762    7.1773 C.3      1 ZINC000008674218   -0.1300
17     C17    -5.7877    1.3045    6.3988 C.3      1 ZINC000008674218    0.0400
18     C18    -1.8307   -1.7577    2.3805 C.2      1 ZINC000008674218    0.3900
19     O19    -2.2418   -2.4350    3.3000 O.2      1 ZINC000008674218   -0.5000
20     C20    -0.8941   -2.3227    1.3353 C.3      1 ZINC000008674218    0.0800
21     O21     0.4241   -1.8163    1.5540 O.3      1 ZINC000008674218   -0.5000
22     C22    -0.8662   -3.8172    1.3844 C.2      1 ZINC000008674218    0.3800
23     O23    -0.8339   -4.3644    2.4698 O.2      1 ZINC000008674218   -0.4800
24     C24    -0.8761   -4.6082    0.2372 C.2      1 ZINC000008674218   -0.4700
25     C25    -0.8014   -5.9840    0.3776 C.2      1 ZINC000008674218    0.3200
26     O26    -0.7631   -6.5466    1.6051 O.3      1 ZINC000008674218   -0.6000
27     C27    -0.7640   -6.8241   -0.8302 C.ar     1 ZINC000008674218   -0.0900
28     C28    -1.0810   -8.1869   -0.7664 C.ar     1 ZINC000008674218    0.1300
29     O29    -1.4332   -8.7522    0.4156 O.3      1 ZINC000008674218   -0.4700
30     C30    -1.0325   -8.9541   -1.9215 C.ar     1 ZINC000008674218   -0.1700
31     C31    -0.6733   -8.3759   -3.1231 C.ar     1 ZINC000008674218   -0.1100
32     C32    -0.3608   -7.0268   -3.1897 C.ar     1 ZINC000008674218   -0.1400
33     C33    -0.4053   -6.2497   -2.0549 C.ar     1 ZINC000008674218   -0.0700
34     C34    -0.0769   -4.7806   -2.1170 C.3      1 ZINC000008674218    0.1800
35     C35     1.3909   -4.5699   -1.7400 C.3      1 ZINC000008674218   -0.1600
36     O36    -0.3017   -4.2982   -3.4432 O.3      1 ZINC000008674218   -0.5500
37     C37    -0.9662   -4.0169   -1.1410 C.3      1 ZINC000008674218    0.0200
38     H38    -1.9997   -4.1034   -1.4767 H        1 ZINC000008674218    0.0400
39     C39    -0.5865   -2.5366   -1.1233 C.3      1 ZINC000008674218   -0.0900
40     C40    -1.4039   -1.8469   -0.0264 C.3      1 ZINC000008674218   -0.0500
41     H41    -2.4546   -2.1164   -0.1334 H        1 ZINC000008674218    0.0700
42     H42     1.8112    0.1536   -1.3915 H        1 ZINC000008674218    0.0500
43     H43     0.5759   -1.0408   -1.8561 H        1 ZINC000008674218    0.0900
44     H44     0.2630    0.6969   -2.0815 H        1 ZINC000008674218    0.0100
45     H45    -0.0675    2.1125   -0.1550 H        1 ZINC000008674218    0.0200
46     H46    -0.1125    1.3967    1.4740 H        1 ZINC000008674218    0.0800
47     H47     1.4361    1.5432    0.6088 H        1 ZINC000008674218    0.0400
48     H48    -2.7860   -1.1908    4.6280 H        1 ZINC000008674218    0.4000
49     H49    -3.1607    0.1370    6.5762 H        1 ZINC000008674218    0.0400
50     H50    -3.4666    1.5341    5.5167 H        1 ZINC000008674218    0.0800
51     H51    -5.2240   -1.9153    5.9171 H        1 ZINC000008674218    0.0800
52     H52    -4.7230   -1.0497    7.4060 H        1 ZINC000008674218    0.0400
53     H53    -7.5013   -1.1472    6.1044 H        1 ZINC000008674218    0.0700
54     H54    -7.0690   -1.4064    7.8264 H        1 ZINC000008674218    0.0600
55     H55    -7.9091    1.0537    6.8007 H        1 ZINC000008674218    0.0700
56     H56    -6.8616    0.8879    8.2422 H        1 ZINC000008674218    0.0600
57     H57    -5.1126    1.8111    7.0885 H        1 ZINC000008674218    0.0400
58     H58    -6.1688    2.0112    5.6616 H        1 ZINC000008674218    0.0800
59     H59     0.8227   -2.1035    2.3869 H        1 ZINC000008674218    0.3500
60     H60    -2.3828   -8.7265    0.5963 H        1 ZINC000008674218    0.3800
61     H61    -1.2757  -10.0056   -1.8807 H        1 ZINC000008674218    0.1200
62     H62    -0.6359   -8.9793   -4.0180 H        1 ZINC000008674218    0.1200
63     H63    -0.0814   -6.5847   -4.1346 H        1 ZINC000008674218    0.1200
64     H64     2.0270   -5.1144   -2.4379 H        1 ZINC000008674218    0.0400
65     H65     1.6287   -3.5071   -1.7849 H        1 ZINC000008674218    0.0700
66     H66     1.5627   -4.9382   -0.7286 H        1 ZINC000008674218    0.0800
67     H67     0.2327   -4.7389   -4.1180 H        1 ZINC000008674218    0.3600
68     H68     0.4771   -2.4324   -0.9086 H        1 ZINC000008674218    0.0900
69     H69    -0.8127   -2.0874   -2.0903 H        1 ZINC000008674218    0.0500
@<TRIPOS>BOND
1     1     2     1
2     1     42    1
3     1     43    1
4     1     44    1
5     2     3     1
6     2     4     1
7     3     45    1
8     3     46    1
9     3     47    1
10    4     5     1
11    4     40    1
12    4     6     1
13    6     7     1
14    6     8     2
15    8     9     1
16    8     18    1
17    9     10    2
18    9     11    am
19    11    12    1
20    11    48    1
21    12    13    1
22    12    49    1
23    12    50    1
24    13    17    1
25    13    14    1
26    14    15    1
27    14    51    1
28    14    52    1
29    15    16    1
30    15    53    1
31    15    54    1
32    16    17    1
33    16    55    1
34    16    56    1
35    17    57    1
36    17    58    1
37    18    19    2
38    18    20    1
39    20    40    1
40    20    21    1
41    20    22    1
42    21    59    1
43    22    23    2
44    22    24    1
45    24    37    1
46    24    25    2
47    25    26    1
48    25    27    1
49    27    33    ar
50    27    28    ar
51    28    29    1
52    28    30    ar
53    29    60    1
54    30    31    ar
55    30    61    1
56    31    32    ar
57    31    62    1
58    32    33    ar
59    32    63    1
60    33    34    1
61    34    35    1
62    34    36    1
63    34    37    1
64    35    64    1
65    35    65    1
66    35    66    1
67    36    67    1
68    37    38    1
69    37    39    1
70    39    40    1
71    39    68    1
72    39    69    1
73    40    41    1
@<TRIPOS>SUBSTRUCTURE
1   ZINC000008674218 1     RESIDUE    1   A     ZIN   1
