@<TRIPOS>MOLECULE
ZINC000001541570
53    54    1     0     0
SMALL
USER_CHARGES
@<TRIPOS>ATOM
1      C1     -0.0187    1.5258    0.0104 C.3      1 ZINC000001541570   -0.1500
2      C2      0.0021   -0.0041    0.0020 C.3      1 ZINC000001541570   -0.1300
3      C3     -1.4333   -0.5336    0.0129 C.3      1 ZINC000001541570   -0.1200
4      C4     -1.4126   -2.0635    0.0045 C.3      1 ZINC000001541570   -0.1200
5      C5     -2.8479   -2.5931    0.0153 C.3      1 ZINC000001541570   -0.1200
6      C6     -2.8272   -4.1229    0.0069 C.3      1 ZINC000001541570   -0.1200
7      C7     -4.2626   -4.6525    0.0178 C.3      1 ZINC000001541570   -0.1200
8      C8     -4.2418   -6.1823    0.0094 C.3      1 ZINC000001541570   -0.1200
9      C9     -5.6772   -6.7119    0.0202 C.3      1 ZINC000001541570    0.0600
10     O10    -5.6578   -8.1407    0.0124 O.3      1 ZINC000001541570   -0.3200
11     C11    -6.8610   -8.7746    0.0204 C.ar     1 ZINC000001541570    0.1200
12     C12    -8.0370   -8.0295    0.0299 C.ar     1 ZINC000001541570   -0.1800
13     C13    -9.2639   -8.6553    0.0377 C.ar     1 ZINC000001541570   -0.0800
14     C14    -9.3359  -10.0440    0.0362 C.ar     1 ZINC000001541570    0.0600
15     N15   -10.3862  -10.9376    0.0423 N.pl3    1 ZINC000001541570   -0.5900
16     C16    -9.9062  -12.2187    0.0371 C.2      1 ZINC000001541570    0.1000
17     C17    -8.5639  -12.2047    0.0276 C.2      1 ZINC000001541570   -0.2100
18     C18    -7.6553  -13.4069    0.0187 C.3      1 ZINC000001541570   -0.0600
19     C19    -7.2368  -13.7405    1.4521 C.3      1 ZINC000001541570   -0.0100
20     N20    -6.3510  -14.9124    1.4434 N.4      1 ZINC000001541570   -0.6400
21     H21    -6.8390  -15.6999    1.0436 H        1 ZINC000001541570    0.4300
22     H22    -5.5306  -14.7099    0.8920 H        1 ZINC000001541570    0.4400
23     H23    -6.0750  -15.1324    2.3886 H        1 ZINC000001541570    0.4400
24     C24    -8.1496  -10.7996    0.0267 C.ar     1 ZINC000001541570   -0.0600
25     C25    -6.9113  -10.1544    0.0135 C.ar     1 ZINC000001541570   -0.1300
26     H26     1.0039    1.9031    0.0027 H        1 ZINC000001541570    0.0500
27     H27    -0.5459    1.8868   -0.8726 H        1 ZINC000001541570    0.0500
28     H28    -0.5289    1.8773    0.9072 H        1 ZINC000001541570    0.0500
29     H29     0.5123   -0.3556   -0.8948 H        1 ZINC000001541570    0.0600
30     H30     0.5293   -0.3651    0.8851 H        1 ZINC000001541570    0.0600
31     H31    -1.9435   -0.1821    0.9097 H        1 ZINC000001541570    0.0600
32     H32    -1.9605   -0.1726   -0.8702 H        1 ZINC000001541570    0.0600
33     H33    -0.9024   -2.4150   -0.8923 H        1 ZINC000001541570    0.0600
34     H34    -0.8854   -2.4246    0.8875 H        1 ZINC000001541570    0.0600
35     H35    -3.3581   -2.2415    0.9121 H        1 ZINC000001541570    0.0600
36     H36    -3.3751   -2.2320   -0.8677 H        1 ZINC000001541570    0.0600
37     H37    -2.3170   -4.4744   -0.8899 H        1 ZINC000001541570    0.0600
38     H38    -2.3000   -4.4840    0.8900 H        1 ZINC000001541570    0.0600
39     H39    -4.7728   -4.3010    0.9146 H        1 ZINC000001541570    0.0700
40     H40    -4.7898   -4.2914   -0.8653 H        1 ZINC000001541570    0.0700
41     H41    -3.7316   -6.5338   -0.8874 H        1 ZINC000001541570    0.0700
42     H42    -3.7146   -6.5434    0.8924 H        1 ZINC000001541570    0.0700
43     H43    -6.1874   -6.3604    0.9170 H        1 ZINC000001541570    0.0600
44     H44    -6.2044   -6.3508   -0.8628 H        1 ZINC000001541570    0.0600
45     H45    -7.9868   -6.9507    0.0314 H        1 ZINC000001541570    0.1400
46     H46   -10.1699   -8.0675    0.0453 H        1 ZINC000001541570    0.1300
47     H47   -11.3251  -10.6942    0.0496 H        1 ZINC000001541570    0.4200
48     H48   -10.5169  -13.1095    0.0402 H        1 ZINC000001541570    0.1700
49     H49    -8.1824  -14.2576   -0.4132 H        1 ZINC000001541570    0.0900
50     H50    -6.7690  -13.1881   -0.5769 H        1 ZINC000001541570    0.0900
51     H51    -6.7096  -12.8898    1.8840 H        1 ZINC000001541570    0.1300
52     H52    -8.1230  -13.9593    2.0477 H        1 ZINC000001541570    0.1300
53     H53    -5.9984  -10.7313    0.0007 H        1 ZINC000001541570    0.1300
@<TRIPOS>BOND
1     1     2     1
2     1     26    1
3     1     27    1
4     1     28    1
5     2     3     1
6     2     29    1
7     2     30    1
8     3     4     1
9     3     31    1
10    3     32    1
11    4     5     1
12    4     33    1
13    4     34    1
14    5     6     1
15    5     35    1
16    5     36    1
17    6     7     1
18    6     37    1
19    6     38    1
20    7     8     1
21    7     39    1
22    7     40    1
23    8     9     1
24    8     41    1
25    8     42    1
26    9     10    1
27    9     43    1
28    9     44    1
29    10    11    1
30    11    25    ar
31    11    12    ar
32    12    13    ar
33    12    45    1
34    13    14    ar
35    13    46    1
36    14    24    ar
37    14    15    1
38    15    16    1
39    15    47    1
40    16    17    2
41    16    48    1
42    17    18    1
43    17    24    1
44    18    19    1
45    18    49    1
46    18    50    1
47    19    20    1
48    19    51    1
49    19    52    1
50    20    21    1
51    20    22    1
52    20    23    1
53    24    25    ar
54    25    53    1
@<TRIPOS>SUBSTRUCTURE
1   ZINC000001541570 1     RESIDUE    1   A     ZIN   1
