@<TRIPOS>MOLECULE
ZINC000003930629
72    75    1     0     0
SMALL
USER_CHARGES
@<TRIPOS>ATOM
1      C1     -0.0464    1.4936   -0.2320 C.3      1 ZINC000003930629   -0.1500
2      C2     -0.0126   -0.0348   -0.1699 C.3      1 ZINC000003930629   -0.1100
3      C3      0.6952   -0.4776    1.1122 C.3      1 ZINC000003930629   -0.0700
4      C4      0.7285   -1.9830    1.1734 C.ar     1 ZINC000003930629   -0.1200
5      C5     -0.3092   -2.6764    1.7763 C.ar     1 ZINC000003930629    0.1400
6      O6     -1.3580   -1.9993    2.3132 O.3      1 ZINC000003930629   -0.3000
7      C7     -2.3918   -2.7784    2.9185 C.3      1 ZINC000003930629    0.0600
8      C8     -3.4785   -1.8490    3.4627 C.3      1 ZINC000003930629   -0.1200
9      C9     -4.5853   -2.6832    4.1108 C.3      1 ZINC000003930629    0.0600
10     O10    -5.6003   -1.8153    4.6192 O.3      1 ZINC000003930629   -0.3000
11     C11    -6.6634   -2.4007    5.2303 C.ar     1 ZINC000003930629    0.1600
12     C12    -6.7224   -3.7818    5.3418 C.ar     1 ZINC000003930629   -0.2300
13     C13    -7.8044   -4.3806    5.9645 C.ar     1 ZINC000003930629    0.1600
14     O14    -7.8636   -5.7333    6.0751 O.3      1 ZINC000003930629   -0.4900
15     C15    -8.8359   -3.5892    6.4798 C.ar     1 ZINC000003930629   -0.1100
16     C16    -9.9974   -4.2243    7.1483 C.ar     1 ZINC000003930629   -0.0500
17     C17   -10.4165   -3.7735    8.3989 C.ar     1 ZINC000003930629   -0.0800
18     C18   -11.4976   -4.3673    9.0172 C.ar     1 ZINC000003930629   -0.1500
19     C19   -12.1663   -5.4102    8.3969 C.ar     1 ZINC000003930629    0.1000
20     F20   -13.2247   -5.9884    9.0057 F        1 ZINC000003930629   -0.1400
21     C21   -11.7533   -5.8615    7.1538 C.ar     1 ZINC000003930629   -0.1500
22     C22   -10.6767   -5.2699    6.5255 C.ar     1 ZINC000003930629   -0.0600
23     C23    -8.7689   -2.2023    6.3635 C.ar     1 ZINC000003930629   -0.0500
24     C24    -7.6850   -1.6139    5.7465 C.ar     1 ZINC000003930629   -0.1200
25     C25    -7.6142   -0.1137    5.6222 C.3      1 ZINC000003930629   -0.0800
26     C26    -8.1596    0.3113    4.2574 C.3      1 ZINC000003930629   -0.1500
27     C27    -0.2764   -4.0629    1.8310 C.ar     1 ZINC000003930629   -0.2200
28     C28     0.7895   -4.7520    1.2854 C.ar     1 ZINC000003930629   -0.0700
29     C29     1.8256   -4.0631    0.6841 C.ar     1 ZINC000003930629   -0.1600
30     C30     1.7947   -2.6771    0.6214 C.ar     1 ZINC000003930629    0.1300
31     O31     2.8135   -2.0002    0.0296 O.3      1 ZINC000003930629   -0.2100
32     C32     3.7850   -1.4888    0.8253 C.ar     1 ZINC000003930629    0.1500
33     C33     3.7907   -1.7664    2.1843 C.ar     1 ZINC000003930629   -0.2200
34     C34     4.7803   -1.2445    2.9933 C.ar     1 ZINC000003930629   -0.0900
35     C35     5.7742   -0.4415    2.4573 C.ar     1 ZINC000003930629   -0.1700
36     C36     5.7858   -0.1548    1.1100 C.ar     1 ZINC000003930629   -0.0500
37     C37     4.7931   -0.6806    0.2770 C.ar     1 ZINC000003930629   -0.1600
38     C38     4.7990   -0.3792   -1.1635 C.2      1 ZINC000003930629    0.5200
39     O39     5.6742    0.3333   -1.6357 O.co2    1 ZINC000003930629   -0.6900
40     O40     3.9287   -0.8412   -1.8886 O.co2    1 ZINC000003930629   -0.6700
41     H41     0.9728    1.8800   -0.2276 H        1 ZINC000003930629    0.0600
42     H42    -0.5506    1.8091   -1.1454 H        1 ZINC000003930629    0.0500
43     H43    -0.5854    1.8805    0.6327 H        1 ZINC000003930629    0.0500
44     H44    -1.0318   -0.4212   -0.1744 H        1 ZINC000003930629    0.0600
45     H45     0.5265   -0.4217   -1.0347 H        1 ZINC000003930629    0.0700
46     H46     1.7144   -0.0911    1.1166 H        1 ZINC000003930629    0.0700
47     H47     0.1561   -0.0907    1.9770 H        1 ZINC000003930629    0.0700
48     H48    -2.8249   -3.4477    2.1751 H        1 ZINC000003930629    0.0700
49     H49    -1.9730   -3.3655    3.7358 H        1 ZINC000003930629    0.0600
50     H50    -3.0454   -1.1798    4.2061 H        1 ZINC000003930629    0.0900
51     H51    -3.8974   -1.2620    2.6454 H        1 ZINC000003930629    0.0900
52     H52    -5.0184   -3.3525    3.3675 H        1 ZINC000003930629    0.0700
53     H53    -4.1665   -3.2703    4.9282 H        1 ZINC000003930629    0.0700
54     H54    -5.9244   -4.3903    4.9426 H        1 ZINC000003930629    0.1400
55     H55    -7.4595   -6.0800    6.8823 H        1 ZINC000003930629    0.3900
56     H56    -9.8956   -2.9609    8.8834 H        1 ZINC000003930629    0.1300
57     H57   -11.8228   -4.0190    9.9863 H        1 ZINC000003930629    0.1400
58     H58   -12.2775   -6.6747    6.6740 H        1 ZINC000003930629    0.1400
59     H59   -10.3554   -5.6224    5.5565 H        1 ZINC000003930629    0.1400
60     H60    -9.5637   -1.5881    6.7603 H        1 ZINC000003930629    0.1400
61     H61    -8.2108    0.3448    6.4107 H        1 ZINC000003930629    0.0700
62     H62    -6.5776    0.2101    5.7160 H        1 ZINC000003930629    0.0800
63     H63    -8.1084    1.3964    4.1674 H        1 ZINC000003930629    0.0600
64     H64    -7.5630   -0.1472    3.4688 H        1 ZINC000003930629    0.0600
65     H65    -9.1962   -0.0125    4.1635 H        1 ZINC000003930629    0.0500
66     H66    -1.0848   -4.6036    2.3007 H        1 ZINC000003930629    0.1300
67     H67     0.8133   -5.8308    1.3293 H        1 ZINC000003930629    0.1300
68     H68     2.6580   -4.6040    0.2586 H        1 ZINC000003930629    0.1300
69     H69     3.0197   -2.3914    2.6102 H        1 ZINC000003930629    0.1200
70     H70     4.7795   -1.4633    4.0510 H        1 ZINC000003930629    0.1100
71     H71     6.5435   -0.0380    3.0991 H        1 ZINC000003930629    0.1200
72     H72     6.5626    0.4716    0.6969 H        1 ZINC000003930629    0.1300
@<TRIPOS>BOND
1     1     2     1
2     1     41    1
3     1     42    1
4     1     43    1
5     2     3     1
6     2     44    1
7     2     45    1
8     3     4     1
9     3     46    1
10    3     47    1
11    4     30    ar
12    4     5     ar
13    5     6     1
14    5     27    ar
15    6     7     1
16    7     8     1
17    7     48    1
18    7     49    1
19    8     9     1
20    8     50    1
21    8     51    1
22    9     10    1
23    9     52    1
24    9     53    1
25    10    11    1
26    11    24    ar
27    11    12    ar
28    12    13    ar
29    12    54    1
30    13    14    1
31    13    15    ar
32    14    55    1
33    15    16    1
34    15    23    ar
35    16    22    ar
36    16    17    ar
37    17    18    ar
38    17    56    1
39    18    19    ar
40    18    57    1
41    19    20    1
42    19    21    ar
43    21    22    ar
44    21    58    1
45    22    59    1
46    23    24    ar
47    23    60    1
48    24    25    1
49    25    26    1
50    25    61    1
51    25    62    1
52    26    63    1
53    26    64    1
54    26    65    1
55    27    28    ar
56    27    66    1
57    28    29    ar
58    28    67    1
59    29    30    ar
60    29    68    1
61    30    31    1
62    31    32    1
63    32    37    ar
64    32    33    ar
65    33    34    ar
66    33    69    1
67    34    35    ar
68    34    70    1
69    35    36    ar
70    35    71    1
71    36    37    ar
72    36    72    1
73    37    38    1
74    38    39    ar
75    38    40    ar
@<TRIPOS>SUBSTRUCTURE
1   ZINC000003930629 1     RESIDUE    1   A     ZIN   1
