@<TRIPOS>MOLECULE
ZINC000095579919
56    60    1     0     0
SMALL
USER_CHARGES
@<TRIPOS>ATOM
1      C1      0.0491    0.1564   -2.3201 C.3      1 ZINC000095579919   -0.0700
2      C2      0.1920   -0.4586   -0.9517 C.2      1 ZINC000095579919    0.0300
3      N3      0.3842    0.1904    0.1683 N.2      1 ZINC000095579919   -0.2700
4      N4      0.4639   -0.6209    1.1609 N.pl3    1 ZINC000095579919   -0.2500
5      C5      0.6757   -0.2293    2.5566 C.3      1 ZINC000095579919    0.0800
6      C6      0.3205   -1.9047    0.7165 C.2      1 ZINC000095579919   -0.0500
7      C7      0.3490   -3.1295    1.5312 C.2      1 ZINC000095579919    0.6000
8      O8      0.4475   -3.0530    2.7412 O.2      1 ZINC000095579919   -0.5100
9      N9      0.2659   -4.3363    0.9368 N.am     1 ZINC000095579919   -0.6400
10     C10     0.2431   -5.4984    1.7141 C.ar     1 ZINC000095579919    0.1600
11     C11     0.1592   -5.4082    3.0963 C.ar     1 ZINC000095579919   -0.1500
12     C12     0.1369   -6.5628    3.8635 C.ar     1 ZINC000095579919    0.0900
13     O13     0.0544   -6.4781    5.2173 O.3      1 ZINC000095579919   -0.2200
14     C14    -1.1406   -6.1356    5.7627 C.2      1 ZINC000095579919    0.3400
15     N15    -2.1938   -6.0138    4.9911 N.2      1 ZINC000095579919   -0.3100
16     N16    -3.4348   -5.6619    5.5312 N.pl3    1 ZINC000095579919   -0.2400
17     C17    -4.6654   -5.4697    4.9764 C.2      1 ZINC000095579919   -0.0200
18     C18    -5.5137   -5.1369    5.9871 C.2      1 ZINC000095579919    0.2600
19     N19    -6.8799   -4.8549    5.8512 N.am     1 ZINC000095579919   -0.6300
20     C20    -7.4600   -4.9020    4.6356 C.2      1 ZINC000095579919    0.5500
21     O21    -6.7998   -5.1883    3.6592 O.2      1 ZINC000095579919   -0.5200
22     C22    -8.9289   -4.5988    4.4895 C.3      1 ZINC000095579919   -0.1900
23     C23    -9.3153   -3.3121    3.7575 C.3      1 ZINC000095579919   -0.1500
24     C24    -9.5283   -4.6690    3.0836 C.3      1 ZINC000095579919   -0.1400
25     N25    -4.8235   -5.1250    7.1310 N.2      1 ZINC000095579919   -0.4700
26     C26    -3.5594   -5.4407    6.8782 C.2      1 ZINC000095579919    0.1600
27     C27    -2.4272   -5.5717    7.7044 C.2      1 ZINC000095579919    0.0200
28     C28    -1.2355   -5.9214    7.1482 C.2      1 ZINC000095579919   -0.1700
29     C29     0.1985   -7.8052    3.2480 C.ar     1 ZINC000095579919   -0.1200
30     C30     0.2820   -7.8930    1.8713 C.ar     1 ZINC000095579919   -0.0800
31     C31     0.2987   -6.7452    1.1031 C.ar     1 ZINC000095579919   -0.1100
32     C32     0.3894   -6.8449   -0.3979 C.3      1 ZINC000095579919   -0.1200
33     C33     0.1366   -1.8218   -0.6530 C.2      1 ZINC000095579919   -0.1800
34     H34    -1.0011    0.3761   -2.5119 H        1 ZINC000095579919    0.0800
35     H35     0.6277    1.0790   -2.3660 H        1 ZINC000095579919    0.0700
36     H36     0.4176   -0.5413   -3.0722 H        1 ZINC000095579919    0.0800
37     H37    -0.2786    0.0461    3.0055 H        1 ZINC000095579919    0.0900
38     H38     1.1084   -1.0648    3.1067 H        1 ZINC000095579919    0.1100
39     H39     1.3549    0.6223    2.5959 H        1 ZINC000095579919    0.1000
40     H40     0.2219   -4.3986   -0.0302 H        1 ZINC000095579919    0.4200
41     H41     0.1117   -4.4405    3.5735 H        1 ZINC000095579919    0.1900
42     H42    -4.9193   -5.5636    3.9309 H        1 ZINC000095579919    0.2100
43     H43    -7.4078   -4.6260    6.6321 H        1 ZINC000095579919    0.4200
44     H44    -9.5589   -4.9135    5.3215 H        1 ZINC000095579919    0.1300
45     H45   -10.1996   -2.7798    4.1079 H        1 ZINC000095579919    0.1100
46     H46    -8.5070   -2.6848    3.3816 H        1 ZINC000095579919    0.1000
47     H47    -8.8602   -4.9345    2.2643 H        1 ZINC000095579919    0.1100
48     H48   -10.5528   -5.0295    2.9906 H        1 ZINC000095579919    0.1100
49     H49    -2.5045   -5.4014    8.7680 H        1 ZINC000095579919    0.1700
50     H50    -0.3594   -6.0252    7.7712 H        1 ZINC000095579919    0.1700
51     H51     0.1815   -8.7046    3.8457 H        1 ZINC000095579919    0.1300
52     H52     0.3298   -8.8611    1.3949 H        1 ZINC000095579919    0.1400
53     H53    -0.6143   -6.8944   -0.8200 H        1 ZINC000095579919    0.0800
54     H54     0.9056   -5.9685   -0.7897 H        1 ZINC000095579919    0.0600
55     H55     0.9425   -7.7440   -0.6695 H        1 ZINC000095579919    0.0800
56     H56    -0.0110   -2.6382   -1.3444 H        1 ZINC000095579919    0.1600
@<TRIPOS>BOND
1     1     2     1
2     1     34    1
3     1     35    1
4     1     36    1
5     2     33    1
6     2     3     2
7     3     4     1
8     4     5     1
9     4     6     1
10    5     37    1
11    5     38    1
12    5     39    1
13    6     7     1
14    6     33    2
15    7     8     2
16    7     9     am
17    9     10    1
18    9     40    1
19    10    31    ar
20    10    11    ar
21    11    12    ar
22    11    41    1
23    12    13    1
24    12    29    ar
25    13    14    1
26    14    28    1
27    14    15    2
28    15    16    1
29    16    26    1
30    16    17    1
31    17    18    2
32    17    42    1
33    18    19    1
34    18    25    1
35    19    20    am
36    19    43    1
37    20    21    2
38    20    22    1
39    22    24    1
40    22    23    1
41    22    44    1
42    23    24    1
43    23    45    1
44    23    46    1
45    24    47    1
46    24    48    1
47    25    26    2
48    26    27    1
49    27    28    2
50    27    49    1
51    28    50    1
52    29    30    ar
53    29    51    1
54    30    31    ar
55    30    52    1
56    31    32    1
57    32    53    1
58    32    54    1
59    32    55    1
60    33    56    1
@<TRIPOS>SUBSTRUCTURE
1   ZINC000095579919 1     RESIDUE    1   A     ZIN   1
