@<TRIPOS>MOLECULE
ZINC000038467831
60    63    1     0     0
SMALL
USER_CHARGES
@<TRIPOS>ATOM
1      C1     -0.0187    1.5258    0.0104 C.3      1 ZINC000038467831   -0.1400
2      C2      0.0021   -0.0041    0.0020 C.3      1 ZINC000038467831   -0.0200
3      C3     -1.4352   -0.5281    0.0266 C.3      1 ZINC000038467831   -0.1400
4      C4      0.6931   -0.4912   -1.2698 C.3      1 ZINC000038467831   -0.1100
5      C5      0.8970   -2.0068   -1.1593 C.3      1 ZINC000038467831   -0.1100
6      C6      1.9597   -2.2737   -0.0956 C.3      1 ZINC000038467831   -0.0200
7      C7      2.0288   -3.7766    0.1825 C.3      1 ZINC000038467831   -0.1400
8      C8      3.3186   -1.7926   -0.6082 C.3      1 ZINC000038467831   -0.1400
9      C9      1.6256   -1.5469    1.1815 C.ar     1 ZINC000038467831   -0.0800
10     C10     2.2564   -1.9693    2.3467 C.ar     1 ZINC000038467831   -0.0900
11     C11     2.0038   -1.3489    3.5489 C.ar     1 ZINC000038467831   -0.1100
12     C12     2.6940   -1.8178    4.8038 C.3      1 ZINC000038467831    0.1700
13     N13     1.8296   -2.7654    5.5116 N.pl3    1 ZINC000038467831   -0.3700
14     C14     2.1657   -4.0161    5.8908 C.2      1 ZINC000038467831    0.0500
15     C15     1.0945   -4.5603    6.5132 C.2      1 ZINC000038467831   -0.2700
16     C16     0.0686   -3.6096    6.5144 C.2      1 ZINC000038467831    0.0400
17     N17     0.5101   -2.5311    5.9196 N.2      1 ZINC000038467831   -0.2700
18     C18     1.1036   -0.2809    3.5988 C.ar     1 ZINC000038467831    0.0000
19     C19     0.8248    0.3968    4.8768 C.2      1 ZINC000038467831   -0.1200
20     C20    -0.0420    1.4234    4.9181 C.2      1 ZINC000038467831   -0.0800
21     C21    -0.3205    2.1004    6.1947 C.ar     1 ZINC000038467831   -0.0800
22     C22     0.3216    1.6791    7.3649 C.ar     1 ZINC000038467831   -0.1200
23     C23     0.0636    2.3074    8.5491 C.ar     1 ZINC000038467831   -0.0900
24     C24    -0.8430    3.3729    8.5930 C.ar     1 ZINC000038467831   -0.1200
25     C25    -1.1209    4.0510    9.8704 C.2      1 ZINC000038467831    0.5200
26     O26    -0.5594    3.6830   10.8931 O.co2    1 ZINC000038467831   -0.6900
27     O27    -1.9134    4.9823    9.9088 O.co2    1 ZINC000038467831   -0.6900
28     C28    -1.4851    3.7942    7.4228 C.ar     1 ZINC000038467831   -0.0900
29     C29    -1.2232    3.1694    6.2377 C.ar     1 ZINC000038467831   -0.1200
30     C30     0.4718    0.1380    2.4277 C.ar     1 ZINC000038467831   -0.1200
31     C31     0.7317   -0.4977    1.2243 C.ar     1 ZINC000038467831   -0.0500
32     H32     1.0039    1.9031    0.0027 H        1 ZINC000038467831    0.0600
33     H33    -0.5459    1.8868   -0.8726 H        1 ZINC000038467831    0.0600
34     H34    -0.5289    1.8773    0.9072 H        1 ZINC000038467831    0.0600
35     H35    -1.9693   -0.1651   -0.8515 H        1 ZINC000038467831    0.0600
36     H36    -1.4247   -1.6180    0.0207 H        1 ZINC000038467831    0.0600
37     H37    -1.9355   -0.1744    0.9281 H        1 ZINC000038467831    0.0600
38     H38     0.0697   -0.2668   -2.1353 H        1 ZINC000038467831    0.0700
39     H39     1.6593    0.0024   -1.3747 H        1 ZINC000038467831    0.0700
40     H40    -0.0398   -2.4831   -0.8700 H        1 ZINC000038467831    0.0700
41     H41     1.2300   -2.4033   -2.1185 H        1 ZINC000038467831    0.0700
42     H42     2.2897   -4.3043   -0.7349 H        1 ZINC000038467831    0.0600
43     H43     2.7865   -3.9712    0.9415 H        1 ZINC000038467831    0.0600
44     H44     1.0595   -4.1251    0.5390 H        1 ZINC000038467831    0.0600
45     H45     3.2707   -0.7237   -0.8166 H        1 ZINC000038467831    0.0600
46     H46     4.0800   -1.9814    0.1485 H        1 ZINC000038467831    0.0500
47     H47     3.5732   -2.3298   -1.5218 H        1 ZINC000038467831    0.0600
48     H48     2.9524   -2.7942    2.3078 H        1 ZINC000038467831    0.1200
49     H49     3.6318   -2.3076    4.5413 H        1 ZINC000038467831    0.1000
50     H50     2.8987   -0.9622    5.4473 H        1 ZINC000038467831    0.0900
51     H51     3.1188   -4.4968    5.7266 H        1 ZINC000038467831    0.1700
52     H52     1.0409   -5.5535    6.9341 H        1 ZINC000038467831    0.1400
53     H53    -0.9163   -3.7412    6.9376 H        1 ZINC000038467831    0.1800
54     H54     1.3169    0.0689    5.7806 H        1 ZINC000038467831    0.1200
55     H55    -0.5341    1.7514    4.0144 H        1 ZINC000038467831    0.1100
56     H56     1.0209    0.8567    7.3311 H        1 ZINC000038467831    0.1100
57     H57     0.5588    1.9821    9.4521 H        1 ZINC000038467831    0.1300
58     H58    -2.1847    4.6163    7.4568 H        1 ZINC000038467831    0.1300
59     H59    -1.7184    3.4946    5.3347 H        1 ZINC000038467831    0.1100
60     H60    -0.2247    0.9629    2.4594 H        1 ZINC000038467831    0.1300
@<TRIPOS>BOND
1     1     2     1
2     1     32    1
3     1     33    1
4     1     34    1
5     2     31    1
6     2     3     1
7     2     4     1
8     3     35    1
9     3     36    1
10    3     37    1
11    4     5     1
12    4     38    1
13    4     39    1
14    5     6     1
15    5     40    1
16    5     41    1
17    6     7     1
18    6     8     1
19    6     9     1
20    7     42    1
21    7     43    1
22    7     44    1
23    8     45    1
24    8     46    1
25    8     47    1
26    9     31    ar
27    9     10    ar
28    10    11    ar
29    10    48    1
30    11    12    1
31    11    18    ar
32    12    13    1
33    12    49    1
34    12    50    1
35    13    17    1
36    13    14    1
37    14    15    2
38    14    51    1
39    15    16    1
40    15    52    1
41    16    17    2
42    16    53    1
43    18    19    1
44    18    30    ar
45    19    20    2
46    19    54    1
47    20    21    1
48    20    55    1
49    21    29    ar
50    21    22    ar
51    22    23    ar
52    22    56    1
53    23    24    ar
54    23    57    1
55    24    25    1
56    24    28    ar
57    25    26    ar
58    25    27    ar
59    28    29    ar
60    28    58    1
61    29    59    1
62    30    31    ar
63    30    60    1
@<TRIPOS>SUBSTRUCTURE
1   ZINC000038467831 1     RESIDUE    1   A     ZIN   1
