@<TRIPOS>MOLECULE
ZINC000000003771
  31   32    0    0    0
SMALL
USER_CHARGES
NO_NAME
@<TRIPOS>ATOM
    1 C1       -0.0176     1.4478     0.0100 C.3    1 <0>       0.0300
    2 O2        0.0021    -0.0041     0.0020 O.3    1 <0>      -0.3600
    3 C3        0.6181    -0.6108     1.0287 C.2    1 <0>       0.4600
    4 O4        1.1242     0.0494     1.9050 O.2    1 <0>      -0.5000
    5 C5        0.6786    -2.1154     1.0883 C.3    1 <0>      -0.0400
    6 H6       -0.3336    -2.5190     1.1129 H      1 <0>       0.1200
    7 C7        1.4093    -2.6458    -0.1468 C.3    1 <0>      -0.1400
    8 C8        1.4189    -2.5395     2.3306 C.ar   1 <0>      -0.0800
    9 C9        2.7286    -2.1383     2.5230 C.ar   1 <0>      -0.0800
   10 C10       3.4113    -2.5238     3.6589 C.ar   1 <0>      -0.1100
   11 C11       2.7787    -3.3187     4.6128 C.ar   1 <0>      -0.0200
   12 C12       3.5073    -3.7359     5.8361 C.2    1 <0>      -0.0600
   13 C13       4.7794    -3.3743     6.0851 C.2    1 <0>      -0.2100
   14 S14       5.2947    -4.0565     7.6218 S.3    1 <0>       0.1100
   15 C15       3.7247    -4.8134     7.8527 C.2    1 <0>      -0.2100
   16 C16       2.9289    -4.5296     6.8249 C.2    1 <0>      -0.1300
   17 C17       1.4591    -3.7200     4.4137 C.ar   1 <0>      -0.1100
   18 C18       0.7842    -3.3239     3.2769 C.ar   1 <0>      -0.1000
   19 H19       1.0050     1.8251     0.0023 H      1 <0>       0.0600
   20 H20      -0.5448     1.8089    -0.8731 H      1 <0>       0.1000
   21 H21      -0.5278     1.7993     0.9068 H      1 <0>       0.0600
   22 H22       0.8739    -2.3391    -1.0453 H      1 <0>       0.0700
   23 H23       2.4216    -2.2422    -0.1714 H      1 <0>       0.0600
   24 H24       1.4531    -3.7341    -0.1037 H      1 <0>       0.0800
   25 H25       3.2180    -1.5226     1.7829 H      1 <0>       0.1200
   26 H26       4.4340    -2.2103     3.8079 H      1 <0>       0.1200
   27 H27       5.3900    -2.7596     5.4403 H      1 <0>       0.1700
   28 H28       3.4463    -5.4160     8.7046 H      1 <0>       0.1700
   29 H29       1.9139    -4.8928     6.7585 H      1 <0>       0.1400
   30 H30       0.9641    -4.3361     5.1498 H      1 <0>       0.1300
   31 H31      -0.2386    -3.6340     3.1217 H      1 <0>       0.1300
@<TRIPOS>BOND
   1    1    2 1
   2    1   19 1
   3    1   20 1
   4    1   21 1
   5    2    3 1
   6    3    4 2
   7    3    5 1
   8    5    6 1
   9    5    7 1
  10    5    8 1
  11    7   22 1
  12    7   23 1
  13    7   24 1
  14    8   18 ar
  15    8    9 ar
  16    9   10 ar
  17    9   25 1
  18   10   11 ar
  19   10   26 1
  20   11   12 1
  21   11   17 ar
  22   12   16 1
  23   12   13 2
  24   13   14 1
  25   13   27 1
  26   14   15 1
  27   15   16 2
  28   15   28 1
  29   16   29 1
  30   17   18 ar
  31   17   30 1
  32   18   31 1
