@<TRIPOS>MOLECULE
ZINC000000607814
35    37    1     0     0
SMALL
USER_CHARGES
@<TRIPOS>ATOM
1      N1      2.5439    1.6489   -0.4407 N.1      1 ZINC000000607814   -0.4000
2      C2      1.4278    1.5698   -0.2443 C.1      1 ZINC000000607814    0.2100
3      C3     -0.0184    1.4675    0.0102 C.3      1 ZINC000000607814    0.1000
4      H4     -0.2814    2.0884    0.8666 H        1 ZINC000000607814    0.1500
5      C5     -0.3770    0.0329    0.3009 C.ar     1 ZINC000000607814   -0.0700
6      C6     -0.2140   -0.9316   -0.6760 C.ar     1 ZINC000000607814   -0.0900
7      C7     -0.5427   -2.2474   -0.4100 C.ar     1 ZINC000000607814   -0.1000
8      C8     -1.0349   -2.5993    0.8342 C.ar     1 ZINC000000607814   -0.0300
9      Cl9    -1.4475   -4.2520    1.1692 Cl       1 ZINC000000607814   -0.0700
10     C10    -1.1978   -1.6336    1.8114 C.ar     1 ZINC000000607814   -0.1100
11     C11    -0.8634   -0.3190    1.5461 C.ar     1 ZINC000000607814   -0.0900
12     C12    -0.7767    1.9387   -1.2038 C.ar     1 ZINC000000607814   -0.0600
13     C13    -2.0320    1.4243   -1.4768 C.ar     1 ZINC000000607814    0.0000
14     Cl14   -2.7311    0.2371   -0.4206 Cl       1 ZINC000000607814   -0.0100
15     C15    -2.7299    1.8551   -2.5894 C.ar     1 ZINC000000607814   -0.0800
16     C16    -2.1700    2.8049   -3.4340 C.ar     1 ZINC000000607814    0.1900
17     N17    -2.8746    3.2432   -4.5610 N.am     1 ZINC000000607814   -0.4000
18     N18    -2.2361    3.2728   -5.8065 N.2      1 ZINC000000607814   -0.1700
19     C19    -2.8875    3.6799   -6.8610 C.2      1 ZINC000000607814    0.0700
20     C20    -4.2839    4.1004   -6.7166 C.2      1 ZINC000000607814    0.5200
21     O21    -4.9150    4.4843   -7.6840 O.2      1 ZINC000000607814   -0.4700
22     N22    -4.8613    4.0564   -5.4980 N.am     1 ZINC000000607814   -0.6500
23     C23    -4.1578    3.6253   -4.4342 C.2      1 ZINC000000607814    0.6800
24     O24    -4.6879    3.5896   -3.3405 O.2      1 ZINC000000607814   -0.5100
25     C25    -0.9098    3.3192   -3.1579 C.ar     1 ZINC000000607814   -0.0800
26     C26    -0.2188    2.8894   -2.0406 C.ar     1 ZINC000000607814   -0.0100
27     Cl27    1.3562    3.5322   -1.6945 Cl       1 ZINC000000607814   -0.0200
28     H28     0.1699   -0.6567   -1.6473 H        1 ZINC000000607814    0.1300
29     H29    -0.4157   -3.0008   -1.1734 H        1 ZINC000000607814    0.1400
30     H30    -1.5823   -1.9076    2.7828 H        1 ZINC000000607814    0.1400
31     H31    -0.9902    0.4348    2.3090 H        1 ZINC000000607814    0.1400
32     H32    -3.7096    1.4533   -2.8020 H        1 ZINC000000607814    0.1500
33     H33    -2.4045    3.7070   -7.8266 H        1 ZINC000000607814    0.2300
34     H34    -5.7848    4.3323   -5.3890 H        1 ZINC000000607814    0.4400
35     H35    -0.4719    4.0576   -3.8133 H        1 ZINC000000607814    0.1500
@<TRIPOS>BOND
1     1     2     3
2     2     3     1
3     3     4     1
4     3     5     1
5     3     12    1
6     5     11    ar
7     5     6     ar
8     6     7     ar
9     6     28    1
10    7     8     ar
11    7     29    1
12    8     9     1
13    8     10    ar
14    10    11    ar
15    10    30    1
16    11    31    1
17    12    26    ar
18    12    13    ar
19    13    14    1
20    13    15    ar
21    15    16    ar
22    15    32    1
23    16    17    1
24    16    25    ar
25    17    23    am
26    17    18    1
27    18    19    2
28    19    20    1
29    19    33    1
30    20    21    2
31    20    22    am
32    22    23    am
33    22    34    1
34    23    24    2
35    25    26    ar
36    25    35    1
37    26    27    1
@<TRIPOS>SUBSTRUCTURE
1   ZINC000000607814 1     RESIDUE    1   A     ZIN   1
