@<TRIPOS>MOLECULE
ZINC000053122860
57    60    1     0     0
SMALL
USER_CHARGES
@<TRIPOS>ATOM
1      O1      0.0021   -0.0041    0.0020 O.2      1 ZINC000053122860   -0.5200
2      C2     -0.0144    1.2115    0.0087 C.2      1 ZINC000053122860    0.5700
3      N3      1.1435    1.9012    0.0014 N.am     1 ZINC000053122860   -0.7300
4      C4      2.4220    1.1860   -0.0147 C.3      1 ZINC000053122860    0.1000
5      C5      3.5713    2.1960   -0.0202 C.3      1 ZINC000053122860   -0.0200
6      N6      4.8532    1.4789   -0.0363 N.4      1 ZINC000053122860   -0.3800
7      H7      4.8876    0.8344    0.7392 H        1 ZINC000053122860    0.4200
8      C8      5.9549    2.4434    0.0797 C.3      1 ZINC000053122860    0.0000
9      C9      7.2899    1.6954    0.0820 C.3      1 ZINC000053122860    0.0300
10     N10     7.4190    0.9257   -1.1634 N.3      1 ZINC000053122860   -0.4800
11     C11     8.6539    0.2694   -1.2218 C.ar     1 ZINC000053122860    0.0700
12     C12     8.9928   -0.6605   -0.2493 C.ar     1 ZINC000053122860   -0.1500
13     C13    10.2125   -1.3084   -0.3067 C.ar     1 ZINC000053122860   -0.1000
14     C14    11.0982   -1.0313   -1.3302 C.ar     1 ZINC000053122860   -0.1000
15     C15    10.7679   -0.1012   -2.3073 C.ar     1 ZINC000053122860    0.0600
16     C16     9.5414    0.5451   -2.2594 C.ar     1 ZINC000053122860    0.0800
17     O17     9.1944    1.4552   -3.2118 O.3      1 ZINC000053122860   -0.2900
18     C18    10.2566    1.9866   -4.0113 C.3      1 ZINC000053122860    0.0300
19     C19    11.1440    0.8203   -4.4672 C.3      1 ZINC000053122860    0.0500
20     H20    10.5533    0.1164   -5.0536 H        1 ZINC000053122860    0.1000
21     C21    12.3017    1.3531   -5.3139 C.3      1 ZINC000053122860    0.0800
22     O22    13.0572    0.2562   -5.8317 O.3      1 ZINC000053122860   -0.5600
23     O23    11.6554    0.1617   -3.3054 O.3      1 ZINC000053122860   -0.2900
24     C24     6.3090   -0.0271   -1.3056 C.3      1 ZINC000053122860    0.0300
25     C25     4.9822    0.7354   -1.2965 C.3      1 ZINC000053122860   -0.0100
26     C26    -1.3036    1.9326    0.0187 C.ar     1 ZINC000053122860   -0.1600
27     C27    -1.3255    3.3290    0.0206 C.ar     1 ZINC000053122860   -0.0600
28     C28    -2.5312    3.9969    0.0295 C.ar     1 ZINC000053122860   -0.1600
29     C29    -3.7209    3.2848    0.0366 C.ar     1 ZINC000053122860    0.1400
30     F30    -4.9000    3.9444    0.0453 F        1 ZINC000053122860   -0.1300
31     C31    -3.7050    1.8984    0.0343 C.ar     1 ZINC000053122860   -0.1600
32     C32    -2.5049    1.2205    0.0206 C.ar     1 ZINC000053122860   -0.0200
33     H33     1.1303    2.8711    0.0067 H        1 ZINC000053122860    0.4100
34     H34     2.4967    0.5554    0.8712 H        1 ZINC000053122860    0.0900
35     H35     2.4797    0.5650   -0.9086 H        1 ZINC000053122860    0.0900
36     H36     3.4965    2.8266   -0.9062 H        1 ZINC000053122860    0.1400
37     H37     3.5135    2.8170    0.8737 H        1 ZINC000053122860    0.1400
38     H38     5.9256    3.1318   -0.7648 H        1 ZINC000053122860    0.1400
39     H39     5.8509    3.0037    1.0089 H        1 ZINC000053122860    0.1400
40     H40     8.1082    2.4119    0.1531 H        1 ZINC000053122860    0.1300
41     H41     7.3251    1.0168    0.9342 H        1 ZINC000053122860    0.0700
42     H42     8.3033   -0.8780    0.5531 H        1 ZINC000053122860    0.1300
43     H43    10.4740   -2.0326    0.4505 H        1 ZINC000053122860    0.1400
44     H44    12.0504   -1.5392   -1.3704 H        1 ZINC000053122860    0.1400
45     H45     9.8424    2.4955   -4.8817 H        1 ZINC000053122860    0.1300
46     H46    10.8460    2.6879   -3.4206 H        1 ZINC000053122860    0.0800
47     H47    11.9059    1.9438   -6.1400 H        1 ZINC000053122860    0.0800
48     H48    12.9460    1.9785   -4.6959 H        1 ZINC000053122860    0.0600
49     H49    13.8090    0.5203   -6.3795 H        1 ZINC000053122860    0.3900
50     H50     6.4116   -0.5673   -2.2468 H        1 ZINC000053122860    0.1300
51     H51     6.3280   -0.7341   -0.4762 H        1 ZINC000053122860    0.0700
52     H52     4.1568    0.0294   -1.3876 H        1 ZINC000053122860    0.1400
53     H53     4.9581    1.4325   -2.1341 H        1 ZINC000053122860    0.1400
54     H54    -0.3993    3.8845    0.0154 H        1 ZINC000053122860    0.1300
55     H55    -2.5492    5.0767    0.0313 H        1 ZINC000053122860    0.1500
56     H56    -4.6346    1.3486    0.0395 H        1 ZINC000053122860    0.1500
57     H57    -2.4936    0.1406    0.0185 H        1 ZINC000053122860    0.1500
@<TRIPOS>BOND
1     1     2     2
2     2     3     am
3     2     26    1
4     3     4     1
5     3     33    1
6     4     5     1
7     4     34    1
8     4     35    1
9     5     6     1
10    5     36    1
11    5     37    1
12    6     7     1
13    6     25    1
14    6     8     1
15    8     9     1
16    8     38    1
17    8     39    1
18    9     10    1
19    9     40    1
20    9     41    1
21    10    11    1
22    10    24    1
23    11    16    ar
24    11    12    ar
25    12    13    ar
26    12    42    1
27    13    14    ar
28    13    43    1
29    14    15    ar
30    14    44    1
31    15    23    1
32    15    16    ar
33    16    17    1
34    17    18    1
35    18    19    1
36    18    45    1
37    18    46    1
38    19    20    1
39    19    21    1
40    19    23    1
41    21    22    1
42    21    47    1
43    21    48    1
44    22    49    1
45    24    25    1
46    24    50    1
47    24    51    1
48    25    52    1
49    25    53    1
50    26    32    ar
51    26    27    ar
52    27    28    ar
53    27    54    1
54    28    29    ar
55    28    55    1
56    29    30    1
57    29    31    ar
58    31    32    ar
59    31    56    1
60    32    57    1
@<TRIPOS>SUBSTRUCTURE
1   ZINC000053122860 1     RESIDUE    1   A     ZIN   1
