@<TRIPOS>MOLECULE
ZINC000000009070
35    37    1     0     0
SMALL
USER_CHARGES
@<TRIPOS>ATOM
1      O1      0.0693    0.0246    0.2579 O.2      1 ZINC000000009070   -0.5300
2      C2     -0.0144    1.2117    0.0087 C.2      1 ZINC000000009070    0.5700
3      C3      1.1896    2.0639    0.0629 C.ar     1 ZINC000000009070   -0.1300
4      C4      1.1185    3.3420    0.6215 C.ar     1 ZINC000000009070   -0.0800
5      C5      2.2435    4.1356    0.6696 C.ar     1 ZINC000000009070   -0.1200
6      C6      3.4513    3.6700    0.1639 C.ar     1 ZINC000000009070    0.0800
7      O7      4.5467    4.4738    0.2143 O.3      1 ZINC000000009070   -0.3000
8      C8      5.8189    3.8410    0.0408 C.3      1 ZINC000000009070    0.0200
9      C9      5.7240    2.8914   -1.1611 C.3      1 ZINC000000009070    0.0200
10     O10     4.7064    1.9223   -0.8870 O.3      1 ZINC000000009070   -0.3000
11     C11     3.5296    2.3949   -0.3916 C.ar     1 ZINC000000009070    0.0500
12     C12     2.4050    1.5922   -0.4392 C.ar     1 ZINC000000009070   -0.0600
13     N13    -1.2055    1.7483   -0.3225 N.am     1 ZINC000000009070   -0.6100
14     C14    -1.3011    3.1491   -0.7553 C.3      1 ZINC000000009070    0.1000
15     C15    -2.0252    3.2001   -2.1043 C.3      1 ZINC000000009070   -0.1400
16     C16    -3.3736    2.4865   -1.9822 C.3      1 ZINC000000009070   -0.1200
17     C17    -3.1446    1.0193   -1.6121 C.3      1 ZINC000000009070   -0.1400
18     C18    -2.4323    0.9419   -0.2633 C.3      1 ZINC000000009070    0.1100
19     H19     0.1818    3.7081    1.0152 H        1 ZINC000000009070    0.1400
20     H20     2.1866    5.1237    1.1018 H        1 ZINC000000009070    0.1400
21     H21     6.5824    4.5960   -0.1467 H        1 ZINC000000009070    0.1300
22     H22     6.0732    3.2751    0.9370 H        1 ZINC000000009070    0.0800
23     H23     5.4625    3.4561   -2.0560 H        1 ZINC000000009070    0.0800
24     H24     6.6799    2.3890   -1.3090 H        1 ZINC000000009070    0.1300
25     H25     2.4652    0.6026   -0.8677 H        1 ZINC000000009070    0.1400
26     H26    -1.8626    3.7221   -0.0173 H        1 ZINC000000009070    0.0700
27     H27    -0.3004    3.5678   -0.8617 H        1 ZINC000000009070    0.1000
28     H28    -2.1880    4.2391   -2.3908 H        1 ZINC000000009070    0.0800
29     H29    -1.4184    2.7041   -2.8619 H        1 ZINC000000009070    0.0700
30     H30    -3.9702    2.9677   -1.2072 H        1 ZINC000000009070    0.0700
31     H31    -3.9017    2.5427   -2.9341 H        1 ZINC000000009070    0.0700
32     H32    -4.1041    0.5062   -1.5482 H        1 ZINC000000009070    0.0800
33     H33    -2.5273    0.5439   -2.3743 H        1 ZINC000000009070    0.0700
34     H34    -2.1793   -0.0951   -0.0427 H        1 ZINC000000009070    0.0900
35     H35    -3.0838    1.3352    0.5171 H        1 ZINC000000009070    0.0700
@<TRIPOS>BOND
1     1     2     2
2     2     3     1
3     2     13    am
4     3     12    ar
5     3     4     ar
6     4     5     ar
7     4     19    1
8     5     6     ar
9     5     20    1
10    6     11    ar
11    6     7     1
12    7     8     1
13    8     9     1
14    8     21    1
15    8     22    1
16    9     10    1
17    9     23    1
18    9     24    1
19    10    11    1
20    11    12    ar
21    12    25    1
22    13    18    1
23    13    14    1
24    14    15    1
25    14    26    1
26    14    27    1
27    15    16    1
28    15    28    1
29    15    29    1
30    16    17    1
31    16    30    1
32    16    31    1
33    17    18    1
34    17    32    1
35    17    33    1
36    18    34    1
37    18    35    1
@<TRIPOS>SUBSTRUCTURE
1   ZINC000000009070 1     RESIDUE    1   A     ZIN   1
