@<TRIPOS>MOLECULE
ZINC000095830588
35    36    1     0     0
SMALL
USER_CHARGES
@<TRIPOS>ATOM
1      N1     -0.1830   -1.2153    0.1145 N.1      1 ZINC000095830588   -0.3800
2      C2     -0.1612   -0.0796    0.1004 C.1      1 ZINC000095830588    0.2300
3      C3     -0.1337    1.3520    0.0826 C.ar     1 ZINC000095830588    0.0200
4      C4     -0.2638    2.0700    1.2749 C.ar     1 ZINC000095830588   -0.0600
5      C5     -0.2370    3.4463    1.2542 C.ar     1 ZINC000095830588   -0.0700
6      C6     -0.0806    4.1227    0.0482 C.ar     1 ZINC000095830588    0.1000
7      N7     -0.0540    5.5142    0.0309 N.3      1 ZINC000095830588   -0.4700
8      C8      0.5708    6.0475    1.2602 C.3      1 ZINC000095830588    0.0300
9      C9     -0.1813    7.3716    1.5438 C.3      1 ZINC000095830588   -0.1300
10     C10    -1.6296    7.0052    1.1254 C.3      1 ZINC000095830588   -0.1400
11     C11    -1.4161    6.0674   -0.0814 C.3      1 ZINC000095830588    0.0500
12     H12    -1.5123    6.6302   -1.0099 H        1 ZINC000095830588    0.1200
13     C13    -2.4454    4.9359   -0.0498 C.3      1 ZINC000095830588    0.0500
14     H14    -2.1976    4.1979   -0.8128 H        1 ZINC000095830588    0.1500
15     O15    -2.4304    4.3142    1.2368 O.3      1 ZINC000095830588   -0.5200
16     C16    -3.8384    5.5057   -0.3247 C.3      1 ZINC000095830588    0.4300
17     F17    -3.8530    6.1144   -1.5843 F        1 ZINC000095830588   -0.1700
18     F18    -4.7796    4.4711   -0.2958 F        1 ZINC000095830588   -0.1700
19     F19    -4.1564    6.4529    0.6546 F        1 ZINC000095830588   -0.1800
20     C20     0.0496    3.4108   -1.1409 C.ar     1 ZINC000095830588   -0.0700
21     C21     0.0291    2.0347   -1.1267 C.ar     1 ZINC000095830588   -0.1400
22     C22     0.1707    1.2649   -2.4145 C.3      1 ZINC000095830588    0.5000
23     F23     0.3089    2.1604   -3.4804 F        1 ZINC000095830588   -0.1700
24     F24     1.3016    0.4442   -2.3452 F        1 ZINC000095830588   -0.1700
25     F25    -0.9670    0.4754   -2.6133 F        1 ZINC000095830588   -0.1700
26     H26    -0.3855    1.5457    2.2112 H        1 ZINC000095830588    0.1500
27     H27    -0.3378    4.0016    2.1750 H        1 ZINC000095830588    0.1500
28     H28     0.4368    5.3502    2.0872 H        1 ZINC000095830588    0.0700
29     H29     1.6305    6.2411    1.0939 H        1 ZINC000095830588    0.1000
30     H30    -0.1338    7.6287    2.6020 H        1 ZINC000095830588    0.0900
31     H31     0.2096    8.1822    0.9287 H        1 ZINC000095830588    0.0800
32     H32    -2.1437    6.4835    1.9327 H        1 ZINC000095830588    0.0800
33     H33    -2.1820    7.8965    0.8279 H        1 ZINC000095830588    0.0900
34     H34    -2.7469    4.8828    1.9521 H        1 ZINC000095830588    0.3800
35     H35     0.1708    3.9389   -2.0751 H        1 ZINC000095830588    0.1600
@<TRIPOS>BOND
1     1     2     3
2     2     3     1
3     3     21    ar
4     3     4     ar
5     4     5     ar
6     4     26    1
7     5     6     ar
8     5     27    1
9     6     7     1
10    6     20    ar
11    7     11    1
12    7     8     1
13    8     9     1
14    8     28    1
15    8     29    1
16    9     10    1
17    9     30    1
18    9     31    1
19    10    11    1
20    10    32    1
21    10    33    1
22    11    12    1
23    11    13    1
24    13    14    1
25    13    15    1
26    13    16    1
27    15    34    1
28    16    17    1
29    16    18    1
30    16    19    1
31    20    21    ar
32    20    35    1
33    21    22    1
34    22    23    1
35    22    24    1
36    22    25    1
@<TRIPOS>SUBSTRUCTURE
1   ZINC000095830588 1     RESIDUE    1   A     ZIN   1
