@<TRIPOS>MOLECULE
ZINC000000168475
41    42    1     0     0
SMALL
USER_CHARGES
@<TRIPOS>ATOM
1      C1     -0.0187    1.5258    0.0104 C.3      1 ZINC000000168475   -0.1400
2      C2      0.0021   -0.0041    0.0020 C.3      1 ZINC000000168475   -0.0500
3      C3      0.7421   -0.5109    1.2415 C.3      1 ZINC000000168475   -0.1400
4      C4     -1.4117   -0.5257    0.0127 C.ar     1 ZINC000000168475   -0.0800
5      C5     -2.2603   -0.2046    1.0565 C.ar     1 ZINC000000168475   -0.1100
6      C6     -3.5578   -0.6828    1.0714 C.ar     1 ZINC000000168475   -0.1100
7      C7     -4.0167   -1.4799    0.0391 C.ar     1 ZINC000000168475   -0.1100
8      C8     -3.1752   -1.7962   -1.0150 C.ar     1 ZINC000000168475    0.0900
9      C9     -1.8645   -1.3221   -1.0251 C.ar     1 ZINC000000168475    0.1000
10     O10    -1.0296   -1.6704   -2.0406 O.3      1 ZINC000000168475   -0.3000
11     C11    -1.6214   -1.8749   -3.3256 C.3      1 ZINC000000168475    0.1200
12     H12    -0.9117   -2.3880   -3.9745 H        1 ZINC000000168475    0.1500
13     C13    -1.9866   -0.5218   -3.9393 C.3      1 ZINC000000168475   -0.1100
14     C14    -0.7231    0.3281   -4.0888 C.3      1 ZINC000000168475   -0.1400
15     C15    -2.6202   -0.7399   -5.3147 C.3      1 ZINC000000168475   -0.1500
16     C16    -2.8669   -2.7127   -3.1819 C.2      1 ZINC000000168475    0.2200
17     S17    -3.2889   -3.7294   -4.3417 S.2      1 ZINC000000168475   -0.4200
18     N18    -3.6251   -2.5969   -2.0726 N.am     1 ZINC000000168475   -0.4300
19     C19    -4.9015   -3.3087   -1.9701 C.3      1 ZINC000000168475    0.0200
20     C20    -4.6712   -4.6681   -1.3619 C.2      1 ZINC000000168475    0.5000
21     O21    -3.5452   -5.0107   -1.0435 O.co2    1 ZINC000000168475   -0.6700
22     O22    -5.6108   -5.4253   -1.1881 O.co2    1 ZINC000000168475   -0.6900
23     H23     1.0039    1.9031    0.0027 H        1 ZINC000000168475    0.0600
24     H24    -0.5459    1.8868   -0.8726 H        1 ZINC000000168475    0.0500
25     H25    -0.5289    1.8773    0.9072 H        1 ZINC000000168475    0.0600
26     H26     0.5123   -0.3556   -0.8948 H        1 ZINC000000168475    0.0900
27     H27     0.2319   -0.1594    2.1383 H        1 ZINC000000168475    0.0600
28     H28     0.7568   -1.6008    1.2356 H        1 ZINC000000168475    0.0600
29     H29     1.7647   -0.1336    1.2338 H        1 ZINC000000168475    0.0600
30     H30    -1.9083    0.4215    1.8631 H        1 ZINC000000168475    0.1300
31     H31    -4.2143   -0.4332    1.8919 H        1 ZINC000000168475    0.1300
32     H32    -5.0291   -1.8554    0.0546 H        1 ZINC000000168475    0.1300
33     H33    -2.6955   -0.0078   -3.2901 H        1 ZINC000000168475    0.0700
34     H34    -0.0142   -0.1859   -4.7380 H        1 ZINC000000168475    0.0600
35     H35    -0.9833    1.2921   -4.5260 H        1 ZINC000000168475    0.0600
36     H36    -0.2717    0.4835   -3.1089 H        1 ZINC000000168475    0.0600
37     H37    -3.5203   -1.3454   -5.2082 H        1 ZINC000000168475    0.0700
38     H38    -2.8803    0.2240   -5.7520 H        1 ZINC000000168475    0.0600
39     H39    -1.9113   -1.2539   -5.9639 H        1 ZINC000000168475    0.0700
40     H40    -5.5851   -2.7398   -1.3399 H        1 ZINC000000168475    0.0900
41     H41    -5.3341   -3.4238   -2.9639 H        1 ZINC000000168475    0.1100
@<TRIPOS>BOND
1     1     2     1
2     1     23    1
3     1     24    1
4     1     25    1
5     2     3     1
6     2     4     1
7     2     26    1
8     3     27    1
9     3     28    1
10    3     29    1
11    4     9     ar
12    4     5     ar
13    5     6     ar
14    5     30    1
15    6     7     ar
16    6     31    1
17    7     8     ar
18    7     32    1
19    8     18    1
20    8     9     ar
21    9     10    1
22    10    11    1
23    11    12    1
24    11    13    1
25    11    16    1
26    13    14    1
27    13    15    1
28    13    33    1
29    14    34    1
30    14    35    1
31    14    36    1
32    15    37    1
33    15    38    1
34    15    39    1
35    16    17    2
36    16    18    am
37    18    19    1
38    19    20    1
39    19    40    1
40    19    41    1
41    20    21    ar
42    20    22    ar
@<TRIPOS>SUBSTRUCTURE
1   ZINC000000168475 1     RESIDUE    1   A     ZIN   1
