@<TRIPOS>MOLECULE
ZINC000003872906
  35   37    0    0    0
SMALL
USER_CHARGES
NO_NAME
@<TRIPOS>ATOM
    1 C1       -0.0178     1.4648     0.0101 C.3    1 <0>      -0.0500
    2 N2        0.0021    -0.0041     0.0020 N.4    1 <0>      -0.5000
    3 H3        0.4744    -0.3295    -0.8281 H      1 <0>       0.4300
    4 H4        0.4901    -0.3383     0.8195 H      1 <0>       0.4300
    5 C5       -1.3761    -0.5125     0.0124 C.3    1 <0>       0.0800
    6 H6       -1.9289    -0.0879     0.8504 H      1 <0>       0.1500
    7 C7       -1.3777    -2.0537     0.0958 C.3    1 <0>      -0.1300
    8 C8       -1.4270    -2.4659    -1.3908 C.3    1 <0>      -0.0200
    9 H9       -0.4181    -2.6140    -1.7759 H      1 <0>       0.1100
   10 C10      -2.2394    -3.7242    -1.5579 C.ar   1 <0>      -0.0800
   11 C11      -3.5686    -3.7435    -1.1792 C.ar   1 <0>      -0.0900
   12 C12      -4.3150    -4.8971    -1.3319 C.ar   1 <0>      -0.0900
   13 C13      -3.7317    -6.0327    -1.8640 C.ar   1 <0>      -0.0300
   14 Cl14     -4.6687    -7.4814    -2.0565 Cl     1 <0>      -0.0300
   15 C15      -2.4000    -6.0133    -2.2434 C.ar   1 <0>      -0.0300
   16 Cl16     -1.6665    -7.4379    -2.9114 Cl     1 <0>      -0.0300
   17 C17      -1.6563    -4.8567    -2.0951 C.ar   1 <0>      -0.0900
   18 C18      -2.0956    -1.3084    -2.1009 C.ar   1 <0>      -0.0600
   19 C19      -2.6825    -1.2422    -3.3531 C.ar   1 <0>      -0.0900
   20 C20      -3.2386    -0.0587    -3.7987 C.ar   1 <0>      -0.0800
   21 C21      -3.2094     1.0635    -2.9924 C.ar   1 <0>      -0.1100
   22 C22      -2.6242     0.9995    -1.7427 C.ar   1 <0>      -0.0800
   23 C23      -2.0672    -0.1835    -1.2934 C.ar   1 <0>      -0.1700
   24 H24       1.0047     1.8421     0.0024 H      1 <0>       0.1300
   25 H25      -0.5450     1.8259    -0.8730 H      1 <0>       0.1200
   26 H26      -0.5280     1.8163     0.9069 H      1 <0>       0.1300
   27 H27      -0.4652    -2.4171     0.5685 H      1 <0>       0.1100
   28 H28      -2.2596    -2.4121     0.6267 H      1 <0>       0.1200
   29 H29      -4.0242    -2.8570    -0.7634 H      1 <0>       0.1400
   30 H30      -5.3534    -4.9116    -1.0355 H      1 <0>       0.1500
   31 H31      -0.6178    -4.8408    -2.3912 H      1 <0>       0.1400
   32 H32      -2.7054    -2.1187    -3.9838 H      1 <0>       0.1300
   33 H33      -3.6953    -0.0103    -4.7761 H      1 <0>       0.1400
   34 H34      -3.6433     1.9897    -3.3393 H      1 <0>       0.1400
   35 H35      -2.6015     1.8769    -1.1134 H      1 <0>       0.1300
@<TRIPOS>BOND
   1    1    2 1
   2    1   24 1
   3    1   25 1
   4    1   26 1
   5    2    3 1
   6    2    4 1
   7    2    5 1
   8    5    6 1
   9    5   23 1
  10    5    7 1
  11    7    8 1
  12    7   27 1
  13    7   28 1
  14    8    9 1
  15    8   10 1
  16    8   18 1
  17   10   17 ar
  18   10   11 ar
  19   11   12 ar
  20   11   29 1
  21   12   13 ar
  22   12   30 1
  23   13   14 1
  24   13   15 ar
  25   15   16 1
  26   15   17 ar
  27   17   31 1
  28   18   23 ar
  29   18   19 ar
  30   19   20 ar
  31   19   32 1
  32   20   21 ar
  33   20   33 1
  34   21   22 ar
  35   21   34 1
  36   22   23 ar
  37   22   35 1
