@<TRIPOS>MOLECULE
ZINC000004216870
  54   57    0    0    0
SMALL
USER_CHARGES
NO_NAME
@<TRIPOS>ATOM
    1 C1        0.0169     1.5390     0.0113 C.3    1 <0>      -0.1800
    2 C2        0.0314     0.0092    -0.0094 C.3    1 <0>       0.1400
    3 O3        0.6802    -0.4632    -1.1917 O.3    1 <0>      -0.5500
    4 C4       -1.4140    -0.5424     0.0689 C.3    1 <0>      -0.1500
    5 C5       -1.5155    -1.3162     1.4118 C.3    1 <0>      -0.1100
    6 C6       -0.4156    -0.6723     2.2628 C.3    1 <0>      -0.0800
    7 H7       -0.7343     0.3080     2.6170 H      1 <0>       0.0700
    8 C8        0.1025    -1.5079     3.4182 C.3    1 <0>      -0.0800
    9 H9        0.4827    -2.4597     3.0472 H      1 <0>       0.0900
   10 C10      -1.0105    -1.7534     4.4389 C.3    1 <0>      -0.1100
   11 C11      -0.4509    -2.5678     5.6060 C.3    1 <0>      -0.1200
   12 C12       0.6870    -1.7967     6.2797 C.3    1 <0>      -0.0700
   13 H13       0.3046    -0.8577     6.6798 H      1 <0>       0.0700
   14 C14       1.2478    -2.6517     7.4232 C.3    1 <0>      -0.1700
   15 C15       2.4633    -1.9607     7.9979 C.2    1 <0>       0.3600
   16 O16       2.5615    -1.7627     9.1851 O.2    1 <0>      -0.4600
   17 C17       3.5537    -1.5246     7.0438 C.3    1 <0>      -0.1700
   18 C18       2.9119    -0.7012     5.9234 C.3    1 <0>      -0.1100
   19 C19       1.7910    -1.5075     5.2615 C.3    1 <0>      -0.0500
   20 C20       2.3531    -2.8324     4.7424 C.3    1 <0>      -0.1600
   21 C21       1.2368    -0.7146     4.0835 C.3    1 <0>      -0.0700
   22 H22       0.8291     0.2261     4.4534 H      1 <0>       0.0700
   23 C23       2.3555    -0.4107     3.0925 C.3    1 <0>      -0.1200
   24 C24       1.8191     0.3081     1.8433 C.3    1 <0>      -0.1000
   25 C25       0.7363    -0.5293     1.2312 C.3    1 <0>      -0.0500
   26 C26       1.2655    -1.9381     0.9552 C.3    1 <0>      -0.1400
   27 H27       1.0410     1.9118     0.0290 H      1 <0>       0.0700
   28 H28      -0.4893     1.9096    -0.8801 H      1 <0>       0.0600
   29 H29      -0.5113     1.8854     0.8995 H      1 <0>       0.0700
   30 H30       0.2636    -0.1689    -2.0133 H      1 <0>       0.3700
   31 H31      -2.1294     0.2799     0.0559 H      1 <0>       0.0700
   32 H32      -1.6030    -1.2165    -0.7666 H      1 <0>       0.0700
   33 H33      -2.4936    -1.1680     1.8693 H      1 <0>       0.0700
   34 H34      -1.3155    -2.3771     1.2616 H      1 <0>       0.0700
   35 H35      -1.3839    -0.7980     4.8074 H      1 <0>       0.0600
   36 H36      -1.8230    -2.3052     3.9661 H      1 <0>       0.0600
   37 H37      -1.2430    -2.7520     6.3317 H      1 <0>       0.0600
   38 H38      -0.0728    -3.5203     5.2346 H      1 <0>       0.0700
   39 H39       0.4911    -2.7652     8.1994 H      1 <0>       0.0900
   40 H40       1.5317    -3.6322     7.0409 H      1 <0>       0.1000
   41 H41       4.2845    -0.9150     7.5752 H      1 <0>       0.0900
   42 H42       4.0439    -2.4014     6.6207 H      1 <0>       0.1000
   43 H43       2.4959     0.2161     6.3399 H      1 <0>       0.0700
   44 H44       3.6674    -0.4511     5.1785 H      1 <0>       0.0800
   45 H45       2.7677    -3.4020     5.5742 H      1 <0>       0.0600
   46 H46       1.5550    -3.4060     4.2712 H      1 <0>       0.0600
   47 H47       3.1372    -2.6331     4.0119 H      1 <0>       0.0600
   48 H48       3.0985     0.2228     3.5768 H      1 <0>       0.0700
   49 H49       2.8279    -1.3455     2.7905 H      1 <0>       0.0700
   50 H50       1.3842     1.2670     2.1254 H      1 <0>       0.0600
   51 H51       2.6273     0.4624     1.1285 H      1 <0>       0.0700
   52 H52       1.6925    -2.3513     1.8690 H      1 <0>       0.0600
   53 H53       0.4473    -2.5737     0.6166 H      1 <0>       0.0500
   54 H54       2.0338    -1.8928     0.1833 H      1 <0>       0.0600
@<TRIPOS>BOND
   1    1    2 1
   2    1   27 1
   3    1   28 1
   4    1   29 1
   5    2   25 1
   6    2    3 1
   7    2    4 1
   8    3   30 1
   9    4    5 1
  10    4   31 1
  11    4   32 1
  12    5    6 1
  13    5   33 1
  14    5   34 1
  15    6    7 1
  16    6   25 1
  17    6    8 1
  18    8    9 1
  19    8   21 1
  20    8   10 1
  21   10   11 1
  22   10   35 1
  23   10   36 1
  24   11   12 1
  25   11   37 1
  26   11   38 1
  27   12   13 1
  28   12   19 1
  29   12   14 1
  30   14   15 1
  31   14   39 1
  32   14   40 1
  33   15   16 2
  34   15   17 1
  35   17   18 1
  36   17   41 1
  37   17   42 1
  38   18   19 1
  39   18   43 1
  40   18   44 1
  41   19   20 1
  42   19   21 1
  43   20   45 1
  44   20   46 1
  45   20   47 1
  46   21   22 1
  47   21   23 1
  48   23   24 1
  49   23   48 1
  50   23   49 1
  51   24   25 1
  52   24   50 1
  53   24   51 1
  54   25   26 1
  55   26   52 1
  56   26   53 1
  57   26   54 1
