@<TRIPOS>MOLECULE
ZINC000037977324
36    37    1     0     0
SMALL
USER_CHARGES
@<TRIPOS>ATOM
1      C1     -0.0184    1.5028    0.0103 C.3      1 ZINC000037977324   -0.1800
2      C2      0.0021   -0.0041    0.0020 C.2      1 ZINC000037977324    0.5100
3      O3      0.0203   -0.6160    1.0489 O.2      1 ZINC000037977324   -0.5400
4      N4      0.0001   -0.6716   -1.1688 N.am     1 ZINC000037977324   -0.6200
5      C5     -0.0158    0.0558   -2.4452 C.3      1 ZINC000037977324    0.1100
6      C6      1.1503   -0.4367   -3.3080 C.3      1 ZINC000037977324   -0.1400
7      C7      1.0671   -1.9581   -3.4506 C.3      1 ZINC000037977324    0.1500
8      N8      2.1620   -2.4291   -4.3025 N.am     1 ZINC000037977324   -0.7200
9      C9      2.0385   -3.5880   -4.9794 C.2      1 ZINC000037977324    0.5600
10     O10     1.0186   -4.2425   -4.8830 O.2      1 ZINC000037977324   -0.5300
11     C11     3.1425   -4.0629   -5.8384 C.ar     1 ZINC000037977324   -0.1500
12     C12     4.3175   -3.3158   -5.9464 C.ar     1 ZINC000037977324   -0.0600
13     C13     5.3445   -3.7635   -6.7493 C.ar     1 ZINC000037977324   -0.1600
14     C14     5.2124   -4.9530   -7.4494 C.ar     1 ZINC000037977324    0.1300
15     F15     6.2220   -5.3873   -8.2350 F        1 ZINC000037977324   -0.1300
16     C16     4.0480   -5.6987   -7.3458 C.ar     1 ZINC000037977324   -0.1600
17     C17     3.0172   -5.2633   -6.5408 C.ar     1 ZINC000037977324   -0.0300
18     C18     1.1795   -2.6085   -2.0698 C.3      1 ZINC000037977324   -0.1400
19     C19     0.0198   -2.1405   -1.1931 C.3      1 ZINC000037977324    0.1100
20     H20     1.0042    1.8801    0.0026 H        1 ZINC000037977324    0.0900
21     H21    -0.5455    1.8639   -0.8728 H        1 ZINC000037977324    0.0800
22     H22    -0.5286    1.8543    0.9071 H        1 ZINC000037977324    0.0900
23     H23    -0.9572   -0.1324   -2.9614 H        1 ZINC000037977324    0.0800
24     H24     0.0936    1.1241   -2.2584 H        1 ZINC000037977324    0.1000
25     H25     1.0937    0.0248   -4.2939 H        1 ZINC000037977324    0.0900
26     H26     2.0936   -0.1668   -2.8331 H        1 ZINC000037977324    0.0800
27     H27     0.1130   -2.2289   -3.9027 H        1 ZINC000037977324    0.0900
28     H28     2.9758   -1.9069   -4.3794 H        1 ZINC000037977324    0.4000
29     H29     4.4211   -2.3888   -5.4020 H        1 ZINC000037977324    0.1400
30     H30     6.2536   -3.1866   -6.8335 H        1 ZINC000037977324    0.1400
31     H31     3.9502   -6.6245   -7.8932 H        1 ZINC000037977324    0.1500
32     H32     2.1108   -5.8450   -6.4605 H        1 ZINC000037977324    0.1500
33     H33     1.1436   -3.6929   -2.1744 H        1 ZINC000037977324    0.0800
34     H34     2.1225   -2.3182   -1.6066 H        1 ZINC000037977324    0.0700
35     H35     0.1501   -2.5223   -0.1805 H        1 ZINC000037977324    0.1000
36     H36    -0.9206   -2.5060   -1.6054 H        1 ZINC000037977324    0.0700
@<TRIPOS>BOND
1     1     2     1
2     1     20    1
3     1     21    1
4     1     22    1
5     2     3     2
6     2     4     am
7     4     19    1
8     4     5     1
9     5     6     1
10    5     23    1
11    5     24    1
12    6     7     1
13    6     25    1
14    6     26    1
15    7     8     1
16    7     18    1
17    7     27    1
18    8     9     am
19    8     28    1
20    9     10    2
21    9     11    1
22    11    17    ar
23    11    12    ar
24    12    13    ar
25    12    29    1
26    13    14    ar
27    13    30    1
28    14    15    1
29    14    16    ar
30    16    17    ar
31    16    31    1
32    17    32    1
33    18    19    1
34    18    33    1
35    18    34    1
36    19    35    1
37    19    36    1
@<TRIPOS>SUBSTRUCTURE
1   ZINC000037977324 1     RESIDUE    1   A     ZIN   1
