@<TRIPOS>MOLECULE
ZINC000002019973
58    59    1     0     0
SMALL
USER_CHARGES
@<TRIPOS>ATOM
1      C1     -0.0609    1.4822    0.9294 C.3      1 ZINC000002019973   -0.1600
2      C2     -0.0295   -0.0361    0.7430 C.3      1 ZINC000002019973    0.0700
3      O3     -1.3837   -0.5305    0.5691 O.3      1 ZINC000002019973   -0.3500
4      C4     -1.5322   -1.8579    0.3914 C.2      1 ZINC000002019973    0.5100
5      O5     -0.5569   -2.5825    0.3821 O.2      1 ZINC000002019973   -0.4900
6      C6     -2.8780   -2.4310    0.2084 C.ar     1 ZINC000002019973   -0.1300
7      C7     -4.0012   -1.6004    0.2128 C.ar     1 ZINC000002019973   -0.0200
8      C8     -5.2617   -2.1460    0.0404 C.ar     1 ZINC000002019973    0.1100
9      N9     -6.3891   -1.3150    0.0445 N.am     1 ZINC000002019973   -0.6700
10     C10    -6.3056   -0.0634   -0.4482 C.2      1 ZINC000002019973    0.6000
11     O11    -5.2792    0.3126   -0.9837 O.2      1 ZINC000002019973   -0.5000
12     C12    -7.4505    0.8450   -0.3393 C.2      1 ZINC000002019973   -0.2900
13     C13    -7.4900    2.1300   -0.8030 C.2      1 ZINC000002019973   -0.0400
14     C14    -8.6909    2.7562   -0.5675 C.2      1 ZINC000002019973   -0.1500
15     C15    -9.6045    2.0119    0.0666 C.2      1 ZINC000002019973   -0.2100
16     S16    -8.9961    0.4536    0.4020 S.3      1 ZINC000002019973    0.2000
17     C17    -5.4112   -3.5174   -0.1373 C.ar     1 ZINC000002019973   -0.0700
18     C18    -4.3060   -4.3442   -0.1424 C.ar     1 ZINC000002019973   -0.2000
19     C19    -3.0365   -3.8117    0.0233 C.ar     1 ZINC000002019973    0.1700
20     O20    -1.9510   -4.6263    0.0176 O.3      1 ZINC000002019973   -0.2700
21     C21    -2.1894   -6.0235   -0.1641 C.3      1 ZINC000002019973    0.0200
22     C22    -0.8570   -6.7752   -0.1423 C.3      1 ZINC000002019973    0.0900
23     H23    -0.1866   -6.3481   -0.8881 H        1 ZINC000002019973    0.1400
24     O24    -0.2651   -6.6580    1.1530 O.3      1 ZINC000002019973   -0.5400
25     C25    -1.0994   -8.2520   -0.4606 C.3      1 ZINC000002019973   -0.0500
26     N26     0.1799   -8.9738   -0.4397 N.4      1 ZINC000002019973   -0.5000
27     H27     0.8005   -8.5784   -1.1301 H        1 ZINC000002019973    0.4300
28     H28     0.5979   -8.8910    0.4749 H        1 ZINC000002019973    0.4300
29     C29    -0.0528  -10.3917   -0.7453 C.3      1 ZINC000002019973    0.0600
30     C30    -0.6866  -10.5171   -2.1322 C.3      1 ZINC000002019973   -0.1800
31     C31     1.2796  -11.1434   -0.7235 C.3      1 ZINC000002019973   -0.1800
32     C32    -0.9938  -10.9912    0.3016 C.3      1 ZINC000002019973   -0.1800
33     H33     0.9557    1.8533    1.0600 H        1 ZINC000002019973    0.0800
34     H34    -0.5073    1.9470    0.0504 H        1 ZINC000002019973    0.0700
35     H35    -0.6533    1.7278    1.8108 H        1 ZINC000002019973    0.0700
36     H36     0.5629   -0.2818   -0.1384 H        1 ZINC000002019973    0.0700
37     H37     0.4169   -0.5010    1.6220 H        1 ZINC000002019973    0.0700
38     H38    -3.8864   -0.5354    0.3508 H        1 ZINC000002019973    0.1600
39     H39    -7.2301   -1.6404    0.4020 H        1 ZINC000002019973    0.4100
40     H40    -6.6602    2.6062   -1.3041 H        1 ZINC000002019973    0.1600
41     H41    -8.8829    3.7745   -0.8718 H        1 ZINC000002019973    0.1500
42     H42   -10.5962    2.3510    0.3273 H        1 ZINC000002019973    0.1700
43     H43    -6.3970   -3.9374   -0.2718 H        1 ZINC000002019973    0.1400
44     H44    -4.4299   -5.4082   -0.2803 H        1 ZINC000002019973    0.1400
45     H45    -2.8270   -6.3909    0.6400 H        1 ZINC000002019973    0.0800
46     H46    -2.6828   -6.1863   -1.1223 H        1 ZINC000002019973    0.0800
47     H47    -0.8078   -7.0185    1.8675 H        1 ZINC000002019973    0.3900
48     H48    -1.7698   -8.6791    0.2852 H        1 ZINC000002019973    0.1400
49     H49    -1.5509   -8.3414   -1.4487 H        1 ZINC000002019973    0.1500
50     H50    -0.0162  -10.0900   -2.8780 H        1 ZINC000002019973    0.0800
51     H51    -0.8592  -11.5692   -2.3589 H        1 ZINC000002019973    0.1100
52     H52    -1.6358   -9.9816   -2.1477 H        1 ZINC000002019973    0.0800
53     H53     1.7311  -11.0540    0.2646 H        1 ZINC000002019973    0.0800
54     H54     1.1070  -12.1955   -0.9502 H        1 ZINC000002019973    0.1100
55     H55     1.9500  -10.7163   -1.4693 H        1 ZINC000002019973    0.0800
56     H56    -1.9430  -10.4557    0.2861 H        1 ZINC000002019973    0.0800
57     H57    -1.1665  -12.0433    0.0749 H        1 ZINC000002019973    0.1100
58     H58    -0.5423  -10.9018    1.2897 H        1 ZINC000002019973    0.0800
@<TRIPOS>BOND
1     1     2     1
2     1     33    1
3     1     34    1
4     1     35    1
5     2     3     1
6     2     36    1
7     2     37    1
8     3     4     1
9     4     5     2
10    4     6     1
11    6     19    ar
12    6     7     ar
13    7     8     ar
14    7     38    1
15    8     9     1
16    8     17    ar
17    9     10    am
18    9     39    1
19    10    11    2
20    10    12    1
21    12    16    1
22    12    13    2
23    13    14    1
24    13    40    1
25    14    15    2
26    14    41    1
27    15    16    1
28    15    42    1
29    17    18    ar
30    17    43    1
31    18    19    ar
32    18    44    1
33    19    20    1
34    20    21    1
35    21    22    1
36    21    45    1
37    21    46    1
38    22    23    1
39    22    24    1
40    22    25    1
41    24    47    1
42    25    26    1
43    25    48    1
44    25    49    1
45    26    27    1
46    26    28    1
47    26    29    1
48    29    30    1
49    29    31    1
50    29    32    1
51    30    50    1
52    30    51    1
53    30    52    1
54    31    53    1
55    31    54    1
56    31    55    1
57    32    56    1
58    32    57    1
59    32    58    1
@<TRIPOS>SUBSTRUCTURE
1   ZINC000002019973 1     RESIDUE    1   A     ZIN   1
