@<TRIPOS>MOLECULE
ZINC000000526257
  18   19    0    0    0
SMALL
NO_CHARGES


@<TRIPOS>ATOM
   1 O1             0.0021    -0.0041     0.0020 O.2     
   2 C2            -0.0144     1.2109     0.0087 C.2     
   3 C3            -1.2978     1.9408     0.0311 C.2     
   4 C4            -1.3288     3.2529     0.3100 C.2     
   5 C5            -0.0796     3.9868     0.5986 C.2     
   6 O6            -0.1192     5.0991     1.0872 O.2     
   7 C7             1.2162     3.3544     0.2876 C.ar    
   8 C8             2.3989     4.0940     0.2779 C.ar    
   9 O9             2.3771     5.4200     0.5572 O.3     
  10 C10            3.6053     3.4579    -0.0211 C.ar    
  11 C11            3.6314     2.1101    -0.3051 C.ar    
  12 C12            2.4597     1.3631    -0.2994 C.ar    
  13 C13            1.2510     1.9768     0.0007 C.ar    
  14 H14           -2.2176     1.4151    -0.1788 H       
  15 H15           -2.2735     3.7762     0.3232 H       
  16 H16            4.5237     4.0261    -0.0302 H       
  17 H17            4.5710     1.6297    -0.5345 H       
  18 H18            2.4901     0.3071    -0.5238 H       
@<TRIPOS>BOND
   1    1    2 2
   2    2   13 1
   3    2    3 1
   4    3    4 2
   5    3   14 1
   6    4    5 1
   7    4   15 1
   8    5    6 2
   9    5    7 1
  10    7   13 ar
  11    7    8 ar
  12    8    9 1
  13    8   10 ar
  14   10   11 ar
  15   10   16 1
  16   11   12 ar
  17   11   17 1
  18   12   13 ar
  19   12   18 1


