@<TRIPOS>MOLECULE
ZINC000068120928
81    85    1     0     0
SMALL
USER_CHARGES
@<TRIPOS>ATOM
1      C1      0.3445    0.9302   -1.0587 C.3      1 ZINC000068120928    0.0300
2      O2      0.3557   -0.4895   -0.8968 O.3      1 ZINC000068120928   -0.3200
3      C3      1.0034   -1.2143   -1.8478 C.ar     1 ZINC000068120928    0.1300
4      C4      1.6187   -0.5725   -2.9090 C.ar     1 ZINC000068120928   -0.2100
5      C5      2.2800   -1.3146   -3.8789 C.ar     1 ZINC000068120928    0.1400
6      N6      2.9021   -0.6667   -4.9518 N.3      1 ZINC000068120928   -0.4900
7      C7      1.9506    0.1869   -5.6744 C.3      1 ZINC000068120928    0.0600
8      C8      2.6937    0.9882   -6.7457 C.3      1 ZINC000068120928   -0.1200
9      C9      3.3792    0.0215   -7.7153 C.3      1 ZINC000068120928    0.0900
10     N10     4.1423    0.7847   -8.7119 N.3      1 ZINC000068120928   -0.5300
11     C11     3.3442    1.8958   -9.2485 C.3      1 ZINC000068120928    0.0500
12     C12     4.1991    2.7114  -10.2213 C.3      1 ZINC000068120928    0.0600
13     N13     4.6742    1.8375  -11.3031 N.3      1 ZINC000068120928   -0.5500
14     C14     5.4373    2.6007  -12.2997 C.3      1 ZINC000068120928    0.0200
15     C15     5.4724    0.7264  -10.7665 C.3      1 ZINC000068120928    0.0600
16     C16     4.6174   -0.0892   -9.7937 C.3      1 ZINC000068120928    0.0600
17     C17     4.3286   -0.8882   -6.9308 C.3      1 ZINC000068120928   -0.1100
18     C18     3.5381   -1.6351   -5.8541 C.3      1 ZINC000068120928    0.0500
19     C19     2.3245   -2.6990   -3.7842 C.ar     1 ZINC000068120928   -0.1800
20     C20     1.7106   -3.3412   -2.7253 C.ar     1 ZINC000068120928   -0.0700
21     C21     1.0535   -2.6034   -1.7524 C.ar     1 ZINC000068120928    0.1000
22     N22     0.4305   -3.2563   -0.6776 N.pl3    1 ZINC000068120928   -0.6100
23     C23     0.8110   -4.5381   -0.3344 C.ar     1 ZINC000068120928    0.6300
24     N24     1.8483   -5.1105   -0.9413 N.ar     1 ZINC000068120928   -0.6100
25     C25     2.2135   -6.3375   -0.6130 C.ar     1 ZINC000068120928    0.4000
26     N26     1.5510   -7.0010    0.3181 N.ar     1 ZINC000068120928   -0.6200
27     C27     0.5125   -6.4354    0.9296 C.ar     1 ZINC000068120928    0.6300
28     N28    -0.1790   -7.1298    1.9031 N.pl3    1 ZINC000068120928   -0.6400
29     C29     0.2823   -8.3780    2.3326 C.ar     1 ZINC000068120928    0.2500
30     C30     1.6142   -8.7274    2.1521 C.ar     1 ZINC000068120928   -0.1500
31     C31     2.0667   -9.9613    2.5774 C.ar     1 ZINC000068120928   -0.0400
32     C32     1.1950  -10.8482    3.1818 C.ar     1 ZINC000068120928   -0.1600
33     C33    -0.1321  -10.5035    3.3626 C.ar     1 ZINC000068120928    0.0000
34     C34    -0.5894   -9.2691    2.9457 C.ar     1 ZINC000068120928   -0.6900
35     S35    -2.2804   -8.8309    3.1766 S.o2     1 ZINC000068120928    2.4900
36     O36    -2.8481   -9.9574    3.8307 O.2      1 ZINC000068120928   -0.9300
37     O37    -2.2297   -7.5620    3.8142 O.2      1 ZINC000068120928   -0.9400
38     C38    -2.9405   -8.6721    1.4944 C.3      1 ZINC000068120928   -0.5700
39     C39    -2.8096  -10.0115    0.7666 C.3      1 ZINC000068120928   -0.1400
40     C40    -4.4152   -8.2699    1.5611 C.3      1 ZINC000068120928   -0.1500
41     N41     0.1456   -5.2003    0.6064 N.ar     1 ZINC000068120928   -0.6300
42     H42     1.3687    1.3033   -1.0644 H        1 ZINC000068120928    0.0600
43     H43    -0.1401    1.1845   -2.0014 H        1 ZINC000068120928    0.0600
44     H44    -0.2035    1.3857   -0.2339 H        1 ZINC000068120928    0.1000
45     H45     1.5841    0.5045   -2.9827 H        1 ZINC000068120928    0.1400
46     H46     1.1913   -0.4355   -6.1478 H        1 ZINC000068120928    0.0400
47     H47     1.4732    0.8724   -4.9741 H        1 ZINC000068120928    0.0800
48     H48     1.9847    1.6101   -7.2922 H        1 ZINC000068120928    0.0700
49     H49     3.4439    1.6212   -6.2717 H        1 ZINC000068120928    0.0800
50     H50     2.6260   -0.5843   -8.2191 H        1 ZINC000068120928    0.0400
51     H51     2.4749    1.4991   -9.7730 H        1 ZINC000068120928    0.0400
52     H52     3.0146    2.5355   -8.4298 H        1 ZINC000068120928    0.0900
53     H53     3.6004    3.5190  -10.6426 H        1 ZINC000068120928    0.0800
54     H54     5.0539    3.1307   -9.6907 H        1 ZINC000068120928    0.0400
55     H55     6.2997    3.0637  -11.8202 H        1 ZINC000068120928    0.0300
56     H56     5.7770    1.9299  -13.0888 H        1 ZINC000068120928    0.0700
57     H57     4.8014    3.3747  -12.7294 H        1 ZINC000068120928    0.0700
58     H58     5.8019    0.0867  -11.5852 H        1 ZINC000068120928    0.0800
59     H59     6.3416    1.1231  -10.2420 H        1 ZINC000068120928    0.0400
60     H60     5.2161   -0.8967   -9.3724 H        1 ZINC000068120928    0.0800
61     H61     3.7626   -0.5085  -10.3243 H        1 ZINC000068120928    0.0400
62     H62     4.7877   -1.6070   -7.6096 H        1 ZINC000068120928    0.0700
63     H63     5.1045   -0.2848   -6.4597 H        1 ZINC000068120928    0.0800
64     H64     4.2137   -2.2731   -5.2843 H        1 ZINC000068120928    0.0900
65     H65     2.7713   -2.2490   -6.3267 H        1 ZINC000068120928    0.0500
66     H66     2.8390   -3.2750   -4.5391 H        1 ZINC000068120928    0.1300
67     H67     1.7463   -4.4182   -2.6535 H        1 ZINC000068120928    0.1700
68     H68    -0.2675   -2.8068   -0.1760 H        1 ZINC000068120928    0.4300
69     H69     3.0555   -6.7992   -1.1072 H        1 ZINC000068120928    0.2200
70     H70    -0.9847   -6.7515    2.2889 H        1 ZINC000068120928    0.4300
71     H71     2.2954   -8.0354    1.6794 H        1 ZINC000068120928    0.1700
72     H72     3.1023  -10.2336    2.4373 H        1 ZINC000068120928    0.1400
73     H73     1.5513  -11.8125    3.5131 H        1 ZINC000068120928    0.1300
74     H74    -0.8106  -11.1989    3.8344 H        1 ZINC000068120928    0.1500
75     H75    -2.3798   -7.9089    0.9547 H        1 ZINC000068120928    0.1300
76     H76    -3.1284   -9.8948   -0.2692 H        1 ZINC000068120928    0.0800
77     H77    -1.7702  -10.3388    0.7922 H        1 ZINC000068120928    0.0700
78     H78    -3.4369  -10.7550    1.2583 H        1 ZINC000068120928    0.0800
79     H79    -4.5084   -7.3156    2.0797 H        1 ZINC000068120928    0.0800
80     H80    -4.8118   -8.1744    0.5504 H        1 ZINC000068120928    0.0900
81     H81    -4.9758   -9.0330    2.1009 H        1 ZINC000068120928    0.0800
@<TRIPOS>BOND
1     1     2     1
2     1     42    1
3     1     43    1
4     1     44    1
5     2     3     1
6     3     21    ar
7     3     4     ar
8     4     5     ar
9     4     45    1
10    5     6     1
11    5     19    ar
12    6     18    1
13    6     7     1
14    7     8     1
15    7     46    1
16    7     47    1
17    8     9     1
18    8     48    1
19    8     49    1
20    9     10    1
21    9     17    1
22    9     50    1
23    10    16    1
24    10    11    1
25    11    12    1
26    11    51    1
27    11    52    1
28    12    13    1
29    12    53    1
30    12    54    1
31    13    14    1
32    13    15    1
33    14    55    1
34    14    56    1
35    14    57    1
36    15    16    1
37    15    58    1
38    15    59    1
39    16    60    1
40    16    61    1
41    17    18    1
42    17    62    1
43    17    63    1
44    18    64    1
45    18    65    1
46    19    20    ar
47    19    66    1
48    20    21    ar
49    20    67    1
50    21    22    1
51    22    23    1
52    22    68    1
53    23    41    ar
54    23    24    ar
55    24    25    ar
56    25    26    ar
57    25    69    1
58    26    27    ar
59    27    28    1
60    27    41    ar
61    28    29    1
62    28    70    1
63    29    34    ar
64    29    30    ar
65    30    31    ar
66    30    71    1
67    31    32    ar
68    31    72    1
69    32    33    ar
70    32    73    1
71    33    34    ar
72    33    74    1
73    34    35    1
74    35    36    2
75    35    37    2
76    35    38    1
77    38    39    1
78    38    40    1
79    38    75    1
80    39    76    1
81    39    77    1
82    39    78    1
83    40    79    1
84    40    80    1
85    40    81    1
@<TRIPOS>SUBSTRUCTURE
1   ZINC000068120928 1     RESIDUE    1   A     ZIN   1
