@<TRIPOS>MOLECULE
ZINC000016051711
52    51    1     0     0
SMALL
USER_CHARGES
@<TRIPOS>ATOM
1      C1     -0.1531    1.4749   -0.0125 C.3      1 ZINC000016051711   -0.1500
2      C2      0.1691   -0.0169    0.0941 C.3      1 ZINC000016051711   -0.1300
3      C3      0.6058   -0.5434   -1.2745 C.3      1 ZINC000016051711   -0.1200
4      C4      0.9281   -2.0353   -1.1678 C.3      1 ZINC000016051711   -0.1200
5      C5      1.3648   -2.5618   -2.5364 C.3      1 ZINC000016051711   -0.1200
6      C6      1.6871   -4.0536   -2.4298 C.3      1 ZINC000016051711   -0.1200
7      C7      2.1238   -4.5801   -3.7984 C.3      1 ZINC000016051711   -0.1200
8      C8      2.4461   -6.0720   -3.6918 C.3      1 ZINC000016051711   -0.1200
9      C9      2.8828   -6.5985   -5.0604 C.3      1 ZINC000016051711   -0.1200
10     C10     3.2051   -8.0904   -4.9538 C.3      1 ZINC000016051711   -0.1200
11     C11     3.6418   -8.6168   -6.3223 C.3      1 ZINC000016051711   -0.1500
12     C12     3.9641  -10.1087   -6.2157 C.3      1 ZINC000016051711   -0.0100
13     N13     4.3834  -10.6142   -7.5297 N.4      1 ZINC000016051711   -0.2400
14     C14     3.2982  -10.4158   -8.4998 C.3      1 ZINC000016051711   -0.0600
15     C15     5.5784   -9.8857   -7.9761 C.3      1 ZINC000016051711   -0.0600
16     C16     4.6928  -12.0466   -7.4274 C.3      1 ZINC000016051711   -0.0800
17     C17     5.1807  -12.5517   -8.7608 C.2      1 ZINC000016051711    0.4900
18     O18     5.1673  -11.8163   -9.7332 O.co2    1 ZINC000016051711   -0.6700
19     O19     5.5889  -13.6956   -8.8671 O.co2    1 ZINC000016051711   -0.6400
20     H20     0.7336    2.0155   -0.3437 H        1 ZINC000016051711    0.0500
21     H21    -0.9584    1.6222   -0.7322 H        1 ZINC000016051711    0.0500
22     H22    -0.4643    1.8500    0.9625 H        1 ZINC000016051711    0.0500
23     H23     0.9744   -0.1642    0.8139 H        1 ZINC000016051711    0.0600
24     H24    -0.7176   -0.5574    0.4253 H        1 ZINC000016051711    0.0600
25     H25    -0.1994   -0.3962   -1.9942 H        1 ZINC000016051711    0.0600
26     H26     1.4926   -0.0029   -1.6056 H        1 ZINC000016051711    0.0600
27     H27     1.7333   -2.1825   -0.4481 H        1 ZINC000016051711    0.0600
28     H28     0.0414   -2.5758   -0.8367 H        1 ZINC000016051711    0.0600
29     H29     0.5596   -2.4145   -3.2562 H        1 ZINC000016051711    0.0600
30     H30     2.2515   -2.0213   -2.8676 H        1 ZINC000016051711    0.0600
31     H31     2.4923   -4.2009   -1.7101 H        1 ZINC000016051711    0.0600
32     H32     0.8004   -4.5942   -2.0986 H        1 ZINC000016051711    0.0600
33     H33     1.3186   -4.4329   -4.5182 H        1 ZINC000016051711    0.0600
34     H34     3.0105   -4.0396   -4.1296 H        1 ZINC000016051711    0.0600
35     H35     3.2513   -6.2192   -2.9720 H        1 ZINC000016051711    0.0600
36     H36     1.5594   -6.6125   -3.3606 H        1 ZINC000016051711    0.0600
37     H37     2.0776   -6.4513   -5.7801 H        1 ZINC000016051711    0.0600
38     H38     3.7695   -6.0580   -5.3916 H        1 ZINC000016051711    0.0600
39     H39     4.0103   -8.2376   -4.2340 H        1 ZINC000016051711    0.0700
40     H40     2.3184   -8.6309   -4.6226 H        1 ZINC000016051711    0.0700
41     H41     2.8366   -8.4696   -7.0421 H        1 ZINC000016051711    0.0900
42     H42     4.5285   -8.0763   -6.6535 H        1 ZINC000016051711    0.0900
43     H43     4.7693  -10.2559   -5.4960 H        1 ZINC000016051711    0.1200
44     H44     3.0774  -10.6492   -5.8845 H        1 ZINC000016051711    0.1200
45     H45     3.0018   -9.3669   -8.5038 H        1 ZINC000016051711    0.1000
46     H46     3.6432  -10.6997   -9.4940 H        1 ZINC000016051711    0.1600
47     H47     2.4444  -11.0335   -8.2213 H        1 ZINC000016051711    0.1000
48     H48     6.4141  -10.1198   -7.3165 H        1 ZINC000016051711    0.1000
49     H49     5.8256  -10.1830   -8.9952 H        1 ZINC000016051711    0.1600
50     H50     5.3823   -8.8139   -7.9477 H        1 ZINC000016051711    0.1000
51     H51     5.4677  -12.1981   -6.6759 H        1 ZINC000016051711    0.1200
52     H52     3.7948  -12.5926   -7.1385 H        1 ZINC000016051711    0.1200
@<TRIPOS>BOND
1     1     2     1
2     1     20    1
3     1     21    1
4     1     22    1
5     2     3     1
6     2     23    1
7     2     24    1
8     3     4     1
9     3     25    1
10    3     26    1
11    4     5     1
12    4     27    1
13    4     28    1
14    5     6     1
15    5     29    1
16    5     30    1
17    6     7     1
18    6     31    1
19    6     32    1
20    7     8     1
21    7     33    1
22    7     34    1
23    8     9     1
24    8     35    1
25    8     36    1
26    9     10    1
27    9     37    1
28    9     38    1
29    10    11    1
30    10    39    1
31    10    40    1
32    11    12    1
33    11    41    1
34    11    42    1
35    12    13    1
36    12    43    1
37    12    44    1
38    13    14    1
39    13    15    1
40    13    16    1
41    14    45    1
42    14    46    1
43    14    47    1
44    15    48    1
45    15    49    1
46    15    50    1
47    16    17    1
48    16    51    1
49    16    52    1
50    17    18    ar
51    17    19    ar
@<TRIPOS>SUBSTRUCTURE
1   ZINC000016051711 1     RESIDUE    1   A     ZIN   1
