@<TRIPOS>MOLECULE
ZINC000000007697
  35   37    0    0    0
SMALL
USER_CHARGES
NO_NAME
@<TRIPOS>ATOM
    1 O1        0.0022    -0.0039    -0.0079 O.2    1 <0>      -0.4900
    2 C2       -0.0143     1.2089     0.0071 C.2    1 <0>       0.4900
    3 C3        1.2804     1.9802     0.0073 C.3    1 <0>       0.1200
    4 N4        2.4067     1.0436    -0.0121 N.am   1 <0>      -0.9100
    5 C5        2.9721     0.4379     1.0420 C.2    1 <0>       0.5500
    6 O6        2.5639     0.6338     2.1700 O.2    1 <0>      -0.4600
    7 C7        4.0995    -0.4702     0.7921 C.ar   1 <0>      -0.1100
    8 C8        4.8686    -1.2257     1.6931 C.ar   1 <0>      -0.0400
    9 C9        5.8942    -2.0211     1.2346 C.ar   1 <0>      -0.0800
   10 C10       6.1883    -2.0936    -0.1152 C.ar   1 <0>      -0.0900
   11 C11       5.4389    -1.3547    -1.0195 C.ar   1 <0>       0.0100
   12 C12       4.4199    -0.5638    -0.5685 C.ar   1 <0>      -0.6200
   13 S13       3.2461     0.5053    -1.3537 S.o2   1 <0>       2.6600
   14 O14       2.3653    -0.3112    -2.1131 O.2    1 <0>      -0.9000
   15 O15       3.9626     1.6139    -1.8799 O.2    1 <0>      -0.9200
   16 N16      -1.1906     1.8667     0.0178 N.am   1 <0>      -0.6700
   17 C17      -2.3926     1.1543    -0.0861 C.ar   1 <0>       0.1300
   18 C18      -3.4651     1.6992    -0.7794 C.ar   1 <0>      -0.1200
   19 C19      -4.6493     0.9963    -0.8819 C.ar   1 <0>      -0.1300
   20 C20      -4.7677    -0.2536    -0.2919 C.ar   1 <0>       0.0900
   21 O21      -5.9342    -0.9449    -0.3928 O.3    1 <0>      -0.5000
   22 C22      -3.6964    -0.7987     0.4006 C.ar   1 <0>      -0.1300
   23 C23      -2.5099    -0.0992     0.4993 C.ar   1 <0>      -0.1000
   24 H24       1.3232     2.6184    -0.8752 H      1 <0>       0.1300
   25 H25       1.3359     2.5966     0.9046 H      1 <0>       0.1400
   26 H26       4.6543    -1.1818     2.7507 H      1 <0>       0.1500
   27 H27       6.4776    -2.5963     1.9384 H      1 <0>       0.1500
   28 H28       6.9959    -2.7207    -0.4628 H      1 <0>       0.1500
   29 H29       5.6603    -1.4041    -2.0754 H      1 <0>       0.1500
   30 H30      -1.2050     2.8333     0.0975 H      1 <0>       0.4200
   31 H31      -3.3733     2.6726    -1.2382 H      1 <0>       0.1300
   32 H32      -5.4836     1.4200    -1.4211 H      1 <0>       0.1300
   33 H33      -5.9829    -1.5234    -1.1661 H      1 <0>       0.3900
   34 H34      -3.7892    -1.7719     0.8596 H      1 <0>       0.1300
   35 H35      -1.6758    -0.5239     1.0381 H      1 <0>       0.1400
@<TRIPOS>BOND
   1    1    2 2
   2    2    3 1
   3    2   16 am
   4    3    4 1
   5    3   24 1
   6    3   25 1
   7    4   13 am
   8    4    5 am
   9    5    6 2
  10    5    7 1
  11    7   12 ar
  12    7    8 ar
  13    8    9 ar
  14    8   26 1
  15    9   10 ar
  16    9   27 1
  17   10   11 ar
  18   10   28 1
  19   11   12 ar
  20   11   29 1
  21   12   13 1
  22   13   14 2
  23   13   15 2
  24   16   17 1
  25   16   30 1
  26   17   23 ar
  27   17   18 ar
  28   18   19 ar
  29   18   31 1
  30   19   20 ar
  31   19   32 1
  32   20   21 1
  33   20   22 ar
  34   21   33 1
  35   22   23 ar
  36   22   34 1
  37   23   35 1
