@<TRIPOS>MOLECULE
ZINC000071773625
60    61    1     0     0
SMALL
USER_CHARGES
@<TRIPOS>ATOM
1      C1     -1.3677    1.2172    1.3822 C.3      1 ZINC000071773625   -0.1700
2      C2     -1.0207   -0.2341    1.0443 C.3      1 ZINC000071773625    0.1200
3      H3     -0.3691   -0.2580    0.1708 H        1 ZINC000071773625    0.1000
4      O4     -0.3510   -0.8347    2.1546 O.3      1 ZINC000071773625   -0.5500
5      C5     -2.3053   -1.0088    0.7436 C.3      1 ZINC000071773625    0.0400
6      H6     -2.7701   -0.6064   -0.1565 H        1 ZINC000071773625    0.1100
7      N7     -3.2331   -0.8766    1.8749 N.3      1 ZINC000071773625   -0.8100
8      C8     -1.9763   -2.4641    0.5313 C.2      1 ZINC000071773625    0.5100
9      O9     -2.1503   -3.2622    1.4278 O.2      1 ZINC000071773625   -0.5300
10     N10    -1.4886   -2.8787   -0.6547 N.am     1 ZINC000071773625   -0.6000
11     C11    -1.2235   -2.0189   -1.8226 C.3      1 ZINC000071773625    0.1000
12     C12    -0.1490   -2.7794   -2.6392 C.3      1 ZINC000071773625   -0.1300
13     C13    -0.5949   -4.2527   -2.4446 C.3      1 ZINC000071773625   -0.1200
14     C14    -1.1269   -4.2622   -0.9961 C.3      1 ZINC000071773625    0.1300
15     H15    -2.0098   -4.8980   -0.9296 H        1 ZINC000071773625    0.0900
16     C16    -0.0591   -4.7689   -0.0612 C.2      1 ZINC000071773625    0.5300
17     O17     0.6633   -3.9844    0.5165 O.2      1 ZINC000071773625   -0.4900
18     N18     0.0932   -6.0939    0.1330 N.am     1 ZINC000071773625   -0.6000
19     C19    -0.6403   -7.1565   -0.5785 C.3      1 ZINC000071773625    0.1000
20     C20     0.2762   -8.4018   -0.4852 C.3      1 ZINC000071773625   -0.1300
21     C21     0.8670   -8.2476    0.9411 C.3      1 ZINC000071773625   -0.1300
22     C22     1.0229   -6.7191    1.0850 C.3      1 ZINC000071773625    0.1200
23     H23     0.7672   -6.4143    2.0997 H        1 ZINC000071773625    0.1000
24     C24     2.4409   -6.3168    0.7712 C.2      1 ZINC000071773625    0.5100
25     O25     2.6679   -5.5680   -0.1554 O.2      1 ZINC000071773625   -0.5100
26     N26     3.4569   -6.7891    1.5204 N.am     1 ZINC000071773625   -0.7200
27     C27     4.8354   -6.3980    1.2154 C.3      1 ZINC000071773625    0.0900
28     H28     4.9532   -6.2935    0.1369 H        1 ZINC000071773625    0.1200
29     C29     5.7816   -7.4549    1.7240 C.2      1 ZINC000071773625    0.5300
30     N30     7.1105   -7.3076    1.5544 N.am     1 ZINC000071773625   -0.8400
31     O31     5.3473   -8.4380    2.2859 O.2      1 ZINC000071773625   -0.5400
32     C32     5.1490   -5.0633    1.8945 C.3      1 ZINC000071773625    0.1000
33     H33     6.1425   -4.7285    1.5962 H        1 ZINC000071773625    0.1100
34     C34     4.1116   -4.0206    1.4732 C.3      1 ZINC000071773625   -0.1700
35     O35     5.1082   -5.2295    3.3132 O.3      1 ZINC000071773625   -0.5600
36     H36    -0.4525    1.7692    1.5964 H        1 ZINC000071773625    0.0600
37     H37    -1.8785    1.6753    0.5352 H        1 ZINC000071773625    0.0700
38     H38    -2.0193    1.2411    2.2557 H        1 ZINC000071773625    0.0700
39     H39    -0.8732   -0.8482    2.9684 H        1 ZINC000071773625    0.3700
40     H40    -4.1142   -1.3256    1.6743 H        1 ZINC000071773625    0.3500
41     H41    -2.8251   -1.2429    2.7219 H        1 ZINC000071773625    0.3500
42     H42    -2.1302   -1.8922   -2.4141 H        1 ZINC000071773625    0.0800
43     H43    -0.8406   -1.0502   -1.5014 H        1 ZINC000071773625    0.0800
44     H44    -0.1846   -2.4961   -3.6911 H        1 ZINC000071773625    0.0900
45     H45     0.8457   -2.6143   -2.2252 H        1 ZINC000071773625    0.0800
46     H46    -1.3833   -4.5135   -3.1506 H        1 ZINC000071773625    0.0900
47     H47     0.2539   -4.9291   -2.5457 H        1 ZINC000071773625    0.0900
48     H48    -1.5952   -7.3507   -0.0901 H        1 ZINC000071773625    0.0700
49     H49    -0.7962   -6.8774   -1.6206 H        1 ZINC000071773625    0.0800
50     H50    -0.3036   -9.3209   -0.5707 H        1 ZINC000071773625    0.0900
51     H51     1.0621   -8.3660   -1.2396 H        1 ZINC000071773625    0.0800
52     H52     0.1779   -8.6407    1.6886 H        1 ZINC000071773625    0.0900
53     H53     1.8367   -8.7402    1.0122 H        1 ZINC000071773625    0.0900
54     H54     3.2753   -7.3880    2.2616 H        1 ZINC000071773625    0.4100
55     H55     7.4579   -6.5213    1.1050 H        1 ZINC000071773625    0.4000
56     H56     7.7196   -7.9879    1.8818 H        1 ZINC000071773625    0.4100
57     H57     3.1181   -4.3554    1.7714 H        1 ZINC000071773625    0.0700
58     H58     4.3350   -3.0697    1.9569 H        1 ZINC000071773625    0.0600
59     H59     4.1426   -3.8938    0.3910 H        1 ZINC000071773625    0.0800
60     H60     4.2519   -5.5267    3.6500 H        1 ZINC000071773625    0.3800
@<TRIPOS>BOND
1     1     2     1
2     1     36    1
3     1     37    1
4     1     38    1
5     2     3     1
6     2     4     1
7     2     5     1
8     4     39    1
9     5     6     1
10    5     7     1
11    5     8     1
12    7     40    1
13    7     41    1
14    8     9     2
15    8     10    am
16    10    14    1
17    10    11    1
18    11    12    1
19    11    42    1
20    11    43    1
21    12    13    1
22    12    44    1
23    12    45    1
24    13    14    1
25    13    46    1
26    13    47    1
27    14    15    1
28    14    16    1
29    16    17    2
30    16    18    am
31    18    22    1
32    18    19    1
33    19    20    1
34    19    48    1
35    19    49    1
36    20    21    1
37    20    50    1
38    20    51    1
39    21    22    1
40    21    52    1
41    21    53    1
42    22    23    1
43    22    24    1
44    24    25    2
45    24    26    am
46    26    27    1
47    26    54    1
48    27    28    1
49    27    29    1
50    27    32    1
51    29    30    am
52    29    31    2
53    30    55    1
54    30    56    1
55    32    33    1
56    32    34    1
57    32    35    1
58    34    57    1
59    34    58    1
60    34    59    1
61    35    60    1
@<TRIPOS>SUBSTRUCTURE
1   ZINC000071773625 1     RESIDUE    1   A     ZIN   1
