@<TRIPOS>MOLECULE
ZINC000005114517
  55   57    0    0    0
SMALL
USER_CHARGES
NO_NAME
@<TRIPOS>ATOM
    1 C1       -0.0187     1.5258     0.0104 C.3    1 <0>      -0.1400
    2 C2        0.0021    -0.0041     0.0020 C.3    1 <0>      -0.0600
    3 C3       -1.4208    -0.5624    -0.0659 C.3    1 <0>      -0.1500
    4 C4        0.8610    -0.5349    -1.1760 C.3    1 <0>      -0.1200
    5 C5        1.3089    -1.9163    -0.6366 C.3    1 <0>       0.0900
    6 N6        1.5395    -1.7023     0.8037 N.am   1 <0>      -0.5900
    7 C7        2.3473    -2.4427     1.5884 C.2    1 <0>       0.5300
    8 O8        2.4618    -2.1741     2.7655 O.2    1 <0>      -0.5100
    9 C9        3.1082    -3.6044     1.0031 C.3    1 <0>       0.1400
   10 H10       3.7664    -3.2458     0.2116 H      1 <0>       0.1300
   11 C11       2.1217    -4.6208     0.4247 C.3    1 <0>      -0.0800
   12 C12       2.8829    -5.7213    -0.2684 C.2    1 <0>       0.0400
   13 C13       3.3357    -5.6932    -1.5364 C.2    1 <0>       0.0500
   14 N14       3.9676    -6.8871    -1.7579 N.pl3  1 <0>      -0.5000
   15 C15       3.8789    -7.6037    -0.6167 C.cat  1 <0>       0.3100
   16 N16       3.2333    -6.8982     0.2713 N.pl3  1 <0>      -0.4700
   17 H17       3.0335    -7.1823     1.1770 H      1 <0>       0.4600
   18 N18       3.9081    -4.2423     2.0517 N.am   1 <0>      -0.7100
   19 C19       5.0155    -4.9377     1.7254 C.2    1 <0>       0.5000
   20 O20       5.3499    -5.0354     0.5637 O.2    1 <0>      -0.5300
   21 C21       5.8383    -5.5939     2.8041 C.3    1 <0>       0.1100
   22 H22       5.1870    -6.0456     3.5523 H      1 <0>       0.1200
   23 C23       6.7753    -4.5592     3.4657 C.3    1 <0>      -0.1200
   24 C24       8.0728    -4.7379     2.6437 C.3    1 <0>      -0.1600
   25 C25       7.9844    -6.1522     2.1139 C.2    1 <0>       0.5300
   26 O26       8.9152    -6.7831     1.6593 O.2    1 <0>      -0.5100
   27 N27       6.7228    -6.6095     2.2210 N.am   1 <0>      -0.7200
   28 C28       0.7430    -0.5469     1.2421 C.3    1 <0>       0.1200
   29 H29       1.3991     0.2229     1.6484 H      1 <0>       0.1000
   30 C30      -0.2513    -0.9776     2.2895 C.2    1 <0>       0.5200
   31 N31      -0.8201    -0.0601     3.0964 N.am   1 <0>      -0.8500
   32 O32      -0.5397    -2.1498     2.4062 O.2    1 <0>      -0.5400
   33 H33       1.0039     1.9031     0.0027 H      1 <0>       0.0700
   34 H34      -0.5459     1.8868    -0.8726 H      1 <0>       0.0700
   35 H35      -0.5289     1.8773     0.9072 H      1 <0>       0.0600
   36 H36      -1.9101    -0.2011    -0.9704 H      1 <0>       0.0700
   37 H37      -1.3832    -1.6516    -0.0834 H      1 <0>       0.0600
   38 H38      -1.9827    -0.2322     0.8078 H      1 <0>       0.0600
   39 H39       0.2606    -0.6442    -2.0792 H      1 <0>       0.1000
   40 H40       1.7200     0.1115    -1.3556 H      1 <0>       0.0900
   41 H41       0.5230    -2.6561    -0.7891 H      1 <0>       0.0800
   42 H42       2.2300    -2.2339    -1.1252 H      1 <0>       0.0800
   43 H43       1.5229    -5.0451     1.2306 H      1 <0>       0.1100
   44 H44       1.4672    -4.1247    -0.2919 H      1 <0>       0.1300
   45 H45       3.2218    -4.8843    -2.2429 H      1 <0>       0.2200
   46 H46       4.3986    -7.1662    -2.5808 H      1 <0>       0.4700
   47 H47       4.2795    -8.5948    -0.4630 H      1 <0>       0.2600
   48 H48       3.6406    -4.1641     2.9808 H      1 <0>       0.4200
   49 H49       6.3803    -3.5492     3.3563 H      1 <0>       0.1000
   50 H50       6.9424    -4.7995     4.5156 H      1 <0>       0.1100
   51 H51       8.1047    -4.0236     1.8210 H      1 <0>       0.1100
   52 H52       8.9482    -4.6241     3.2831 H      1 <0>       0.1100
   53 H53       6.4367    -7.4952     1.9478 H      1 <0>       0.4100
   54 H54      -0.5895     0.8774     3.0030 H      1 <0>       0.4000
   55 H55      -1.4601    -0.3373     3.7705 H      1 <0>       0.4100
@<TRIPOS>BOND
   1    1    2 1
   2    1   33 1
   3    1   34 1
   4    1   35 1
   5    2   28 1
   6    2    3 1
   7    2    4 1
   8    3   36 1
   9    3   37 1
  10    3   38 1
  11    4    5 1
  12    4   39 1
  13    4   40 1
  14    5    6 1
  15    5   41 1
  16    5   42 1
  17    6    7 am
  18    6   28 1
  19    7    8 2
  20    7    9 1
  21    9   10 1
  22    9   11 1
  23    9   18 1
  24   11   12 1
  25   11   43 1
  26   11   44 1
  27   12   16 1
  28   12   13 2
  29   13   14 1
  30   13   45 1
  31   14   15 ar
  32   14   46 1
  33   15   16 ar
  34   15   47 1
  35   16   17 1
  36   18   19 am
  37   18   48 1
  38   19   20 2
  39   19   21 1
  40   21   22 1
  41   21   27 1
  42   21   23 1
  43   23   24 1
  44   23   49 1
  45   23   50 1
  46   24   25 1
  47   24   51 1
  48   24   52 1
  49   25   26 2
  50   25   27 am
  51   27   53 1
  52   28   29 1
  53   28   30 1
  54   30   31 am
  55   30   32 2
  56   31   54 1
  57   31   55 1
