@<TRIPOS>MOLECULE
ZINC000003816325
  42   44    0    0    0
SMALL
NO_CHARGES


@<TRIPOS>ATOM
   1 O1            -0.0173     1.4248     0.0099 O.3     
   2 C2             0.0021    -0.0041     0.0020 C.3     
   3 C3             0.1889    -0.6288     1.3964 C.3     
   4 N4            -1.2879    -0.6247     1.4873 N.4     
   5 H5            -1.6546     0.2201     1.8993 H       
   6 C6            -1.8269    -1.8386     2.1150 C.3     
   7 C7            -3.3554    -1.8077     2.0559 C.3     
   8 C8            -3.9168    -3.0719     2.7097 C.3     
   9 O9            -5.3444    -3.0430     2.6544 O.3     
  10 C10           -5.9720    -4.1848     3.2414 C.3     
  11 C11           -7.4915    -4.0472     3.1260 C.3     
  12 C12           -8.1533    -5.2513     3.7451 C.ar    
  13 C13           -8.4204    -6.3671     2.9639 C.ar    
  14 C14           -9.0239    -7.4711     3.5184 C.ar    
  15 C15           -9.3716    -7.4761     4.8727 C.ar    
  16 S16          -10.1412    -8.7185     5.8515 S.3     
  17 C17          -10.0879    -7.7150     7.2878 C.2     
  18 C18           -9.5344    -6.5452     7.0372 C.2     
  19 C19           -9.1034    -6.3541     5.6618 C.ar    
  20 C20           -8.4788    -5.2370     5.0669 C.ar    
  21 C21           -1.3985    -0.6427     0.0120 C.3     
  22 H22            0.8606     1.8301     0.0037 H       
  23 H23            0.6666    -0.4157    -0.7576 H       
  24 H24            0.6248    -1.6276     1.3753 H       
  25 H25            0.6748     0.0335     2.1129 H       
  26 H26           -1.4604    -2.7163     1.5827 H       
  27 H27           -1.5044    -1.8836     3.1553 H       
  28 H28           -3.7220    -0.9299     2.5882 H       
  29 H29           -3.6779    -1.7627     1.0156 H       
  30 H30           -3.5503    -3.9497     2.1773 H       
  31 H31           -3.5943    -3.1169     3.7499 H       
  32 H32           -5.6481    -5.0856     2.7202 H       
  33 H33           -5.6922    -4.2528     4.2927 H       
  34 H34           -7.8154    -3.1464     3.6473 H       
  35 H35           -7.7713    -3.9791     2.0748 H       
  36 H36           -8.1537    -6.3679     1.9173 H       
  37 H37           -9.2303    -8.3366     2.9062 H       
  38 H38          -10.4614    -8.0167     8.2552 H       
  39 H39           -9.4108    -5.7863     7.7957 H       
  40 H40           -8.2604    -4.3638     5.6636 H       
  41 H41           -2.1809     0.0085    -0.3778 H       
  42 H42           -1.4269    -1.6456    -0.4141 H       
@<TRIPOS>BOND
   1    1    2 1
   2    1   22 1
   3    2   21 1
   4    2    3 1
   5    2   23 1
   6    3    4 1
   7    3   24 1
   8    3   25 1
   9    4    5 1
  10    4    6 1
  11    4   21 1
  12    6    7 1
  13    6   26 1
  14    6   27 1
  15    7    8 1
  16    7   28 1
  17    7   29 1
  18    8    9 1
  19    8   30 1
  20    8   31 1
  21    9   10 1
  22   10   11 1
  23   10   32 1
  24   10   33 1
  25   11   12 1
  26   11   34 1
  27   11   35 1
  28   12   20 ar
  29   12   13 ar
  30   13   14 ar
  31   13   36 1
  32   14   15 ar
  33   14   37 1
  34   15   19 ar
  35   15   16 1
  36   16   17 1
  37   17   18 2
  38   17   38 1
  39   18   19 1
  40   18   39 1
  41   19   20 ar
  42   20   40 1
  43   21   41 1
  44   21   42 1


