@<TRIPOS>MOLECULE
ZINC000000001428
28    29    1     0     0
SMALL
USER_CHARGES
@<TRIPOS>ATOM
1      O1      0.0838   -0.4520    0.2899 O.co2    1 ZINC000000001428   -0.6800
2      C2      0.1839    0.7577    0.1762 C.2      1 ZINC000000001428    0.5000
3      O3      1.2841    1.2828    0.1950 O.co2    1 ZINC000000001428   -0.7100
4      C4     -1.0518    1.6034    0.0064 C.3      1 ZINC000000001428   -0.1500
5      C5     -2.2711    0.7178    0.0103 C.ar     1 ZINC000000001428   -0.0400
6      C6     -2.8059    0.2728   -1.1828 C.ar     1 ZINC000000001428   -0.0900
7      C7     -3.9245   -0.5404   -1.1800 C.ar     1 ZINC000000001428   -0.1500
8      C8     -4.5106   -0.9096    0.0164 C.ar     1 ZINC000000001428   -0.1100
9      C9     -3.9797   -0.4672    1.2127 C.ar     1 ZINC000000001428   -0.1900
10     C10    -2.8541    0.3439    1.2129 C.ar     1 ZINC000000001428    0.1300
11     O11    -2.3297    0.7800    2.3881 O.3      1 ZINC000000001428   -0.2400
12     C12    -2.8728    0.3108    3.5424 C.ar     1 ZINC000000001428    0.1100
13     C13    -3.8679    1.0320    4.1851 C.ar     1 ZINC000000001428   -0.1100
14     C14    -4.4192    0.5533    5.3582 C.ar     1 ZINC000000001428   -0.1000
15     C15    -3.9796   -0.6448    5.8923 C.ar     1 ZINC000000001428   -0.0300
16     Cl16   -4.6743   -1.2435    7.3663 Cl       1 ZINC000000001428   -0.0600
17     C17    -2.9871   -1.3669    5.2530 C.ar     1 ZINC000000001428   -0.1000
18     C18    -2.4362   -0.8943    4.0769 C.ar     1 ZINC000000001428   -0.0400
19     Cl19   -1.1916   -1.8004    3.2747 Cl       1 ZINC000000001428    0.0000
20     H20    -1.1189    2.3176    0.8271 H        1 ZINC000000001428    0.0700
21     H21    -0.9966    2.1415   -0.9399 H        1 ZINC000000001428    0.0700
22     H22    -2.3503    0.5603   -2.1189 H        1 ZINC000000001428    0.1200
23     H23    -4.3411   -0.8873   -2.1141 H        1 ZINC000000001428    0.1200
24     H24    -5.3846   -1.5442    0.0158 H        1 ZINC000000001428    0.1200
25     H25    -4.4382   -0.7557    2.1470 H        1 ZINC000000001428    0.1200
26     H26    -4.2115    1.9676    3.7691 H        1 ZINC000000001428    0.1500
27     H27    -5.1939    1.1151    5.8589 H        1 ZINC000000001428    0.1400
28     H28    -2.6452   -2.3020    5.6716 H        1 ZINC000000001428    0.1500
@<TRIPOS>BOND
1     1     2     ar
2     2     3     ar
3     2     4     1
4     4     5     1
5     4     20    1
6     4     21    1
7     5     10    ar
8     5     6     ar
9     6     7     ar
10    6     22    1
11    7     8     ar
12    7     23    1
13    8     9     ar
14    8     24    1
15    9     10    ar
16    9     25    1
17    10    11    1
18    11    12    1
19    12    18    ar
20    12    13    ar
21    13    14    ar
22    13    26    1
23    14    15    ar
24    14    27    1
25    15    16    1
26    15    17    ar
27    17    18    ar
28    17    28    1
29    18    19    1
@<TRIPOS>SUBSTRUCTURE
1   ZINC000000001428 1     RESIDUE    1   A     ZIN   1
