@<TRIPOS>MOLECULE
ZINC000000579981
  38   40    0    0    0
SMALL
USER_CHARGES
NO_NAME
@<TRIPOS>ATOM
    1 C1       -0.1676     1.5033    -0.5517 C.3    1 <0>      -0.1700
    2 C2       -0.1536    -0.0035    -0.5699 C.2    1 <0>       0.5200
    3 O3        0.7596    -0.5951    -1.1058 O.2    1 <0>      -0.5200
    4 N4       -1.1558    -0.6938     0.0094 N.am   1 <0>      -0.6700
    5 C5       -1.1922    -2.0901    -0.0884 C.ar   1 <0>       0.1600
    6 C6       -0.0102    -2.8179    -0.0922 C.ar   1 <0>      -0.0900
    7 C7       -0.0486    -4.1955    -0.1888 C.ar   1 <0>      -0.0900
    8 C8       -1.2637    -4.8505    -0.2823 C.ar   1 <0>      -0.0200
    9 Cl9      -1.3077    -6.5816    -0.4041 Cl     1 <0>      -0.0400
   10 C10      -2.4443    -4.1281    -0.2784 C.ar   1 <0>      -0.0600
   11 C11      -3.7660    -4.8449    -0.3794 C.3    1 <0>       0.1000
   12 O12      -4.2361    -5.1642     0.9317 O.3    1 <0>      -0.2900
   13 C13      -5.4240    -5.8170     1.0188 C.ar   1 <0>       0.1500
   14 C14      -5.9549    -6.1603     2.2753 C.ar   1 <0>      -0.0400
   15 C15      -5.2961    -5.8505     3.4778 C.ar   1 <0>      -0.1300
   16 C16      -5.8766    -6.2171     4.6544 C.ar   1 <0>       0.0700
   17 N17      -7.0389    -6.8541     4.6930 N.ar   1 <0>      -0.4800
   18 C18      -7.7092    -7.1751     3.6113 C.ar   1 <0>       0.1400
   19 C19      -7.1973    -6.8423     2.3465 C.ar   1 <0>      -0.0800
   20 C20      -7.8757    -7.1628     1.1604 C.ar   1 <0>      -0.1300
   21 C21      -7.3337    -6.8157    -0.0405 C.ar   1 <0>      -0.0800
   22 C22      -6.1180    -6.1418    -0.1141 C.ar   1 <0>      -0.2100
   23 C23      -2.4120    -2.7504    -0.1762 C.ar   1 <0>      -0.0300
   24 Cl24     -3.8929    -1.8445    -0.1708 Cl     1 <0>      -0.0400
   25 H25       0.7170     1.8811    -1.0645 H      1 <0>       0.1000
   26 H26      -1.0629     1.8645    -1.0577 H      1 <0>       0.1000
   27 H27      -0.1669     1.8542     0.4802 H      1 <0>       0.1000
   28 H28      -1.8520    -0.2232     0.4940 H      1 <0>       0.4200
   29 H29       0.9388    -2.3075    -0.0199 H      1 <0>       0.1600
   30 H30       0.8710    -4.7618    -0.1917 H      1 <0>       0.1500
   31 H31      -4.4908    -4.2019    -0.8787 H      1 <0>       0.0800
   32 H32      -3.6386    -5.7628    -0.9533 H      1 <0>       0.0900
   33 H33      -4.3485    -5.3325     3.4690 H      1 <0>       0.1400
   34 H34      -5.3758    -5.9826     5.5820 H      1 <0>       0.1500
   35 H35      -8.6525    -7.6946     3.6936 H      1 <0>       0.1700
   36 H36      -8.8220    -7.6819     1.1993 H      1 <0>       0.1400
   37 H37      -7.8584    -7.0643    -0.9511 H      1 <0>       0.1300
   38 H38      -5.7125    -5.8795    -1.0801 H      1 <0>       0.1300
@<TRIPOS>BOND
   1    1    2 1
   2    1   25 1
   3    1   26 1
   4    1   27 1
   5    2    3 2
   6    2    4 am
   7    4    5 1
   8    4   28 1
   9    5   23 ar
  10    5    6 ar
  11    6    7 ar
  12    6   29 1
  13    7    8 ar
  14    7   30 1
  15    8    9 1
  16    8   10 ar
  17   10   11 1
  18   10   23 ar
  19   11   12 1
  20   11   31 1
  21   11   32 1
  22   12   13 1
  23   13   22 ar
  24   13   14 ar
  25   14   19 ar
  26   14   15 ar
  27   15   16 ar
  28   15   33 1
  29   16   17 ar
  30   16   34 1
  31   17   18 ar
  32   18   19 ar
  33   18   35 1
  34   19   20 ar
  35   20   21 ar
  36   20   36 1
  37   21   22 ar
  38   21   37 1
  39   22   38 1
  40   23   24 1
