@<TRIPOS>MOLECULE
ZINC000001999529
  52   55    0    0    0
SMALL
USER_CHARGES
NO_NAME
@<TRIPOS>ATOM
    1 O1        0.0021    -0.0041     0.0020 O.2    1 <0>      -0.4600
    2 C2       -0.0144     1.2113     0.0087 C.2    1 <0>       0.5400
    3 C3       -1.2835     1.9509     0.0310 C.ar   1 <0>      -0.1200
    4 C4       -2.6060     1.4767     0.0468 C.ar   1 <0>      -0.0300
    5 C5       -3.6612     2.3604     0.0664 C.ar   1 <0>      -0.0800
    6 C6       -3.4438     3.7266     0.0710 C.ar   1 <0>      -0.0900
    7 C7       -2.1444     4.2128     0.0556 C.ar   1 <0>       0.0100
    8 C8       -1.0940     3.3390     0.0361 C.ar   1 <0>      -0.6200
    9 S9        0.6672     3.5253     0.0121 S.o2   1 <0>       2.6600
   10 O10       1.0211     4.0829    -1.2461 O.2    1 <0>      -0.9100
   11 O11       1.0564     4.0731     1.2642 O.2    1 <0>      -0.9200
   12 N12       1.1252     1.9176     0.0016 N.am   1 <0>      -0.9300
   13 C13       2.4913     1.3890    -0.0188 C.3    1 <0>       0.1400
   14 C14       2.9416     1.0841     1.4113 C.3    1 <0>      -0.1500
   15 C15       4.3683     0.5320     1.3900 C.3    1 <0>      -0.1500
   16 C16       4.8186     0.2271     2.8201 C.3    1 <0>      -0.0100
   17 N17       6.1885    -0.3030     2.7997 N.4    1 <0>      -0.3800
   18 H18       6.2294    -1.1023     2.1853 H      1 <0>       0.4200
   19 C19       6.5739    -0.7107     4.1566 C.3    1 <0>      -0.0200
   20 C20       7.9572    -1.3686     4.1177 C.3    1 <0>       0.1100
   21 N21       8.8976    -0.4391     3.4728 N.pl3  1 <0>      -0.6100
   22 C22      10.1082    -0.1259     4.0661 C.ar   1 <0>       0.5600
   23 N23      10.4207    -0.6787     5.2289 N.ar   1 <0>      -0.5700
   24 C24      11.5697    -0.4011     5.8225 C.ar   1 <0>       0.2000
   25 C25      12.4501     0.4792     5.2133 C.ar   1 <0>      -0.2700
   26 C26      12.0916     1.0395     3.9973 C.ar   1 <0>       0.2000
   27 N27      10.9294     0.7155     3.4552 N.ar   1 <0>      -0.5700
   28 C28       8.5150     0.1477     2.1792 C.3    1 <0>       0.1100
   29 C29       7.1057     0.7346     2.3117 C.3    1 <0>      -0.0300
   30 H30      -2.7956     0.4134     0.0431 H      1 <0>       0.1500
   31 H31      -4.6727     1.9820     0.0780 H      1 <0>       0.1500
   32 H32      -4.2799     4.4101     0.0861 H      1 <0>       0.1500
   33 H33      -1.9638     5.2776     0.0587 H      1 <0>       0.1500
   34 H34       2.5182     0.4743    -0.6110 H      1 <0>       0.1100
   35 H35       3.1602     2.1276    -0.4606 H      1 <0>       0.1000
   36 H36       2.9148     1.9988     2.0035 H      1 <0>       0.0900
   37 H37       2.2727     0.3455     1.8531 H      1 <0>       0.0900
   38 H38       4.3952    -0.3827     0.7978 H      1 <0>       0.1000
   39 H39       5.0372     1.2706     0.9482 H      1 <0>       0.0900
   40 H40       4.7918     1.1418     3.4123 H      1 <0>       0.1300
   41 H41       4.1498    -0.5115     3.2619 H      1 <0>       0.1400
   42 H42       6.6063     0.1656     4.8040 H      1 <0>       0.1300
   43 H43       5.8441    -1.4218     4.5436 H      1 <0>       0.1400
   44 H44       8.2906    -1.5808     5.1335 H      1 <0>       0.1400
   45 H45       7.9065    -2.2944     3.5447 H      1 <0>       0.0900
   46 H46      11.8188    -0.8546     6.7705 H      1 <0>       0.1800
   47 H47      13.3947     0.7236     5.6763 H      1 <0>       0.1500
   48 H48      12.7549     1.7293     3.4966 H      1 <0>       0.1800
   49 H49       9.2172     0.9379     1.9134 H      1 <0>       0.1400
   50 H50       8.5206    -0.6251     1.4105 H      1 <0>       0.0900
   51 H51       6.7663     1.0884     1.3382 H      1 <0>       0.1500
   52 H52       7.1233     1.5671     3.0151 H      1 <0>       0.1300
@<TRIPOS>BOND
   1    1    2 2
   2    2   12 am
   3    2    3 1
   4    3    8 ar
   5    3    4 ar
   6    4    5 ar
   7    4   30 1
   8    5    6 ar
   9    5   31 1
  10    6    7 ar
  11    6   32 1
  12    7    8 ar
  13    7   33 1
  14    8    9 1
  15    9   10 2
  16    9   11 2
  17    9   12 am
  18   12   13 1
  19   13   14 1
  20   13   34 1
  21   13   35 1
  22   14   15 1
  23   14   36 1
  24   14   37 1
  25   15   16 1
  26   15   38 1
  27   15   39 1
  28   16   17 1
  29   16   40 1
  30   16   41 1
  31   17   18 1
  32   17   29 1
  33   17   19 1
  34   19   20 1
  35   19   42 1
  36   19   43 1
  37   20   21 1
  38   20   44 1
  39   20   45 1
  40   21   22 1
  41   21   28 1
  42   22   27 ar
  43   22   23 ar
  44   23   24 ar
  45   24   25 ar
  46   24   46 1
  47   25   26 ar
  48   25   47 1
  49   26   27 ar
  50   26   48 1
  51   28   29 1
  52   28   49 1
  53   28   50 1
  54   29   51 1
  55   29   52 1
