@<TRIPOS>MOLECULE
ZINC000072266314
  33   35    0    0    0
SMALL
USER_CHARGES
NO_NAME
@<TRIPOS>ATOM
    1 F1        0.0021    -0.0041     0.0020 F      1 <0>      -0.0900
    2 C2       -0.0162     1.3468     0.0094 C.2    1 <0>       0.1300
    3 C3       -1.1969     2.0038     0.0299 C.2    1 <0>       0.0400
    4 N4       -1.2320     3.3695     0.0376 N.pl3  1 <0>      -0.3100
    5 C5       -2.2634     4.2682     0.0572 C.2    1 <0>      -0.0100
    6 C6       -1.7164     5.5037     0.0558 C.2    1 <0>       0.1100
    7 C7       -2.4794     6.8032     0.0741 C.3    1 <0>      -0.0700
    8 C8       -2.8249     7.1714     1.5184 C.3    1 <0>       0.0000
    9 C9       -3.5703     8.4407     1.5362 C.1    1 <0>      -0.1600
   10 C10      -4.1647     9.4529     1.5504 C.1    1 <0>      -0.0900
   11 C11      -4.8898    10.6877     1.5678 C.ar   1 <0>       0.2100
   12 C12      -5.1719    11.3415     0.3683 C.ar   1 <0>      -0.1400
   13 C13      -5.8740    12.5337     0.4017 C.ar   1 <0>      -0.0700
   14 C14      -6.2717    13.0344     1.6333 C.ar   1 <0>      -0.1600
   15 C15      -5.9582    12.3342     2.7842 C.ar   1 <0>       0.1100
   16 N16      -5.2933    11.1988     2.7255 N.ar   1 <0>      -0.4700
   17 N17      -0.3872     5.3813     0.0361 N.pl3  1 <0>      -0.5000
   18 H18       0.2452     6.1168     0.0314 H      1 <0>       0.4600
   19 C19      -0.0690     4.0939     0.0248 C.cat  1 <0>       0.2900
   20 C20       1.1703     3.4237     0.0030 C.2    1 <0>      -0.0900
   21 C21       1.1933     2.0637     0.0017 C.2    1 <0>      -0.0500
   22 H22      -2.1207     1.4445     0.0398 H      1 <0>       0.2100
   23 H23      -3.3176     4.0339     0.0707 H      1 <0>       0.2300
   24 H24      -1.8667     7.5905    -0.3650 H      1 <0>       0.1100
   25 H25      -3.3978     6.6933    -0.5025 H      1 <0>       0.1200
   26 H26      -3.4376     6.3841     1.9575 H      1 <0>       0.1000
   27 H27      -1.9065     7.2813     2.0950 H      1 <0>       0.1000
   28 H28      -4.8469    10.9236    -0.5730 H      1 <0>       0.1400
   29 H29      -6.1068    13.0629    -0.5105 H      1 <0>       0.1500
   30 H30      -6.8206    13.9626     1.6927 H      1 <0>       0.1500
   31 H31      -6.2666    12.7218     3.7439 H      1 <0>       0.1700
   32 H32       2.0933     3.9845    -0.0072 H      1 <0>       0.1900
   33 H33       2.1361     1.5371    -0.0145 H      1 <0>       0.1900
@<TRIPOS>BOND
   1    1    2 1
   2    2   21 1
   3    2    3 2
   4    3    4 1
   5    3   22 1
   6    4   19 ar
   7    4    5 1
   8    5    6 2
   9    5   23 1
  10    6    7 1
  11    6   17 1
  12    7    8 1
  13    7   24 1
  14    7   25 1
  15    8    9 1
  16    8   26 1
  17    8   27 1
  18    9   10 3
  19   10   11 1
  20   11   16 ar
  21   11   12 ar
  22   12   13 ar
  23   12   28 1
  24   13   14 ar
  25   13   29 1
  26   14   15 ar
  27   14   30 1
  28   15   16 ar
  29   15   31 1
  30   17   18 1
  31   17   19 ar
  32   19   20 1
  33   20   21 2
  34   20   32 1
  35   21   33 1
