@<TRIPOS>MOLECULE
ZINC000113191351
41    44    1     0     0
SMALL
USER_CHARGES
@<TRIPOS>ATOM
1      C1      0.2865    1.9928   -0.1107 C.3      1 ZINC000113191351   -0.1600
2      C2      0.1302    0.4731   -0.0269 C.3      1 ZINC000113191351    0.1000
3      N3      0.7415   -0.1464   -1.2053 N.am     1 ZINC000113191351   -0.5300
4      C4      0.0007   -0.3495   -2.3112 C.2      1 ZINC000113191351    0.5100
5      O5     -1.1539    0.0209   -2.3360 O.2      1 ZINC000113191351   -0.5000
6      C6      0.5905   -1.0318   -3.5189 C.3      1 ZINC000113191351    0.1200
7      N7      2.0354   -0.7632   -3.5635 N.pl3    1 ZINC000113191351   -0.7200
8      C8      2.7485   -0.8275   -2.3677 C.ar     1 ZINC000113191351    0.3300
9      N9      4.0242   -1.1715   -2.3536 N.ar     1 ZINC000113191351   -0.4500
10     C10     4.6780   -1.2295   -1.2041 C.ar     1 ZINC000113191351    0.0800
11     C11     4.0243   -0.9291   -0.0131 C.ar     1 ZINC000113191351    0.1100
12     C12     4.7606   -0.9972    1.2714 C.ar     1 ZINC000113191351   -0.0800
13     C13     6.0150   -0.3915    1.4024 C.ar     1 ZINC000113191351   -0.0500
14     C14     6.6640   -0.4805    2.6189 C.ar     1 ZINC000113191351   -0.1400
15     C15     6.0522   -1.1657    3.6676 C.ar     1 ZINC000113191351    0.2200
16     C16     6.7408   -1.2662    4.9769 C.2      1 ZINC000113191351    0.2700
17     N17     7.9156   -0.7503    5.2671 N.2      1 ZINC000113191351   -0.2900
18     N18     8.1829   -1.0826    6.6051 N.pl3    1 ZINC000113191351   -0.4800
19     C19     7.1265   -1.7930    7.0413 C.2      1 ZINC000113191351    0.2600
20     N20     6.2668   -1.8927    6.0628 N.2      1 ZINC000113191351   -0.5100
21     N21     4.8607   -1.7290    3.5086 N.ar     1 ZINC000113191351   -0.4400
22     C22     4.2097   -1.6610    2.3675 C.ar     1 ZINC000113191351    0.1700
23     C23     2.8595   -2.3179    2.2394 C.3      1 ZINC000113191351   -0.1000
24     N24     2.7378   -0.5797   -0.0239 N.ar     1 ZINC000113191351   -0.4200
25     C25     2.0855   -0.5143   -1.1721 C.ar     1 ZINC000113191351    0.2900
26     H26     1.3457    2.2476   -0.1469 H        1 ZINC000113191351    0.0600
27     H27    -0.2064    2.3597   -1.0110 H        1 ZINC000113191351    0.0600
28     H28    -0.1683    2.4538    0.7661 H        1 ZINC000113191351    0.0700
29     H29     0.6231    0.1063    0.8734 H        1 ZINC000113191351    0.1000
30     H30    -0.9290    0.2183    0.0093 H        1 ZINC000113191351    0.0900
31     H31     0.4214   -2.1064   -3.4496 H        1 ZINC000113191351    0.1000
32     H32     0.1196   -0.6449   -4.4226 H        1 ZINC000113191351    0.1300
33     H33     2.4785   -0.5482   -4.3991 H        1 ZINC000113191351    0.4200
34     H34     5.7208   -1.5101   -1.1906 H        1 ZINC000113191351    0.1800
35     H35     6.4653    0.1328    0.5725 H        1 ZINC000113191351    0.1500
36     H36     7.6337   -0.0251    2.7556 H        1 ZINC000113191351    0.1500
37     H37     8.9738   -0.8465    7.1148 H        1 ZINC000113191351    0.4500
38     H38     7.0079   -2.2064    8.0320 H        1 ZINC000113191351    0.2300
39     H39     2.0779   -1.5810    2.4246 H        1 ZINC000113191351    0.0900
40     H40     2.7463   -2.7227    1.2337 H        1 ZINC000113191351    0.0700
41     H41     2.7776   -3.1251    2.9674 H        1 ZINC000113191351    0.0800
@<TRIPOS>BOND
1     1     2     1
2     1     26    1
3     1     27    1
4     1     28    1
5     2     3     1
6     2     29    1
7     2     30    1
8     3     25    1
9     3     4     am
10    4     5     2
11    4     6     1
12    6     7     1
13    6     31    1
14    6     32    1
15    7     8     1
16    7     33    1
17    8     25    ar
18    8     9     ar
19    9     10    ar
20    10    11    ar
21    10    34    1
22    11    12    1
23    11    24    ar
24    12    22    ar
25    12    13    ar
26    13    14    ar
27    13    35    1
28    14    15    ar
29    14    36    1
30    15    16    1
31    15    21    ar
32    16    20    1
33    16    17    2
34    17    18    1
35    18    19    1
36    18    37    1
37    19    20    2
38    19    38    1
39    21    22    ar
40    22    23    1
41    23    39    1
42    23    40    1
43    23    41    1
44    24    25    ar
@<TRIPOS>SUBSTRUCTURE
1   ZINC000113191351 1     RESIDUE    1   A     ZIN   1
