@<TRIPOS>MOLECULE
ZINC000003873638
  41   43    0    0    0
SMALL
USER_CHARGES
NO_NAME
@<TRIPOS>ATOM
    1 O1        0.0021    -0.0041     0.0020 O.2    1 <0>      -0.6000
    2 C2       -0.0144     1.2086     0.0087 C.2    1 <0>       0.4500
    3 C3        1.2803     1.9798     0.0005 C.3    1 <0>      -0.1400
    4 C4        2.4566     1.0015    -0.0160 C.3    1 <0>      -0.1000
    5 C5        3.7710     1.7845    -0.0244 C.3    1 <0>      -0.1100
    6 C6        4.9473     0.8061    -0.0408 C.3    1 <0>      -0.1300
    7 C7        6.2617     1.5891    -0.0492 C.3    1 <0>       0.1000
    8 N8        7.3880     0.6524    -0.0650 N.am   1 <0>      -0.5600
    9 C9        7.8942     0.2272     1.1082 C.2    1 <0>       0.5700
   10 O10       7.4139     0.6230     2.1530 O.2    1 <0>      -0.4900
   11 C11       9.0241    -0.7133     1.1329 C.ar   1 <0>      -0.1600
   12 C12       9.5765    -1.1764     2.3179 C.ar   1 <0>      -0.0100
   13 C13      10.6449    -2.0651     2.2898 C.ar   1 <0>      -0.1400
   14 C14      11.1785    -2.5054     1.1126 C.ar   1 <0>      -0.0500
   15 C15      10.6477    -2.0601    -0.1107 C.ar   1 <0>      -0.0800
   16 C16      11.1621    -2.4837    -1.3485 C.ar   1 <0>      -0.0500
   17 C17      10.6129    -2.0227    -2.5106 C.ar   1 <0>      -0.1400
   18 C18       9.5444    -1.1338    -2.5088 C.ar   1 <0>      -0.0100
   19 C19       9.0081    -0.6914    -1.3085 C.ar   1 <0>      -0.1600
   20 C20       9.5634    -1.1582    -0.0955 C.ar   1 <0>       0.0100
   21 C21       7.8752     0.2441    -1.2521 C.2    1 <0>       0.5700
   22 O22       7.3785     0.6552    -2.2833 O.2    1 <0>      -0.4900
   23 N23      -1.1906     1.8666     0.0178 N.am   1 <0>      -0.5400
   24 O24      -2.4072     1.1420     0.0197 O.3    1 <0>      -0.6900
   25 H25       1.3211     2.6120    -0.8866 H      1 <0>       0.0700
   26 H26       1.3381     2.6024     0.8933 H      1 <0>       0.0700
   27 H27       2.4158     0.3693     0.8710 H      1 <0>       0.0700
   28 H28       2.3988     0.3789    -0.9088 H      1 <0>       0.0700
   29 H29       3.8118     2.4166    -0.9114 H      1 <0>       0.0600
   30 H30       3.8288     2.4070     0.8685 H      1 <0>       0.0600
   31 H31       4.9065     0.1740     0.8462 H      1 <0>       0.0700
   32 H32       4.8896     0.1836    -0.9337 H      1 <0>       0.0700
   33 H33       6.3025     2.2213    -0.9362 H      1 <0>       0.1000
   34 H34       6.3195     2.2117     0.8436 H      1 <0>       0.1000
   35 H35       9.1758    -0.8455     3.2647 H      1 <0>       0.1500
   36 H36      11.0634    -2.4155     3.2217 H      1 <0>       0.1400
   37 H37      12.0090    -3.1958     1.1212 H      1 <0>       0.1400
   38 H38      11.9922    -3.1737    -1.3804 H      1 <0>       0.1400
   39 H39      11.0189    -2.3566    -3.4540 H      1 <0>       0.1400
   40 H40       9.1309    -0.7865    -3.4441 H      1 <0>       0.1500
   41 H41      -1.2037     2.8365     0.0232 H      1 <0>       0.3600
@<TRIPOS>BOND
   1    1    2 2
   2    2    3 1
   3    2   23 am
   4    3    4 1
   5    3   25 1
   6    3   26 1
   7    4    5 1
   8    4   27 1
   9    4   28 1
  10    5    6 1
  11    5   29 1
  12    5   30 1
  13    6    7 1
  14    6   31 1
  15    6   32 1
  16    7    8 1
  17    7   33 1
  18    7   34 1
  19    8   21 am
  20    8    9 am
  21    9   10 2
  22    9   11 1
  23   11   20 ar
  24   11   12 ar
  25   12   13 ar
  26   12   35 1
  27   13   14 ar
  28   13   36 1
  29   14   15 ar
  30   14   37 1
  31   15   20 ar
  32   15   16 ar
  33   16   17 ar
  34   16   38 1
  35   17   18 ar
  36   17   39 1
  37   18   19 ar
  38   18   40 1
  39   19   20 ar
  40   19   21 1
  41   21   22 2
  42   23   24 1
  43   23   41 1
