@<TRIPOS>MOLECULE
ZINC000003931933
80    83    1     0     0
SMALL
USER_CHARGES
@<TRIPOS>ATOM
1      C1      0.2431    0.9425    0.6444 C.3      1 ZINC000003931933    0.0200
2      O2     -0.4690    0.4871   -0.5078 O.3      1 ZINC000003931933   -0.3000
3      C3      0.2338   -0.2314   -1.4239 C.ar     1 ZINC000003931933    0.1100
4      C4      1.5773   -0.4969   -1.2154 C.ar     1 ZINC000003931933   -0.1700
5      C5      2.2904   -1.2281   -2.1477 C.ar     1 ZINC000003931933   -0.1000
6      C6      1.6658   -1.6949   -3.2889 C.ar     1 ZINC000003931933   -0.0900
7      C7      2.4478   -2.4907   -4.3019 C.3      1 ZINC000003931933    0.1000
8      C8      3.5537   -3.1906   -3.6282 C.1      1 ZINC000003931933    0.2000
9      N9      4.4072   -3.7308   -3.1084 N.1      1 ZINC000003931933   -0.3900
10     C10     3.0137   -1.5471   -5.3650 C.3      1 ZINC000003931933   -0.0900
11     C11     3.9096   -2.3359   -6.3222 C.3      1 ZINC000003931933   -0.1300
12     C12     4.4755   -1.3923   -7.3853 C.3      1 ZINC000003931933   -0.1100
13     C13     5.3713   -2.1811   -8.3425 C.3      1 ZINC000003931933   -0.1600
14     C14     5.9373   -1.2376   -9.4057 C.3      1 ZINC000003931933    0.0500
15     N15     6.7974   -1.9949  -10.3247 N.3      1 ZINC000003931933   -0.5300
16     C16     6.0585   -3.1077  -10.9421 C.3      1 ZINC000003931933    0.0500
17     C17     6.8635   -3.6215  -12.1360 C.3      1 ZINC000003931933   -0.0700
18     C18     8.2891   -3.8826  -11.7214 C.ar     1 ZINC000003931933   -0.0600
19     C19     9.0791   -4.6758  -12.5400 C.ar     1 ZINC000003931933   -0.1700
20     C20    10.3947   -4.9387  -12.2013 C.ar     1 ZINC000003931933    0.1000
21     O21    11.1653   -5.7172  -13.0073 O.3      1 ZINC000003931933   -0.3100
22     C22    10.5520   -6.2324  -14.1908 C.3      1 ZINC000003931933    0.0300
23     C23    10.9255   -4.4022  -11.0322 C.ar     1 ZINC000003931933    0.1000
24     O24    12.2178   -4.6530  -10.6910 O.3      1 ZINC000003931933   -0.3100
25     C25    12.6933   -4.0686   -9.4767 C.3      1 ZINC000003931933    0.0300
26     C26    10.1326   -3.6129  -10.2182 C.ar     1 ZINC000003931933   -0.1700
27     C27     8.8133   -3.3540  -10.5606 C.ar     1 ZINC000003931933   -0.0800
28     C28     7.9892   -2.4979   -9.6346 C.3      1 ZINC000003931933    0.0900
29     S29     1.3552   -3.7049   -5.0909 S.3      1 ZINC000003931933   -0.0500
30     C30     0.8494   -4.7188   -3.7416 C.ar     1 ZINC000003931933   -0.1100
31     C31     1.2788   -4.4277   -2.4523 C.ar     1 ZINC000003931933   -0.1200
32     C32     0.8804   -5.2245   -1.3973 C.ar     1 ZINC000003931933   -0.1000
33     C33     0.0551   -6.3112   -1.6225 C.ar     1 ZINC000003931933   -0.0800
34     C34    -0.3774   -7.1785   -0.4684 C.3      1 ZINC000003931933   -0.1200
35     C35    -0.3745   -6.6038   -2.9041 C.ar     1 ZINC000003931933   -0.1000
36     C36     0.0155   -5.8083   -3.9632 C.ar     1 ZINC000003931933   -0.0900
37     C37     0.3248   -1.4337   -3.5029 C.ar     1 ZINC000003931933   -0.1500
38     C38    -0.3966   -0.7064   -2.5704 C.ar     1 ZINC000003931933    0.1100
39     O39    -1.7154   -0.4487   -2.7794 O.3      1 ZINC000003931933   -0.3000
40     C40    -2.2643   -0.8524   -4.0355 C.3      1 ZINC000003931933    0.0200
41     H41     0.6416    0.0855    1.1875 H        1 ZINC000003931933    0.0600
42     H42     1.0637    1.5885    0.3326 H        1 ZINC000003931933    0.0600
43     H43    -0.4328    1.5007    1.2922 H        1 ZINC000003931933    0.1000
44     H44     2.0679   -0.1327   -0.3249 H        1 ZINC000003931933    0.1400
45     H45     3.3378   -1.4344   -1.9840 H        1 ZINC000003931933    0.1300
46     H46     2.1938   -1.0957   -5.9236 H        1 ZINC000003931933    0.1000
47     H47     3.5986   -0.7644   -4.8819 H        1 ZINC000003931933    0.0900
48     H48     4.7294   -2.7874   -5.7636 H        1 ZINC000003931933    0.0600
49     H49     3.3247   -3.1186   -6.8053 H        1 ZINC000003931933    0.0800
50     H50     3.6556   -0.9409   -7.9440 H        1 ZINC000003931933    0.0700
51     H51     5.0604   -0.6097   -6.9022 H        1 ZINC000003931933    0.0700
52     H52     6.1912   -2.6326   -7.7839 H        1 ZINC000003931933    0.0600
53     H53     4.7864   -2.9638   -8.8257 H        1 ZINC000003931933    0.0700
54     H54     5.1174   -0.7861   -9.9643 H        1 ZINC000003931933    0.0800
55     H55     6.5221   -0.4549   -8.9225 H        1 ZINC000003931933    0.0800
56     H56     5.9293   -3.9096  -10.2152 H        1 ZINC000003931933    0.0400
57     H57     5.0839   -2.7566  -11.2814 H        1 ZINC000003931933    0.0800
58     H58     6.4178   -4.5466  -12.5017 H        1 ZINC000003931933    0.0800
59     H59     6.8485   -2.8755  -12.9305 H        1 ZINC000003931933    0.0800
60     H60     8.6649   -5.0910  -13.4469 H        1 ZINC000003931933    0.1400
61     H61     9.6969   -6.8504  -13.9173 H        1 ZINC000003931933    0.0500
62     H62    10.2171   -5.4048  -14.8161 H        1 ZINC000003931933    0.0600
63     H63    11.2744   -6.8348  -14.7415 H        1 ZINC000003931933    0.1000
64     H64    12.6123   -2.9834   -9.5396 H        1 ZINC000003931933    0.0500
65     H65    12.0943   -4.4298   -8.6407 H        1 ZINC000003931933    0.0500
66     H66    13.7360   -4.3468   -9.3235 H        1 ZINC000003931933    0.1000
67     H67    10.5431   -3.1960   -9.3104 H        1 ZINC000003931933    0.1300
68     H68     8.5903   -1.6548   -9.2940 H        1 ZINC000003931933    0.0900
69     H69     7.6826   -3.0915   -8.7734 H        1 ZINC000003931933    0.0500
70     H70     1.9235   -3.5794   -2.2758 H        1 ZINC000003931933    0.1300
71     H71     1.2140   -4.9991   -0.3952 H        1 ZINC000003931933    0.1200
72     H72    -1.3063   -6.7903   -0.0504 H        1 ZINC000003931933    0.0700
73     H73    -0.5352   -8.1983   -0.8194 H        1 ZINC000003931933    0.0700
74     H74     0.3963   -7.1741    0.2994 H        1 ZINC000003931933    0.0700
75     H75    -1.0192   -7.4530   -3.0762 H        1 ZINC000003931933    0.1300
76     H76    -0.3206   -6.0371   -4.9638 H        1 ZINC000003931933    0.1300
77     H77    -0.1609   -1.7996   -4.3954 H        1 ZINC000003931933    0.1500
78     H78    -2.2304   -1.9390   -4.1144 H        1 ZINC000003931933    0.0600
79     H79    -3.2984   -0.5151   -4.1054 H        1 ZINC000003931933    0.1000
80     H80    -1.6826   -0.4110   -4.8448 H        1 ZINC000003931933    0.0600
@<TRIPOS>BOND
1     1     2     1
2     1     41    1
3     1     42    1
4     1     43    1
5     2     3     1
6     3     38    ar
7     3     4     ar
8     4     5     ar
9     4     44    1
10    5     6     ar
11    5     45    1
12    6     7     1
13    6     37    ar
14    7     8     1
15    7     10    1
16    7     29    1
17    8     9     3
18    10    11    1
19    10    46    1
20    10    47    1
21    11    12    1
22    11    48    1
23    11    49    1
24    12    13    1
25    12    50    1
26    12    51    1
27    13    14    1
28    13    52    1
29    13    53    1
30    14    15    1
31    14    54    1
32    14    55    1
33    15    28    1
34    15    16    1
35    16    17    1
36    16    56    1
37    16    57    1
38    17    18    1
39    17    58    1
40    17    59    1
41    18    27    ar
42    18    19    ar
43    19    20    ar
44    19    60    1
45    20    21    1
46    20    23    ar
47    21    22    1
48    22    61    1
49    22    62    1
50    22    63    1
51    23    24    1
52    23    26    ar
53    24    25    1
54    25    64    1
55    25    65    1
56    25    66    1
57    26    27    ar
58    26    67    1
59    27    28    1
60    28    68    1
61    28    69    1
62    29    30    1
63    30    36    ar
64    30    31    ar
65    31    32    ar
66    31    70    1
67    32    33    ar
68    32    71    1
69    33    34    1
70    33    35    ar
71    34    72    1
72    34    73    1
73    34    74    1
74    35    36    ar
75    35    75    1
76    36    76    1
77    37    38    ar
78    37    77    1
79    38    39    1
80    39    40    1
81    40    78    1
82    40    79    1
83    40    80    1
@<TRIPOS>SUBSTRUCTURE
1   ZINC000003931933 1     RESIDUE    1   A     ZIN   1
