@<TRIPOS>MOLECULE
ZINC000003802462
61    65    1     0     0
SMALL
USER_CHARGES
@<TRIPOS>ATOM
1      C1      0.2951    1.3761    0.3485 C.3      1 ZINC000003802462   -0.1300
2      C2      0.2033   -0.1376    0.1454 C.3      1 ZINC000003802462   -0.0100
3      C3     -1.2369   -0.6384    0.2789 C.3      1 ZINC000003802462   -0.0900
4      C4     -1.6930   -0.5916    1.7347 C.3      1 ZINC000003802462   -0.1200
5      C5     -0.8058   -1.5336    2.5556 C.3      1 ZINC000003802462   -0.0700
6      H6     -0.8482   -2.5379    2.1341 H        1 ZINC000003802462    0.0700
7      C7      0.6301   -1.0141    2.5031 C.3      1 ZINC000003802462   -0.1000
8      H8      0.6539   -0.0132    2.9343 H        1 ZINC000003802462    0.0800
9      C9      1.5348   -1.9257    3.3357 C.3      1 ZINC000003802462   -0.1200
10     C10     1.0497   -1.9379    4.7865 C.3      1 ZINC000003802462   -0.1200
11     C11    -0.3883   -2.4571    4.8406 C.3      1 ZINC000003802462   -0.0700
12     H12    -0.7335   -2.4623    5.8745 H        1 ZINC000003802462    0.0800
13     C13    -0.4397   -3.8792    4.2791 C.3      1 ZINC000003802462   -0.1100
14     C14    -1.8783   -4.3975    4.3357 C.3      1 ZINC000003802462    0.1000
15     H15    -1.9153   -5.4112    3.9368 H        1 ZINC000003802462    0.0500
16     O16    -2.3300   -4.4023    5.6915 O.3      1 ZINC000003802462   -0.5600
17     C17    -2.7810   -3.4873    3.5004 C.3      1 ZINC000003802462   -0.1500
18     C18    -2.7297   -2.0647    4.0614 C.3      1 ZINC000003802462   -0.1000
19     C19    -1.3026   -1.5610    4.0026 C.3      1 ZINC000003802462   -0.0400
20     C20    -1.2407   -0.1399    4.5663 C.3      1 ZINC000003802462   -0.1500
21     C21     1.1340   -0.8981    1.1060 C.3      1 ZINC000003802462    0.1500
22     O22     2.4195   -0.2742    1.1211 O.3      1 ZINC000003802462   -0.5500
23     C23     1.2634   -2.2637    0.4065 C.3      1 ZINC000003802462   -0.1500
24     C24     1.3444   -1.8946   -1.0928 C.3      1 ZINC000003802462   -0.1500
25     C25     0.7213   -0.5643   -1.2541 C.3      1 ZINC000003802462    0.2100
26     O26    -0.3796   -0.6447   -2.1616 O.3      1 ZINC000003802462   -0.5500
27     C27     1.7387    0.4258   -1.7598 C.2      1 ZINC000003802462   -0.1900
28     C28     1.5151    1.4374   -2.6178 C.2      1 ZINC000003802462   -0.0300
29     O29     2.6729    2.0879   -2.8180 O.3      1 ZINC000003802462   -0.1800
30     C30     3.6443    1.5054   -2.0963 C.2      1 ZINC000003802462   -0.0600
31     C31     3.1099    0.4734   -1.4189 C.2      1 ZINC000003802462   -0.1700
32     H32     1.3356    1.6909    0.2689 H        1 ZINC000003802462    0.0700
33     H33    -0.2969    1.8816   -0.4145 H        1 ZINC000003802462    0.0500
34     H34    -0.0881    1.6341    1.3358 H        1 ZINC000003802462    0.0500
35     H35    -1.8928   -0.0094   -0.3231 H        1 ZINC000003802462    0.0700
36     H36    -1.2948   -1.6651   -0.0824 H        1 ZINC000003802462    0.0600
37     H37    -1.5977    0.4253    2.1155 H        1 ZINC000003802462    0.0700
38     H38    -2.7317   -0.9148    1.8033 H        1 ZINC000003802462    0.0700
39     H39     1.5005   -2.9378    2.9326 H        1 ZINC000003802462    0.0700
40     H40     2.5587   -1.5540    3.2980 H        1 ZINC000003802462    0.0600
41     H41     1.6931   -2.5881    5.3791 H        1 ZINC000003802462    0.0600
42     H42     1.0858   -0.9259    5.1900 H        1 ZINC000003802462    0.0700
43     H43    -0.0957   -3.8743    3.2449 H        1 ZINC000003802462    0.0800
44     H44     0.2039   -4.5280    4.8732 H        1 ZINC000003802462    0.0700
45     H45    -3.2365   -4.7200    5.8029 H        1 ZINC000003802462    0.3700
46     H46    -2.4357   -3.4828    2.4666 H        1 ZINC000003802462    0.0700
47     H47    -3.8057   -3.8566    3.5397 H        1 ZINC000003802462    0.0600
48     H48    -3.3721   -1.4161    3.4658 H        1 ZINC000003802462    0.0600
49     H49    -3.0763   -2.0691    5.0948 H        1 ZINC000003802462    0.0700
50     H50    -1.5824   -0.1444    5.6014 H        1 ZINC000003802462    0.0500
51     H51    -0.2138    0.2231    4.5243 H        1 ZINC000003802462    0.0600
52     H52    -1.8817    0.5138    3.9749 H        1 ZINC000003802462    0.0600
53     H53     3.0828   -0.7524    1.6371 H        1 ZINC000003802462    0.3700
54     H54     2.1721   -2.7740    0.7258 H        1 ZINC000003802462    0.0700
55     H55     0.3864   -2.8804    0.6031 H        1 ZINC000003802462    0.0800
56     H56     2.3859   -1.8528   -1.4113 H        1 ZINC000003802462    0.0800
57     H57     0.8006   -2.6283   -1.6879 H        1 ZINC000003802462    0.0700
58     H58    -0.1345   -0.9284   -3.0530 H        1 ZINC000003802462    0.3700
59     H59     0.5657    1.6842   -3.0696 H        1 ZINC000003802462    0.2000
60     H60     4.6783    1.8156   -2.0622 H        1 ZINC000003802462    0.2000
61     H61     3.6302   -0.1952   -0.7490 H        1 ZINC000003802462    0.1500
@<TRIPOS>BOND
1     1     2     1
2     1     32    1
3     1     33    1
4     1     34    1
5     2     21    1
6     2     25    1
7     2     3     1
8     3     4     1
9     3     35    1
10    3     36    1
11    4     5     1
12    4     37    1
13    4     38    1
14    5     6     1
15    5     19    1
16    5     7     1
17    7     8     1
18    7     9     1
19    7     21    1
20    9     10    1
21    9     39    1
22    9     40    1
23    10    11    1
24    10    41    1
25    10    42    1
26    11    12    1
27    11    19    1
28    11    13    1
29    13    14    1
30    13    43    1
31    13    44    1
32    14    15    1
33    14    16    1
34    14    17    1
35    16    45    1
36    17    18    1
37    17    46    1
38    17    47    1
39    18    19    1
40    18    48    1
41    18    49    1
42    19    20    1
43    20    50    1
44    20    51    1
45    20    52    1
46    21    22    1
47    21    23    1
48    22    53    1
49    23    24    1
50    23    54    1
51    23    55    1
52    24    25    1
53    24    56    1
54    24    57    1
55    25    26    1
56    25    27    1
57    26    58    1
58    27    31    1
59    27    28    2
60    28    29    1
61    28    59    1
62    29    30    1
63    30    31    2
64    30    60    1
65    31    61    1
@<TRIPOS>SUBSTRUCTURE
1   ZINC000003802462 1     RESIDUE    1   A     ZIN   1
