@<TRIPOS>MOLECULE
ZINC000003934228
57    63    1     0     0
SMALL
USER_CHARGES
@<TRIPOS>ATOM
1      C1      1.1235   -0.5637    0.2899 C.2      1 ZINC000003934228   -0.1900
2      C2     -0.0124    0.0204   -0.0009 C.2      1 ZINC000003934228   -0.1100
3      C3     -0.0388    1.4870   -0.3465 C.3      1 ZINC000003934228   -0.1100
4      C4     -1.2929   -0.7742    0.0103 C.3      1 ZINC000003934228    0.0900
5      N5     -1.6038   -1.2209   -1.3542 N.3      1 ZINC000003934228   -0.5100
6      C6     -0.6732   -2.2697   -1.7894 C.3      1 ZINC000003934228    0.0500
7      C7     -0.9486   -2.6191   -3.2558 C.3      1 ZINC000003934228   -0.1000
8      C8     -2.4044   -3.0555   -3.3954 C.3      1 ZINC000003934228   -0.0200
9      C9     -2.6849   -4.2245   -2.4849 C.ar     1 ZINC000003934228   -0.1600
10     C10    -3.0562   -4.1586   -1.1608 C.ar     1 ZINC000003934228   -0.0300
11     C11    -3.2458   -5.3742   -0.5267 C.ar     1 ZINC000003934228   -0.1300
12     C12    -3.1236   -6.5578   -1.2355 C.ar     1 ZINC000003934228   -0.1000
13     C13    -2.8312   -6.6053   -2.5968 C.ar     1 ZINC000003934228    0.0900
14     O14    -2.7503   -7.7869   -3.2653 O.3      1 ZINC000003934228   -0.4800
15     C15    -2.6254   -5.3822   -3.2460 C.ar     1 ZINC000003934228    0.1000
16     O16    -2.3987   -5.0822   -4.5423 O.3      1 ZINC000003934228   -0.2900
17     C17    -2.6674   -3.6704   -4.7660 C.3      1 ZINC000003934228    0.1600
18     H18    -2.0003   -3.2542   -5.5208 H        1 ZINC000003934228    0.1300
19     C19    -4.1101   -3.5282   -5.1759 C.2      1 ZINC000003934228    0.0500
20     C20    -5.0691   -2.9794   -4.4010 C.2      1 ZINC000003934228   -0.1300
21     C21    -4.8251   -2.4317   -3.0194 C.3      1 ZINC000003934228   -0.0700
22     C22    -3.3404   -1.9492   -2.9276 C.3      1 ZINC000003934228    0.1800
23     O23    -3.1524   -0.7808   -3.7286 O.3      1 ZINC000003934228   -0.5300
24     C24    -3.0001   -1.6553   -1.4594 C.3      1 ZINC000003934228    0.0700
25     H25    -3.6293   -0.8283   -1.1304 H        1 ZINC000003934228    0.0900
26     C26    -3.2666   -2.8233   -0.5238 C.3      1 ZINC000003934228   -0.1100
27     C27    -6.3091   -3.0349   -5.1461 C.ar     1 ZINC000003934228   -0.1100
28     C28    -7.6123   -2.6240   -4.8517 C.ar     1 ZINC000003934228   -0.0600
29     C29    -8.5647   -2.8418   -5.8170 C.ar     1 ZINC000003934228   -0.1500
30     C30    -8.2606   -3.4389   -7.0290 C.ar     1 ZINC000003934228   -0.1000
31     C31    -6.9788   -3.8542   -7.3470 C.ar     1 ZINC000003934228   -0.1300
32     C32    -5.9914   -3.6459   -6.3867 C.ar     1 ZINC000003934228    0.1100
33     N33    -4.6559   -3.9262   -6.3708 N.pl3    1 ZINC000003934228   -0.5800
34     H34     2.0411    0.0058    0.2819 H        1 ZINC000003934228    0.1000
35     H35     1.1418   -1.6137    0.5419 H        1 ZINC000003934228    0.0900
36     H36     0.1783    1.6144   -1.4070 H        1 ZINC000003934228    0.0700
37     H37    -1.0255    1.8946   -0.1261 H        1 ZINC000003934228    0.0600
38     H38     0.7116    2.0129    0.2437 H        1 ZINC000003934228    0.0600
39     H39    -1.1761   -1.6423    0.6590 H        1 ZINC000003934228    0.0400
40     H40    -2.1050   -0.1495    0.3820 H        1 ZINC000003934228    0.0800
41     H41     0.3513   -1.9118   -1.6873 H        1 ZINC000003934228    0.0800
42     H42    -0.8114   -3.1573   -1.1721 H        1 ZINC000003934228    0.0400
43     H43    -0.7687   -1.7435   -3.8796 H        1 ZINC000003934228    0.0900
44     H44    -0.2925   -3.4320   -3.5668 H        1 ZINC000003934228    0.0700
45     H45    -3.4897   -5.3999    0.5251 H        1 ZINC000003934228    0.1300
46     H46    -3.2613   -7.4895   -0.7070 H        1 ZINC000003934228    0.1300
47     H47    -3.5891   -8.0820   -3.6454 H        1 ZINC000003934228    0.3900
48     H48    -5.4965   -1.5933   -2.8341 H        1 ZINC000003934228    0.0800
49     H49    -4.9986   -3.2135   -2.2799 H        1 ZINC000003934228    0.0900
50     H50    -3.7060   -0.0320   -3.4679 H        1 ZINC000003934228    0.3800
51     H51    -4.2971   -2.7621   -0.1740 H        1 ZINC000003934228    0.0900
52     H52    -2.6033   -2.7391    0.3371 H        1 ZINC000003934228    0.0900
53     H53    -7.8588   -2.1576   -3.9093 H        1 ZINC000003934228    0.1300
54     H54    -9.5831   -2.5380   -5.6247 H        1 ZINC000003934228    0.1200
55     H55    -9.0506   -3.5860   -7.7506 H        1 ZINC000003934228    0.1200
56     H56    -6.7547   -4.3186   -8.2960 H        1 ZINC000003934228    0.1300
57     H57    -4.1656   -4.3450   -7.0954 H        1 ZINC000003934228    0.4200
@<TRIPOS>BOND
1     1     2     2
2     1     34    1
3     1     35    1
4     2     3     1
5     2     4     1
6     3     36    1
7     3     37    1
8     3     38    1
9     4     5     1
10    4     39    1
11    4     40    1
12    5     24    1
13    5     6     1
14    6     7     1
15    6     41    1
16    6     42    1
17    7     8     1
18    7     43    1
19    7     44    1
20    8     17    1
21    8     22    1
22    8     9     1
23    9     15    ar
24    9     10    ar
25    10    26    1
26    10    11    ar
27    11    12    ar
28    11    45    1
29    12    13    ar
30    12    46    1
31    13    14    1
32    13    15    ar
33    14    47    1
34    15    16    1
35    16    17    1
36    17    18    1
37    17    19    1
38    19    33    1
39    19    20    2
40    20    21    1
41    20    27    1
42    21    22    1
43    21    48    1
44    21    49    1
45    22    23    1
46    22    24    1
47    23    50    1
48    24    25    1
49    24    26    1
50    26    51    1
51    26    52    1
52    27    32    ar
53    27    28    ar
54    28    29    ar
55    28    53    1
56    29    30    ar
57    29    54    1
58    30    31    ar
59    30    55    1
60    31    32    ar
61    31    56    1
62    32    33    1
63    33    57    1
@<TRIPOS>SUBSTRUCTURE
1   ZINC000003934228 1     RESIDUE    1   A     ZIN   1
