@<TRIPOS>MOLECULE
ZINC000149738712
42    46    1     0     0
SMALL
USER_CHARGES
@<TRIPOS>ATOM
1      C1     -0.0187    1.5258    0.0104 C.3      1 ZINC000149738712   -0.1700
2      C2      0.0021   -0.0041    0.0020 C.3      1 ZINC000149738712    0.2100
3      H3      0.5123   -0.3556   -0.8948 H        1 ZINC000149738712    0.1400
4      C4      0.7309   -0.5033    1.2229 C.2      1 ZINC000149738712   -0.1000
5      C5      1.8402   -1.2587    1.0809 C.2      1 ZINC000149738712    0.1100
6      N6      2.5121   -1.7194    2.1759 N.pl3    1 ZINC000149738712   -0.3300
7      C7      3.6363   -2.4867    2.3170 C.2      1 ZINC000149738712   -0.0200
8      C8      3.8527   -2.6377    3.6421 C.2      1 ZINC000149738712    0.0700
9      N9      2.8956   -1.9864    4.3073 N.pl3    1 ZINC000149738712   -0.5000
10     H10     2.8174   -1.9352    5.2728 H        1 ZINC000149738712    0.4700
11     C11     2.0697   -1.4207    3.4385 C.cat    1 ZINC000149738712    0.3100
12     C12     0.9132   -0.6322    3.6034 C.2      1 ZINC000149738712   -0.1200
13     C13     0.2559   -0.1755    2.5036 C.2      1 ZINC000149738712    0.0000
14     N14    -1.3723   -0.5112    0.0124 N.pl3    1 ZINC000149738712   -0.3900
15     N15    -2.3463   -0.2745    0.9933 N.2      1 ZINC000149738712    0.0200
16     N16    -3.4352   -0.8780    0.6709 N.2      1 ZINC000149738712   -0.1700
17     C17    -3.2790   -1.5336   -0.4959 C.ar     1 ZINC000149738712    0.1200
18     N18    -4.0994   -2.2890   -1.2302 N.ar     1 ZINC000149738712   -0.3600
19     C19    -3.6739   -2.8188   -2.3554 C.ar     1 ZINC000149738712    0.0800
20     C20    -2.3619   -2.5968   -2.7927 C.ar     1 ZINC000149738712    0.2700
21     C21    -1.8938   -3.1997   -4.0637 C.2      1 ZINC000149738712   -0.2300
22     C22    -2.6307   -3.9831   -4.9055 C.2      1 ZINC000149738712    0.1100
23     N23    -1.8400   -4.3239   -5.9414 N.pl3    1 ZINC000149738712   -0.3600
24     C24    -2.2295   -5.1595   -7.0800 C.3      1 ZINC000149738712    0.0900
25     N25    -0.5823   -3.7417   -5.7434 N.2      1 ZINC000149738712   -0.2900
26     C26    -0.6088   -3.0642   -4.6268 C.2      1 ZINC000149738712    0.1000
27     N27    -1.5372   -1.8475   -2.0719 N.ar     1 ZINC000149738712   -0.4500
28     C28    -1.9615   -1.3065   -0.9393 C.ar     1 ZINC000149738712    0.2500
29     H29     1.0039    1.9031    0.0027 H        1 ZINC000149738712    0.0900
30     H30    -0.5459    1.8868   -0.8726 H        1 ZINC000149738712    0.0900
31     H31    -0.5289    1.8773    0.9072 H        1 ZINC000149738712    0.0800
32     H32     2.1993   -1.5012    0.0917 H        1 ZINC000149738712    0.2000
33     H33     4.2380   -2.8951    1.5186 H        1 ZINC000149738712    0.2300
34     H34     4.6642   -3.1929    4.0887 H        1 ZINC000149738712    0.2300
35     H35     0.5545   -0.3903    4.5929 H        1 ZINC000149738712    0.1900
36     H36    -0.6316    0.4298    2.6145 H        1 ZINC000149738712    0.1800
37     H37    -4.3403   -3.4295   -2.9464 H        1 ZINC000149738712    0.1900
38     H38    -3.6607   -4.2764   -4.7658 H        1 ZINC000149738712    0.1900
39     H39    -2.6330   -4.5289   -7.8723 H        1 ZINC000149738712    0.0900
40     H40    -1.3569   -5.6965   -7.4519 H        1 ZINC000149738712    0.1000
41     H41    -2.9884   -5.8748   -6.7629 H        1 ZINC000149738712    0.1000
42     H42     0.2126   -2.5040   -4.2051 H        1 ZINC000149738712    0.1900
@<TRIPOS>BOND
1     1     2     1
2     1     29    1
3     1     30    1
4     1     31    1
5     2     3     1
6     2     4     1
7     2     14    1
8     4     13    1
9     4     5     2
10    5     6     1
11    5     32    1
12    6     11    ar
13    6     7     1
14    7     8     2
15    7     33    1
16    8     9     1
17    8     34    1
18    9     10    1
19    9     11    ar
20    11    12    1
21    12    13    2
22    12    35    1
23    13    36    1
24    14    28    1
25    14    15    1
26    15    16    2
27    16    17    1
28    17    28    ar
29    17    18    ar
30    18    19    ar
31    19    20    ar
32    19    37    1
33    20    21    1
34    20    27    ar
35    21    26    1
36    21    22    2
37    22    23    1
38    22    38    1
39    23    24    1
40    23    25    1
41    24    39    1
42    24    40    1
43    24    41    1
44    25    26    2
45    26    42    1
46    27    28    ar
@<TRIPOS>SUBSTRUCTURE
1   ZINC000149738712 1     RESIDUE    1   A     ZIN   1
