@<TRIPOS>MOLECULE
ZINC000038228051
64    67    1     0     0
SMALL
USER_CHARGES
@<TRIPOS>ATOM
1      C1     -0.0187    1.5258    0.0104 C.3      1 ZINC000038228051   -0.1500
2      C2      0.0021   -0.0041    0.0020 C.3      1 ZINC000038228051   -0.0500
3      C3      0.7309   -0.5033    1.2229 C.2      1 ZINC000038228051    0.2900
4      N4      2.0110   -0.7296    1.2866 N.2      1 ZINC000038228051   -0.4600
5      C5      2.3354   -1.1700    2.5281 C.ar     1 ZINC000038228051   -0.0100
6      C6      3.5233   -1.5561    3.1482 C.ar     1 ZINC000038228051    0.2100
7      C7      4.8175   -1.5236    2.3769 C.3      1 ZINC000038228051   -0.1000
8      N8      3.5187   -1.9485    4.4050 N.ar     1 ZINC000038228051   -0.4900
9      C9      2.4126   -1.9963    5.1281 C.ar     1 ZINC000038228051    0.1400
10     C10     2.4857   -2.4565    6.5613 C.3      1 ZINC000038228051   -0.1000
11     C11     1.1939   -1.6328    4.5959 C.ar     1 ZINC000038228051   -0.1700
12     C12     1.1401   -1.2103    3.2731 C.ar     1 ZINC000038228051    0.0900
13     N13     0.1462   -0.7784    2.4242 N.pl3    1 ZINC000038228051   -0.4400
14     C14    -1.2138   -0.6474    2.7357 C.ar     1 ZINC000038228051    0.1200
15     C15    -1.9674   -1.7711    3.0473 C.ar     1 ZINC000038228051   -0.1000
16     C16    -3.3076   -1.6388    3.3539 C.ar     1 ZINC000038228051   -0.1000
17     C17    -3.8990   -0.3888    3.3501 C.ar     1 ZINC000038228051   -0.0700
18     C18    -5.3616   -0.2480    3.6851 C.3      1 ZINC000038228051   -0.0900
19     C19    -5.5217   -0.0377    5.1921 C.3      1 ZINC000038228051    0.1100
20     N20    -6.9435    0.0992    5.5177 N.pl3    1 ZINC000038228051   -0.6600
21     C21    -7.3339    0.2974    6.8194 C.2      1 ZINC000038228051    0.7000
22     O22    -6.4068    0.3661    7.7996 O.3      1 ZINC000038228051   -0.5000
23     N23    -8.5965    0.4190    7.1086 N.am     1 ZINC000038228051   -1.0500
24     S24    -9.0672    0.6580    8.6782 S.o2     1 ZINC000038228051    2.6400
25     O25    -8.7420   -0.5337    9.3805 O.2      1 ZINC000038228051   -0.9800
26     O26    -8.5789    1.9388    9.0529 O.2      1 ZINC000038228051   -0.9800
27     C27   -10.8253    0.7747    8.6834 C.ar     1 ZINC000038228051   -0.6400
28     C28   -11.4369    2.0040    8.5229 C.ar     1 ZINC000038228051   -0.0100
29     C29   -12.8162    2.0955    8.5271 C.ar     1 ZINC000038228051   -0.1400
30     C30   -13.5839    0.9577    8.6913 C.ar     1 ZINC000038228051   -0.0300
31     C31   -15.0876    1.0576    8.6963 C.3      1 ZINC000038228051   -0.1300
32     C32   -12.9723   -0.2717    8.8504 C.ar     1 ZINC000038228051   -0.1400
33     C33   -11.5931   -0.3638    8.8424 C.ar     1 ZINC000038228051   -0.0100
34     C34    -3.1511    0.7322    3.0402 C.ar     1 ZINC000038228051   -0.1000
35     C35    -1.8090    0.6070    2.7388 C.ar     1 ZINC000038228051   -0.1000
36     H36     1.0039    1.9031    0.0027 H        1 ZINC000038228051    0.0700
37     H37    -0.5459    1.8868   -0.8726 H        1 ZINC000038228051    0.0700
38     H38    -0.5289    1.8773    0.9072 H        1 ZINC000038228051    0.0600
39     H39    -1.0205   -0.3814    0.0098 H        1 ZINC000038228051    0.0900
40     H40     0.5123   -0.3556   -0.8948 H        1 ZINC000038228051    0.1100
41     H41     5.2861   -0.5465    2.4945 H        1 ZINC000038228051    0.0800
42     H42     5.4866   -2.2955    2.7571 H        1 ZINC000038228051    0.0800
43     H43     4.6160   -1.7052    1.3212 H        1 ZINC000038228051    0.0800
44     H44     2.6597   -1.5981    7.2101 H        1 ZINC000038228051    0.0800
45     H45     1.5466   -2.9361    6.8373 H        1 ZINC000038228051    0.0700
46     H46     3.3037   -3.1682    6.6731 H        1 ZINC000038228051    0.0800
47     H47     0.2972   -1.6752    5.1963 H        1 ZINC000038228051    0.1300
48     H48    -1.5062   -2.7476    3.0497 H        1 ZINC000038228051    0.1300
49     H49    -3.8943   -2.5125    3.5964 H        1 ZINC000038228051    0.1400
50     H50    -5.7754    0.6085    3.1527 H        1 ZINC000038228051    0.0900
51     H51    -5.8915   -1.1523    3.3860 H        1 ZINC000038228051    0.0900
52     H52    -5.1079   -0.8942    5.7244 H        1 ZINC000038228051    0.0800
53     H53    -4.9918    0.8666    5.4911 H        1 ZINC000038228051    0.0800
54     H54    -7.6092    0.0498    4.8139 H        1 ZINC000038228051    0.4400
55     H55    -6.7768    0.5074    8.6818 H        1 ZINC000038228051    0.4100
56     H56   -10.8371    2.8929    8.3947 H        1 ZINC000038228051    0.1400
57     H57   -13.2940    3.0560    8.4024 H        1 ZINC000038228051    0.1300
58     H58   -15.4627    0.9432    7.6793 H        1 ZINC000038228051    0.0800
59     H59   -15.5019    0.2710    9.3269 H        1 ZINC000038228051    0.0700
60     H60   -15.3858    2.0308    9.0862 H        1 ZINC000038228051    0.0700
61     H61   -13.5721   -1.1607    8.9783 H        1 ZINC000038228051    0.1300
62     H62   -11.1153   -1.3243    8.9667 H        1 ZINC000038228051    0.1400
63     H63    -3.6158    1.7071    3.0381 H        1 ZINC000038228051    0.1400
64     H64    -1.2253    1.4829    2.4971 H        1 ZINC000038228051    0.1300
@<TRIPOS>BOND
1     1     2     1
2     1     36    1
3     1     37    1
4     1     38    1
5     2     3     1
6     2     39    1
7     2     40    1
8     3     13    1
9     3     4     2
10    4     5     1
11    5     12    ar
12    5     6     ar
13    6     7     1
14    6     8     ar
15    7     41    1
16    7     42    1
17    7     43    1
18    8     9     ar
19    9     10    1
20    9     11    ar
21    10    44    1
22    10    45    1
23    10    46    1
24    11    12    ar
25    11    47    1
26    12    13    1
27    13    14    1
28    14    35    ar
29    14    15    ar
30    15    16    ar
31    15    48    1
32    16    17    ar
33    16    49    1
34    17    18    1
35    17    34    ar
36    18    19    1
37    18    50    1
38    18    51    1
39    19    20    1
40    19    52    1
41    19    53    1
42    20    21    1
43    20    54    1
44    21    22    1
45    21    23    2
46    22    55    1
47    23    24    am
48    24    25    2
49    24    26    2
50    24    27    1
51    27    33    ar
52    27    28    ar
53    28    29    ar
54    28    56    1
55    29    30    ar
56    29    57    1
57    30    31    1
58    30    32    ar
59    31    58    1
60    31    59    1
61    31    60    1
62    32    33    ar
63    32    61    1
64    33    62    1
65    34    35    ar
66    34    63    1
67    35    64    1
@<TRIPOS>SUBSTRUCTURE
1   ZINC000038228051 1     RESIDUE    1   A     ZIN   1
