@<TRIPOS>MOLECULE
ZINC000095608296
105   111   1     0     0
SMALL
USER_CHARGES
@<TRIPOS>ATOM
1      C1     -0.0178    1.4608    0.0101 C.3      1 ZINC000095608296    0.0700
2      N2      0.0021   -0.0041    0.0020 N.am     1 ZINC000095608296   -0.6200
3      C3      0.0241   -0.7433    1.2666 C.3      1 ZINC000095608296    0.1600
4      C4     -1.3889   -1.0161    1.7137 C.ar     1 ZINC000095608296   -0.1200
5      C5     -2.0472   -0.1053    2.5183 C.ar     1 ZINC000095608296   -0.0800
6      C6     -3.3436   -0.3556    2.9284 C.ar     1 ZINC000095608296   -0.1200
7      C7     -3.9814   -1.5164    2.5336 C.ar     1 ZINC000095608296   -0.0700
8      C8     -3.3233   -2.4271    1.7280 C.ar     1 ZINC000095608296   -0.1800
9      C9     -4.0185   -3.6931    1.2979 C.3      1 ZINC000095608296    0.5000
10     F10    -5.3101   -3.7213    1.8348 F        1 ZINC000095608296   -0.1800
11     F11    -4.0931   -3.7328   -0.0986 F        1 ZINC000095608296   -0.1600
12     F12    -3.2979   -4.8003    1.7581 F        1 ZINC000095608296   -0.1800
13     C13    -2.0288   -2.1749    1.3145 C.ar     1 ZINC000095608296   -0.0400
14     C14     0.0001   -0.6716   -1.1688 C.2      1 ZINC000095608296    0.4900
15     O15     0.0165   -1.8843   -1.1755 O.2      1 ZINC000095608296   -0.4600
16     C16    -0.0226    0.0888   -2.4697 C.3      1 ZINC000095608296    0.1800
17     H17    -0.9215    0.7036   -2.5156 H        1 ZINC000095608296    0.1200
18     C18     1.2138    0.9858   -2.5577 C.3      1 ZINC000095608296   -0.1700
19     C19     1.1301    1.8362   -3.7991 C.2      1 ZINC000095608296    0.5300
20     O20     0.1755    1.7348   -4.5403 O.2      1 ZINC000095608296   -0.5100
21     N21     2.1160    2.7094   -4.0855 N.am     1 ZINC000095608296   -0.6200
22     C22     3.2815    2.8391   -3.2003 C.3      1 ZINC000095608296    0.1100
23     C23     4.5550    2.6590   -4.0325 C.3      1 ZINC000095608296   -0.1600
24     C24     4.5401    3.6471   -5.2010 C.3      1 ZINC000095608296    0.0300
25     N25     5.7754    3.4999   -5.9822 N.4      1 ZINC000095608296   -0.3800
26     H26     5.8368    2.5579   -6.3383 H        1 ZINC000095608296    0.4200
27     C27     6.9325    3.7722   -5.1210 C.3      1 ZINC000095608296   -0.0100
28     C28     8.2244    3.5415   -5.9079 C.3      1 ZINC000095608296   -0.1500
29     C29     8.2537    4.4808   -7.1171 C.3      1 ZINC000095608296   -0.1400
30     C30     7.0043    4.2395   -7.9690 C.3      1 ZINC000095608296   -0.1500
31     C31     5.7584    4.4456   -7.1047 C.3      1 ZINC000095608296   -0.0100
32     C32     3.3330    3.3615   -6.0974 C.3      1 ZINC000095608296   -0.1600
33     C33     2.0485    3.5452   -5.2919 C.3      1 ZINC000095608296    0.1200
34     N34    -0.0203   -0.8571   -3.5884 N.am     1 ZINC000095608296   -0.5900
35     C35     0.8150   -1.8263   -4.0064 C.2      1 ZINC000095608296    0.5300
36     O36     1.8697   -2.2312   -3.5652 O.2      1 ZINC000095608296   -0.5000
37     C37     0.0025   -2.2396   -5.2047 C.3      1 ZINC000095608296    0.1400
38     H38     0.4765   -2.0303   -6.1636 H        1 ZINC000095608296    0.1500
39     N39    -0.5617   -3.5887   -5.1166 N.am     1 ZINC000095608296   -0.6100
40     C40    -1.1030   -4.1370   -4.0201 C.2      1 ZINC000095608296    0.6300
41     O41    -1.1834   -3.5532   -2.9575 O.2      1 ZINC000095608296   -0.4500
42     O42    -1.5474   -5.3854   -4.2026 O.3      1 ZINC000095608296   -0.3200
43     C43    -1.3039   -5.7913   -5.5806 C.3      1 ZINC000095608296    0.0500
44     C44    -0.6321   -4.5601   -6.2188 C.3      1 ZINC000095608296    0.1400
45     H45    -1.2388   -4.1747   -7.0383 H        1 ZINC000095608296    0.1100
46     C46     0.7525   -4.9045   -6.7038 C.ar     1 ZINC000095608296   -0.1200
47     C47     1.7986   -4.9902   -5.8042 C.ar     1 ZINC000095608296   -0.0900
48     C48     3.0687   -5.3061   -6.2490 C.ar     1 ZINC000095608296   -0.1200
49     C49     3.2926   -5.5368   -7.5935 C.ar     1 ZINC000095608296   -0.1100
50     C50     2.2464   -5.4521   -8.4930 C.ar     1 ZINC000095608296   -0.1200
51     C51     0.9755   -5.1403   -8.0475 C.ar     1 ZINC000095608296   -0.1000
52     C52    -0.9287   -1.1363   -4.7015 C.3      1 ZINC000095608296    0.1600
53     H53    -1.0159   -0.3014   -5.3968 H        1 ZINC000095608296    0.1200
54     C54    -2.2712   -1.6553   -4.2552 C.2      1 ZINC000095608296   -0.1700
55     C55    -2.7137   -1.3860   -3.0350 C.2      1 ZINC000095608296   -0.0500
56     C56    -4.0306   -1.8950   -2.5973 C.ar     1 ZINC000095608296   -0.0500
57     C57    -4.8079   -2.6641   -3.4641 C.ar     1 ZINC000095608296   -0.1100
58     C58    -6.0362   -3.1362   -3.0494 C.ar     1 ZINC000095608296   -0.1200
59     C59    -6.4978   -2.8482   -1.7775 C.ar     1 ZINC000095608296   -0.1200
60     C60    -5.7323   -2.0859   -0.9134 C.ar     1 ZINC000095608296   -0.1100
61     C61    -4.4992   -1.6133   -1.3135 C.ar     1 ZINC000095608296   -0.0900
62     H62     1.0048    1.8381    0.0023 H        1 ZINC000095608296    0.0600
63     H63    -0.5450    1.8219   -0.8730 H        1 ZINC000095608296    0.0700
64     H64    -0.5280    1.8123    0.9069 H        1 ZINC000095608296    0.0800
65     H65     0.5496   -1.6879    1.1262 H        1 ZINC000095608296    0.1000
66     H66     0.5371   -0.1514    2.0246 H        1 ZINC000095608296    0.0900
67     H67    -1.5488    0.8018    2.8268 H        1 ZINC000095608296    0.1300
68     H68    -3.8578    0.3558    3.5577 H        1 ZINC000095608296    0.1400
69     H69    -4.9939   -1.7123    2.8545 H        1 ZINC000095608296    0.1400
70     H70    -1.5146   -2.8863    0.6852 H        1 ZINC000095608296    0.1400
71     H71     1.2592    1.6291   -1.6790 H        1 ZINC000095608296    0.1200
72     H72     2.1096    0.3664   -2.6014 H        1 ZINC000095608296    0.1100
73     H73     3.2825    3.8272   -2.7400 H        1 ZINC000095608296    0.0900
74     H74     3.2394    2.0730   -2.4261 H        1 ZINC000095608296    0.1100
75     H75     5.4278    2.8479   -3.4074 H        1 ZINC000095608296    0.1000
76     H76     4.5967    1.6403   -4.4179 H        1 ZINC000095608296    0.0900
77     H77     4.4732    4.6644   -4.8155 H        1 ZINC000095608296    0.1400
78     H78     6.8953    4.8067   -4.7796 H        1 ZINC000095608296    0.1300
79     H79     6.9084    3.1051   -4.2593 H        1 ZINC000095608296    0.1300
80     H80     9.0822    3.7459   -5.2673 H        1 ZINC000095608296    0.1100
81     H81     8.2627    2.5071   -6.2496 H        1 ZINC000095608296    0.0900
82     H82     8.2671    5.5155   -6.7746 H        1 ZINC000095608296    0.0800
83     H83     9.1448    4.2811   -7.7122 H        1 ZINC000095608296    0.0900
84     H84     6.9900    4.9428   -8.8016 H        1 ZINC000095608296    0.1100
85     H85     7.0172    3.2196   -8.3534 H        1 ZINC000095608296    0.0900
86     H86     4.8663    4.2749   -7.7073 H        1 ZINC000095608296    0.1300
87     H87     5.7472    5.4660   -6.7215 H        1 ZINC000095608296    0.1300
88     H88     3.3360    4.0504   -6.9421 H        1 ZINC000095608296    0.1000
89     H89     3.3862    2.3361   -6.4634 H        1 ZINC000095608296    0.0900
90     H90     1.1921    3.2476   -5.8969 H        1 ZINC000095608296    0.1100
91     H91     1.9467    4.5904   -4.9999 H        1 ZINC000095608296    0.0800
92     H92    -0.6386   -6.6540   -5.6130 H        1 ZINC000095608296    0.1100
93     H93    -2.2441   -6.0135   -6.0853 H        1 ZINC000095608296    0.1100
94     H94     1.6236   -4.8099   -4.7538 H        1 ZINC000095608296    0.1200
95     H95     3.8860   -5.3723   -5.5463 H        1 ZINC000095608296    0.1200
96     H96     4.2851   -5.7830   -7.9411 H        1 ZINC000095608296    0.1200
97     H97     2.4215   -5.6320   -9.5434 H        1 ZINC000095608296    0.1300
98     H98     0.1581   -5.0741   -8.7503 H        1 ZINC000095608296    0.1300
99     H99    -2.8729   -2.2466   -4.9296 H        1 ZINC000095608296    0.1200
100    H100   -2.1121   -0.7947   -2.3606 H        1 ZINC000095608296    0.1000
101    H101   -4.4489   -2.8890   -4.4576 H        1 ZINC000095608296    0.1100
102    H102   -6.6388   -3.7316   -3.7194 H        1 ZINC000095608296    0.1200
103    H103   -7.4602   -3.2198   -1.4578 H        1 ZINC000095608296    0.1200
104    H104   -6.0986   -1.8639    0.0780 H        1 ZINC000095608296    0.1100
105    H105   -3.9024   -1.0186   -0.6379 H        1 ZINC000095608296    0.1100
@<TRIPOS>BOND
1     1     2     1
2     1     62    1
3     1     63    1
4     1     64    1
5     2     3     1
6     2     14    am
7     3     4     1
8     3     65    1
9     3     66    1
10    4     13    ar
11    4     5     ar
12    5     6     ar
13    5     67    1
14    6     7     ar
15    6     68    1
16    7     8     ar
17    7     69    1
18    8     9     1
19    8     13    ar
20    9     10    1
21    9     11    1
22    9     12    1
23    13    70    1
24    14    15    2
25    14    16    1
26    16    17    1
27    16    18    1
28    16    34    1
29    18    19    1
30    18    71    1
31    18    72    1
32    19    20    2
33    19    21    am
34    21    33    1
35    21    22    1
36    22    23    1
37    22    73    1
38    22    74    1
39    23    24    1
40    23    75    1
41    23    76    1
42    24    25    1
43    24    32    1
44    24    77    1
45    25    26    1
46    25    31    1
47    25    27    1
48    27    28    1
49    27    78    1
50    27    79    1
51    28    29    1
52    28    80    1
53    28    81    1
54    29    30    1
55    29    82    1
56    29    83    1
57    30    31    1
58    30    84    1
59    30    85    1
60    31    86    1
61    31    87    1
62    32    33    1
63    32    88    1
64    32    89    1
65    33    90    1
66    33    91    1
67    34    52    1
68    34    35    am
69    35    36    2
70    35    37    1
71    37    38    1
72    37    39    1
73    37    52    1
74    39    44    1
75    39    40    am
76    40    41    2
77    40    42    1
78    42    43    1
79    43    44    1
80    43    92    1
81    43    93    1
82    44    45    1
83    44    46    1
84    46    51    ar
85    46    47    ar
86    47    48    ar
87    47    94    1
88    48    49    ar
89    48    95    1
90    49    50    ar
91    49    96    1
92    50    51    ar
93    50    97    1
94    51    98    1
95    52    53    1
96    52    54    1
97    54    55    2
98    54    99    1
99    55    56    1
100   55    100   1
101   56    61    ar
102   56    57    ar
103   57    58    ar
104   57    101   1
105   58    59    ar
106   58    102   1
107   59    60    ar
108   59    103   1
109   60    61    ar
110   60    104   1
111   61    105   1
@<TRIPOS>SUBSTRUCTURE
1   ZINC000095608296 1     RESIDUE    1   A     ZIN   1
