@<TRIPOS>MOLECULE
ZINC000027623417
40    41    1     0     0
SMALL
USER_CHARGES
@<TRIPOS>ATOM
1      C1     -0.3642   -0.8573   -0.4270 C.1      1 ZINC000027623417   -0.1900
2      C2     -0.3079    0.3117   -0.3348 C.1      1 ZINC000027623417   -0.1900
3      C3     -0.2374    1.7774   -0.2191 C.3      1 ZINC000027623417    0.1600
4      N4      1.1693    2.2004   -0.2046 N.3      1 ZINC000027623417   -0.6700
5      C5      1.2788    3.6608   -0.0898 C.3      1 ZINC000027623417    0.1300
6      H6      0.4568    4.1437   -0.6183 H        1 ZINC000027623417    0.0900
7      C7      2.6332    4.1421   -0.6520 C.3      1 ZINC000027623417   -0.1100
8      C8      3.5282    4.1552    0.6053 C.3      1 ZINC000027623417   -0.0900
9      C9      2.5779    4.3585    1.7661 C.ar     1 ZINC000027623417   -0.0800
10     C10     2.8264    4.7599    3.0682 C.ar     1 ZINC000027623417   -0.1000
11     C11     1.7882    4.8784    3.9704 C.ar     1 ZINC000027623417   -0.1100
12     C12     0.4906    4.5939    3.5718 C.ar     1 ZINC000027623417    0.1000
13     O13    -0.5350    4.7096    4.4565 O.3      1 ZINC000027623417   -0.3000
14     C14    -1.1187    3.5680    4.8686 C.2      1 ZINC000027623417    0.6400
15     O15    -0.6562    2.4947    4.5360 O.2      1 ZINC000027623417   -0.5500
16     N16    -2.2159    3.6160    5.6499 N.am     1 ZINC000027623417   -0.6000
17     C17    -2.7735    4.9100    6.0509 C.3      1 ZINC000027623417    0.0800
18     C18    -2.8508    2.3742    6.0982 C.3      1 ZINC000027623417    0.1300
19     C19    -2.2352    1.9383    7.4293 C.3      1 ZINC000027623417   -0.1700
20     C20     0.2422    4.1917    2.2686 C.ar     1 ZINC000027623417   -0.1000
21     C21     1.2822    4.0745    1.3663 C.ar     1 ZINC000027623417   -0.1200
22     H22    -0.4144   -1.9029   -0.5095 H        1 ZINC000027623417    0.2200
23     H23    -0.7453    2.2338   -1.0687 H        1 ZINC000027623417    0.1000
24     H24    -0.7211    2.0926    0.7055 H        1 ZINC000027623417    0.0600
25     H25     1.6776    1.7404    0.5358 H        1 ZINC000027623417    0.3500
26     H26     3.0164    3.4406   -1.3931 H        1 ZINC000027623417    0.0900
27     H27     2.5437    5.1430   -1.0743 H        1 ZINC000027623417    0.0800
28     H28     4.0514    3.2044    0.7070 H        1 ZINC000027623417    0.0900
29     H29     4.2423    4.9770    0.5527 H        1 ZINC000027623417    0.0800
30     H30     3.8367    4.9815    3.3790 H        1 ZINC000027623417    0.1300
31     H31     1.9862    5.1917    4.9848 H        1 ZINC000027623417    0.1300
32     H32    -3.5078    5.2335    5.3131 H        1 ZINC000027623417    0.0600
33     H33    -3.2548    4.8124    7.0240 H        1 ZINC000027623417    0.0800
34     H34    -1.9728    5.6469    6.1138 H        1 ZINC000027623417    0.0800
35     H35    -3.9202    2.5396    6.2293 H        1 ZINC000027623417    0.0900
36     H36    -2.6924    1.5953    5.3523 H        1 ZINC000027623417    0.0900
37     H37    -2.7076    1.0143    7.7628 H        1 ZINC000027623417    0.0700
38     H38    -1.1658    1.7728    7.2982 H        1 ZINC000027623417    0.0600
39     H39    -2.3936    2.7172    8.1752 H        1 ZINC000027623417    0.0600
40     H40    -0.7676    3.9695    1.9566 H        1 ZINC000027623417    0.1200
@<TRIPOS>BOND
1     1     2     3
2     1     22    1
3     2     3     1
4     3     4     1
5     3     23    1
6     3     24    1
7     4     5     1
8     4     25    1
9     5     6     1
10    5     21    1
11    5     7     1
12    7     8     1
13    7     26    1
14    7     27    1
15    8     9     1
16    8     28    1
17    8     29    1
18    9     21    ar
19    9     10    ar
20    10    11    ar
21    10    30    1
22    11    12    ar
23    11    31    1
24    12    13    1
25    12    20    ar
26    13    14    1
27    14    15    2
28    14    16    am
29    16    17    1
30    16    18    1
31    17    32    1
32    17    33    1
33    17    34    1
34    18    19    1
35    18    35    1
36    18    36    1
37    19    37    1
38    19    38    1
39    19    39    1
40    20    21    ar
41    20    40    1
@<TRIPOS>SUBSTRUCTURE
1   ZINC000027623417 1     RESIDUE    1   A     ZIN   1
