@<TRIPOS>MOLECULE
ZINC000038217837
77    79    1     0     0
SMALL
USER_CHARGES
@<TRIPOS>ATOM
1      C1     -0.3951    1.3832    0.2900 C.3      1 ZINC000038217837   -0.1600
2      C2     -0.2518   -0.1359    0.1771 C.3      1 ZINC000038217837   -0.1200
3      C3      0.5470   -0.4808   -1.0814 C.3      1 ZINC000038217837   -0.1000
4      C4      0.7747   -1.9925   -1.1427 C.3      1 ZINC000038217837    0.0800
5      H5     -0.1843   -2.5071   -1.0817 H        1 ZINC000038217837    0.1100
6      N6      1.6245   -2.4057   -0.0179 N.3      1 ZINC000038217837   -0.6500
7      C7      1.3831   -3.8108    0.3359 C.3      1 ZINC000038217837    0.0900
8      H8      1.1544   -4.3818   -0.5640 H        1 ZINC000038217837    0.0500
9      C9      2.6282   -4.3936    1.0146 C.3      1 ZINC000038217837   -0.1200
10     C10     2.4400   -5.9030    1.1523 C.3      1 ZINC000038217837   -0.0800
11     C11     1.1147   -6.2148    1.7970 C.ar     1 ZINC000038217837   -0.0200
12     C12     0.9418   -7.4819    2.3379 C.ar     1 ZINC000038217837   -0.1700
13     C13    -0.2522   -7.8328    2.9389 C.ar     1 ZINC000038217837    0.1300
14     F14    -0.4100   -9.0677    3.4638 F        1 ZINC000038217837   -0.1300
15     C15    -1.2855   -6.9142    3.0015 C.ar     1 ZINC000038217837   -0.1900
16     C16    -1.1138   -5.6526    2.4653 C.ar     1 ZINC000038217837    0.1300
17     F17    -2.1224   -4.7557    2.5258 F        1 ZINC000038217837   -0.1300
18     C18     0.0895   -5.2982    1.8639 C.ar     1 ZINC000038217837   -0.1200
19     C19     0.2132   -3.9013    1.3135 C.3      1 ZINC000038217837   -0.0700
20     C20     1.4529   -2.3461   -2.4411 C.2      1 ZINC000038217837    0.5000
21     O21     2.5376   -2.8890   -2.4306 O.2      1 ZINC000038217837   -0.5300
22     N22     0.8543   -2.0592   -3.6141 N.am     1 ZINC000038217837   -0.6300
23     C23     1.4864   -2.3888   -4.8244 C.2      1 ZINC000038217837    0.2300
24     C24     2.6869   -2.9973   -4.9552 C.2      1 ZINC000038217837   -0.0500
25     N25     2.9193   -3.1257   -6.3019 N.pl3    1 ZINC000038217837   -0.4600
26     C26     4.0995   -3.7283   -6.9265 C.3      1 ZINC000038217837    0.1500
27     C27     5.3512   -2.9584   -6.5004 C.3      1 ZINC000038217837   -0.1800
28     C28     4.2225   -5.1874   -6.4826 C.3      1 ZINC000038217837   -0.1800
29     C29     3.9575   -3.6686   -8.4487 C.3      1 ZINC000038217837   -0.0200
30     N30     5.1410   -4.2729   -9.0750 N.4      1 ZINC000038217837   -0.5100
31     H31     5.9664   -3.7651   -8.7940 H        1 ZINC000038217837    0.4300
32     H32     5.2221   -5.2351   -8.7822 H        1 ZINC000038217837    0.4300
33     C33     5.0046   -4.2155  -10.5365 C.3      1 ZINC000038217837    0.0000
34     C34     6.2372   -4.8449  -11.1888 C.3      1 ZINC000038217837   -0.0900
35     C35     6.3602   -6.3039  -10.7449 C.3      1 ZINC000038217837   -0.1700
36     C36     6.0952   -4.7852  -12.7110 C.3      1 ZINC000038217837   -0.1500
37     C37     7.4889   -4.0750  -10.7627 C.3      1 ZINC000038217837   -0.1700
38     C38     1.8576   -2.5937   -6.9435 C.2      1 ZINC000038217837    0.1900
39     N39     1.0026   -2.1606   -6.0571 N.2      1 ZINC000038217837   -0.4900
40     H40     0.5937    1.8378    0.3513 H        1 ZINC000038217837    0.0500
41     H41    -0.9168    1.7651   -0.5875 H        1 ZINC000038217837    0.0500
42     H42    -0.9642    1.6288    1.1866 H        1 ZINC000038217837    0.0600
43     H43     0.2699   -0.5179    1.0546 H        1 ZINC000038217837    0.0800
44     H44    -1.2406   -0.5905    0.1158 H        1 ZINC000038217837    0.0600
45     H45    -0.0082   -0.1609   -1.9632 H        1 ZINC000038217837    0.0700
46     H46     1.5091    0.0307   -1.0526 H        1 ZINC000038217837    0.0700
47     H47     2.5994   -2.2470   -0.2240 H        1 ZINC000038217837    0.3600
48     H48     3.5086   -4.1874    0.4059 H        1 ZINC000038217837    0.0800
49     H49     2.7511   -3.9475    2.0015 H        1 ZINC000038217837    0.0800
50     H50     2.4756   -6.3613    0.1639 H        1 ZINC000038217837    0.0800
51     H51     3.2431   -6.3109    1.7660 H        1 ZINC000038217837    0.0900
52     H52     1.7476   -8.1993    2.2888 H        1 ZINC000038217837    0.1400
53     H53    -2.2223   -7.1826    3.4672 H        1 ZINC000038217837    0.1500
54     H54     0.3774   -3.2044    2.1354 H        1 ZINC000038217837    0.0900
55     H55    -0.7090   -3.6357    0.7967 H        1 ZINC000038217837    0.0800
56     H56    -0.0131   -1.6251   -3.6225 H        1 ZINC000038217837    0.4200
57     H57     3.3370   -3.3194   -4.1552 H        1 ZINC000038217837    0.2000
58     H58     5.4523   -3.0010   -5.4159 H        1 ZINC000038217837    0.1000
59     H59     6.2293   -3.4068   -6.9651 H        1 ZINC000038217837    0.0700
60     H60     5.2636   -1.9190   -6.8166 H        1 ZINC000038217837    0.0900
61     H61     3.3308   -5.7359   -6.7861 H        1 ZINC000038217837    0.0800
62     H62     5.1006   -5.6357   -6.9473 H        1 ZINC000038217837    0.0700
63     H63     4.3237   -5.2299   -5.3981 H        1 ZINC000038217837    0.1000
64     H64     3.0658   -4.2171   -8.7522 H        1 ZINC000038217837    0.1500
65     H65     3.8699   -2.6292   -8.7649 H        1 ZINC000038217837    0.1500
66     H66     4.1129   -4.7640  -10.8400 H        1 ZINC000038217837    0.1400
67     H67     4.9170   -3.1761  -10.8527 H        1 ZINC000038217837    0.1400
68     H68     5.4685   -6.8524  -11.0484 H        1 ZINC000038217837    0.0800
69     H69     7.2383   -6.7523  -11.2096 H        1 ZINC000038217837    0.0900
70     H70     6.4614   -6.3465   -9.6604 H        1 ZINC000038217837    0.0500
71     H71     6.0076   -3.7457  -13.0272 H        1 ZINC000038217837    0.0700
72     H72     6.9734   -5.2336  -13.1757 H        1 ZINC000038217837    0.0800
73     H73     5.2035   -5.3337  -13.0145 H        1 ZINC000038217837    0.0700
74     H74     7.5900   -4.1175   -9.6783 H        1 ZINC000038217837    0.0500
75     H75     8.3670   -4.5234  -11.2274 H        1 ZINC000038217837    0.0900
76     H76     7.4013   -3.0356  -11.0790 H        1 ZINC000038217837    0.0800
77     H77     1.7335   -2.5396   -8.0150 H        1 ZINC000038217837    0.2100
@<TRIPOS>BOND
1     1     2     1
2     1     40    1
3     1     41    1
4     1     42    1
5     2     3     1
6     2     43    1
7     2     44    1
8     3     4     1
9     3     45    1
10    3     46    1
11    4     5     1
12    4     6     1
13    4     20    1
14    6     7     1
15    6     47    1
16    7     8     1
17    7     19    1
18    7     9     1
19    9     10    1
20    9     48    1
21    9     49    1
22    10    11    1
23    10    50    1
24    10    51    1
25    11    18    ar
26    11    12    ar
27    12    13    ar
28    12    52    1
29    13    14    1
30    13    15    ar
31    15    16    ar
32    15    53    1
33    16    17    1
34    16    18    ar
35    18    19    1
36    19    54    1
37    19    55    1
38    20    21    2
39    20    22    am
40    22    23    1
41    22    56    1
42    23    39    1
43    23    24    2
44    24    25    1
45    24    57    1
46    25    26    1
47    25    38    1
48    26    27    1
49    26    28    1
50    26    29    1
51    27    58    1
52    27    59    1
53    27    60    1
54    28    61    1
55    28    62    1
56    28    63    1
57    29    30    1
58    29    64    1
59    29    65    1
60    30    31    1
61    30    32    1
62    30    33    1
63    33    34    1
64    33    66    1
65    33    67    1
66    34    35    1
67    34    36    1
68    34    37    1
69    35    68    1
70    35    69    1
71    35    70    1
72    36    71    1
73    36    72    1
74    36    73    1
75    37    74    1
76    37    75    1
77    37    76    1
78    38    39    2
79    38    77    1
@<TRIPOS>SUBSTRUCTURE
1   ZINC000038217837 1     RESIDUE    1   A     ZIN   1
