@<TRIPOS>MOLECULE
ZINC000145424989
72    76    1     0     0
SMALL
USER_CHARGES
@<TRIPOS>ATOM
1      C1      0.7286   -0.8047    0.5474 C.3      1 ZINC000145424989   -0.1600
2      C2      1.2353   -2.0487   -0.1852 C.3      1 ZINC000145424989   -0.0700
3      C3      2.5012   -2.5649    0.5019 C.3      1 ZINC000145424989   -0.1500
4      C4      0.1579   -3.1345   -0.1518 C.3      1 ZINC000145424989   -0.1400
5      C5      1.5537   -1.6906   -1.6382 C.3      1 ZINC000145424989   -0.1500
6      C6      2.7402   -0.7254   -1.6774 C.3      1 ZINC000145424989    0.0900
7      H7      3.5376   -1.0767   -1.0227 H        1 ZINC000145424989    0.1200
8      N8      2.3099    0.6436   -1.2844 N.3      1 ZINC000145424989   -0.6300
9      C9      1.6834    1.2000   -2.5122 C.3      1 ZINC000145424989    0.0500
10     H10     0.6658    0.8253   -2.6228 H        1 ZINC000145424989    0.0800
11     C11     1.6855    2.7063   -2.4668 C.2      1 ZINC000145424989    0.5200
12     O12     2.4329    3.2891   -1.7101 O.2      1 ZINC000145424989   -0.5100
13     N13     0.8567    3.4057   -3.2670 N.am     1 ZINC000145424989   -0.7300
14     C14     0.8587    4.8701   -3.2228 C.3      1 ZINC000145424989    0.1500
15     H15     1.0430    5.2025   -2.2013 H        1 ZINC000145424989    0.0900
16     C16     1.9595    5.4065   -4.1401 C.3      1 ZINC000145424989   -0.1200
17     C17     1.9616    6.9358   -4.0940 C.3      1 ZINC000145424989   -0.1100
18     C18     0.6042    7.4621   -4.5645 C.3      1 ZINC000145424989    0.1000
19     H19     0.6057    8.5516   -4.5317 H        1 ZINC000145424989    0.0600
20     O20     0.3626    7.0262   -5.9038 O.3      1 ZINC000145424989   -0.5600
21     C21    -0.4966    6.9257   -3.6472 C.3      1 ZINC000145424989   -0.1500
22     C22    -0.4987    5.3964   -3.6934 C.3      1 ZINC000145424989   -0.1200
23     C23     2.5738    0.6918   -3.6696 C.3      1 ZINC000145424989    0.0000
24     H24     3.3194    1.4422   -3.9328 H        1 ZINC000145424989    0.1100
25     C25     1.7296    0.3485   -4.8698 C.ar     1 ZINC000145424989   -0.1300
26     C26     0.4887   -0.2349   -4.6977 C.ar     1 ZINC000145424989   -0.0400
27     C27    -0.2869   -0.5499   -5.7982 C.ar     1 ZINC000145424989   -0.1100
28     C28     0.1778   -0.2823   -7.0721 C.ar     1 ZINC000145424989   -0.0700
29     C29     1.4196    0.3011   -7.2473 C.ar     1 ZINC000145424989   -0.0800
30     Cl30    2.0038    0.6369   -8.8472 Cl       1 ZINC000145424989   -0.0500
31     C31     2.1946    0.6226   -6.1447 C.ar     1 ZINC000145424989    0.1200
32     F32     3.4078    1.1924   -6.3138 F        1 ZINC000145424989   -0.1200
33     C33     3.2561   -0.5679   -3.1140 C.3      1 ZINC000145424989   -0.0400
34     C34     2.9393   -1.7787   -3.9484 C.2      1 ZINC000145424989    0.5400
35     O35     1.8378   -2.2313   -4.1788 O.2      1 ZINC000145424989   -0.4700
36     N36     4.1161   -2.2623   -4.3908 N.am     1 ZINC000145424989   -0.6600
37     C37     5.1995   -1.5040   -3.9417 C.ar     1 ZINC000145424989    0.1600
38     C38     6.5666   -1.6518   -4.1603 C.ar     1 ZINC000145424989   -0.1300
39     C39     7.4599   -0.7602   -3.6001 C.ar     1 ZINC000145424989    0.0000
40     Cl40    9.1626   -0.9531   -3.8784 Cl       1 ZINC000145424989   -0.0600
41     C41     7.0042    0.2861   -2.8175 C.ar     1 ZINC000145424989   -0.1300
42     C42     5.6470    0.4395   -2.5960 C.ar     1 ZINC000145424989   -0.0400
43     C43     4.7532   -0.4471   -3.1530 C.ar     1 ZINC000145424989   -0.1200
44     H44     1.5778   -0.2272    0.9129 H        1 ZINC000145424989    0.0700
45     H45     0.1414   -0.1934   -0.1379 H        1 ZINC000145424989    0.0500
46     H46     0.1057   -1.1072    1.3892 H        1 ZINC000145424989    0.0600
47     H47     2.2744   -2.8201    1.5371 H        1 ZINC000145424989    0.0600
48     H48     2.8621   -3.4512   -0.0200 H        1 ZINC000145424989    0.0500
49     H49     3.2687   -1.7914    0.4781 H        1 ZINC000145424989    0.0600
50     H50    -0.7439   -2.7666   -0.6413 H        1 ZINC000145424989    0.0500
51     H51     0.5189   -4.0207   -0.6737 H        1 ZINC000145424989    0.0600
52     H52    -0.0689   -3.3896    0.8834 H        1 ZINC000145424989    0.0600
53     H53     1.8043   -2.5970   -2.1892 H        1 ZINC000145424989    0.0900
54     H54     0.6845   -1.2167   -2.0944 H        1 ZINC000145424989    0.0700
55     H55     1.6477    0.6101   -0.5238 H        1 ZINC000145424989    0.3600
56     H56     0.2589    2.9396   -3.8722 H        1 ZINC000145424989    0.4000
57     H57     2.9265    5.0315   -3.8049 H        1 ZINC000145424989    0.0700
58     H58     1.7752    5.0740   -5.1617 H        1 ZINC000145424989    0.0700
59     H59     2.1459    7.2682   -3.0724 H        1 ZINC000145424989    0.0800
60     H60     2.7458    7.3179   -4.7475 H        1 ZINC000145424989    0.0700
61     H61    -0.4824    7.3238   -6.2679 H        1 ZINC000145424989    0.3800
62     H62    -0.3123    7.2581   -2.6257 H        1 ZINC000145424989    0.0800
63     H63    -1.4637    7.3006   -3.9825 H        1 ZINC000145424989    0.0700
64     H64    -0.6830    5.0639   -4.7149 H        1 ZINC000145424989    0.0700
65     H65    -1.2829    5.0142   -3.0399 H        1 ZINC000145424989    0.0700
66     H66     0.1245   -0.4452   -3.7030 H        1 ZINC000145424989    0.1400
67     H67    -1.2565   -1.0057   -5.6623 H        1 ZINC000145424989    0.1400
68     H68    -0.4288   -0.5291   -7.9310 H        1 ZINC000145424989    0.1400
69     H69     4.2012   -3.0463   -4.9556 H        1 ZINC000145424989    0.4200
70     H70     6.9295   -2.4665   -4.7694 H        1 ZINC000145424989    0.1400
71     H71     7.7060    0.9815   -2.3812 H        1 ZINC000145424989    0.1400
72     H72     5.2886    1.2551   -1.9854 H        1 ZINC000145424989    0.1500
@<TRIPOS>BOND
1     1     2     1
2     1     44    1
3     1     45    1
4     1     46    1
5     2     3     1
6     2     4     1
7     2     5     1
8     3     47    1
9     3     48    1
10    3     49    1
11    4     50    1
12    4     51    1
13    4     52    1
14    5     6     1
15    5     53    1
16    5     54    1
17    6     7     1
18    6     33    1
19    6     8     1
20    8     9     1
21    8     55    1
22    9     10    1
23    9     11    1
24    9     23    1
25    11    12    2
26    11    13    am
27    13    14    1
28    13    56    1
29    14    15    1
30    14    22    1
31    14    16    1
32    16    17    1
33    16    57    1
34    16    58    1
35    17    18    1
36    17    59    1
37    17    60    1
38    18    19    1
39    18    20    1
40    18    21    1
41    20    61    1
42    21    22    1
43    21    62    1
44    21    63    1
45    22    64    1
46    22    65    1
47    23    24    1
48    23    25    1
49    23    33    1
50    25    31    ar
51    25    26    ar
52    26    27    ar
53    26    66    1
54    27    28    ar
55    27    67    1
56    28    29    ar
57    28    68    1
58    29    30    1
59    29    31    ar
60    31    32    1
61    33    43    1
62    33    34    1
63    34    35    2
64    34    36    am
65    36    37    1
66    36    69    1
67    37    43    ar
68    37    38    ar
69    38    39    ar
70    38    70    1
71    39    40    1
72    39    41    ar
73    41    42    ar
74    41    71    1
75    42    43    ar
76    42    72    1
@<TRIPOS>SUBSTRUCTURE
1   ZINC000145424989 1     RESIDUE    1   A     ZIN   1
