@<TRIPOS>MOLECULE
ZINC000006037095
29    30    1     0     0
SMALL
USER_CHARGES
@<TRIPOS>ATOM
1      C1     -0.0402    1.5301    0.0267 C.3      1 ZINC000006037095   -0.1200
2      C2      0.0008    0.0008    0.0048 C.3      1 ZINC000006037095   -0.1400
3      H3     -1.0168   -0.3899    0.0039 H        1 ZINC000006037095    0.0700
4      C4      0.7187   -0.4647   -1.2357 C.2      1 ZINC000006037095    0.5000
5      O5      1.7289   -1.1403   -1.1380 O.co2    1 ZINC000006037095   -0.6800
6      O6      0.2894   -0.1658   -2.3369 O.co2    1 ZINC000006037095   -0.6900
7      C7      0.7300   -0.4997    1.2250 C.ar     1 ZINC000006037095    0.0200
8      C8      2.0445   -0.1266    1.4431 C.ar     1 ZINC000006037095   -0.1000
9      C9      2.7180   -0.5815    2.5576 C.ar     1 ZINC000006037095   -0.0600
10     C10     2.0701   -1.4198    3.4669 C.ar     1 ZINC000006037095   -0.2000
11     C11     2.7857   -1.9109    4.6643 C.2      1 ZINC000006037095    0.4800
12     O12     3.9718   -1.6752    4.8039 O.2      1 ZINC000006037095   -0.4500
13     C13     2.0675   -2.6808    5.6820 C.2      1 ZINC000006037095   -0.0900
14     C14     2.5795   -3.1083    6.8880 C.2      1 ZINC000006037095   -0.1300
15     C15     1.5476   -3.8021    7.5364 C.2      1 ZINC000006037095   -0.2300
16     C16     0.4705   -3.7717    6.7193 C.2      1 ZINC000006037095   -0.0100
17     O17     0.7847   -3.0931    5.6086 O.3      1 ZINC000006037095   -0.1500
18     C18     0.7436   -1.7919    3.2411 C.ar     1 ZINC000006037095   -0.0700
19     C19     0.0802   -1.3257    2.1252 C.ar     1 ZINC000006037095   -0.1500
20     H20     0.9774    1.9209    0.0276 H        1 ZINC000006037095    0.0500
21     H21    -0.5676    1.8922   -0.8558 H        1 ZINC000006037095    0.0600
22     H22    -0.5595    1.8669    0.9239 H        1 ZINC000006037095    0.0400
23     H23     2.5445    0.5219    0.7389 H        1 ZINC000006037095    0.1300
24     H24     3.7442   -0.2902    2.7263 H        1 ZINC000006037095    0.1300
25     H25     3.5794   -2.9417    7.2607 H        1 ZINC000006037095    0.1600
26     H26     1.6029   -4.2733    8.5066 H        1 ZINC000006037095    0.1600
27     H27    -0.4894   -4.2193    6.9302 H        1 ZINC000006037095    0.2100
28     H28     0.2369   -2.4404    3.9404 H        1 ZINC000006037095    0.1300
29     H29    -0.9461   -1.6125    1.9494 H        1 ZINC000006037095    0.1200
@<TRIPOS>BOND
1     1     2     1
2     1     20    1
3     1     21    1
4     1     22    1
5     2     3     1
6     2     4     1
7     2     7     1
8     4     5     ar
9     4     6     ar
10    7     19    ar
11    7     8     ar
12    8     9     ar
13    8     23    1
14    9     10    ar
15    9     24    1
16    10    11    1
17    10    18    ar
18    11    12    2
19    11    13    1
20    13    17    1
21    13    14    2
22    14    15    1
23    14    25    1
24    15    16    2
25    15    26    1
26    16    17    1
27    16    27    1
28    18    19    ar
29    18    28    1
30    19    29    1
@<TRIPOS>SUBSTRUCTURE
1   ZINC000006037095 1     RESIDUE    1   A     ZIN   1
