@<TRIPOS>MOLECULE
ZINC000003806113
69    73    1     0     0
SMALL
USER_CHARGES
@<TRIPOS>ATOM
1      C1     -1.9119    0.7857   -0.3438 C.3      1 ZINC000003806113   -0.1200
2      C2     -0.9333   -0.3466   -0.1663 C.ar     1 ZINC000003806113   -0.0800
3      C3     -0.0727   -0.6829   -1.1961 C.ar     1 ZINC000003806113   -0.1000
4      C4      0.8291   -1.7208   -1.0412 C.ar     1 ZINC000003806113   -0.0800
5      C5      1.7627   -2.0802   -2.1682 C.3      1 ZINC000003806113   -0.1200
6      C6      0.8757   -2.4271    0.1430 C.ar     1 ZINC000003806113   -0.0800
7      C7      0.0102   -2.0930    1.1858 C.ar     1 ZINC000003806113   -0.1200
8      C8      0.0549   -2.8453    2.4577 C.2      1 ZINC000003806113    0.5700
9      O9      0.0031   -4.0597    2.4477 O.2      1 ZINC000003806113   -0.5100
10     N10     0.1531   -2.1847    3.6284 N.am     1 ZINC000003806113   -0.6100
11     C11     0.1274   -0.7161    3.6636 C.3      1 ZINC000003806113    0.1000
12     C12     1.3624   -0.2193    4.4218 C.3      1 ZINC000003806113   -0.1600
13     C13     1.4091   -0.8804    5.8013 C.3      1 ZINC000003806113    0.0200
14     H14     0.4986   -0.6401    6.3502 H        1 ZINC000003806113    0.1500
15     N15     2.5743   -0.3814    6.5438 N.4      1 ZINC000003806113   -0.5100
16     H16     2.6523   -0.8766    7.4195 H        1 ZINC000003806113    0.4300
17     H17     3.4098   -0.5298    5.9979 H        1 ZINC000003806113    0.4300
18     C18     2.4095    1.0545    6.8063 C.3      1 ZINC000003806113    0.0400
19     C19     3.6048    1.5664    7.5680 C.ar     1 ZINC000003806113   -0.1100
20     C20     4.8068    1.8757    6.9048 C.ar     1 ZINC000003806113   -0.0800
21     C21     4.9364    1.7196    5.5151 C.ar     1 ZINC000003806113   -0.1400
22     C22     6.1159    2.0301    4.9104 C.ar     1 ZINC000003806113   -0.0800
23     C23     7.1976    2.5011    5.6522 C.ar     1 ZINC000003806113   -0.1000
24     C24     7.1070    2.6644    7.0001 C.ar     1 ZINC000003806113   -0.0700
25     C25     5.9053    2.3546    7.6611 C.ar     1 ZINC000003806113    0.1300
26     N26     5.7866    2.5059    8.9837 N.ar     1 ZINC000003806113   -0.4400
27     C27     4.6681    2.2193    9.6048 C.ar     1 ZINC000003806113    0.1300
28     C28     3.5498    1.7485    8.9208 C.ar     1 ZINC000003806113   -0.1200
29     C29     1.5206   -2.3980    5.6381 C.3      1 ZINC000003806113   -0.1500
30     C30     0.2818   -2.9195    4.8941 C.3      1 ZINC000003806113    0.1500
31     H31     0.4006   -3.9831    4.6873 H        1 ZINC000003806113    0.1200
32     C32    -0.9637   -2.7005    5.7553 C.3      1 ZINC000003806113   -0.0900
33     C33    -2.1580   -3.3222    5.0786 C.ar     1 ZINC000003806113   -0.0900
34     C34    -2.9157   -2.5784    4.1934 C.ar     1 ZINC000003806113   -0.1100
35     C35    -4.0113   -3.1486    3.5727 C.ar     1 ZINC000003806113   -0.1200
36     C36    -4.3490   -4.4628    3.8367 C.ar     1 ZINC000003806113   -0.1100
37     C37    -3.5907   -5.2069    4.7212 C.ar     1 ZINC000003806113   -0.1100
38     C38    -2.4926   -4.6380    5.3387 C.ar     1 ZINC000003806113   -0.1100
39     C39    -0.8938   -1.0417    1.0246 C.ar     1 ZINC000003806113   -0.1100
40     H40    -1.4491    1.7194   -0.0242 H        1 ZINC000003806113    0.0700
41     H41    -2.1940    0.8608   -1.3940 H        1 ZINC000003806113    0.0700
42     H42    -2.8004    0.5958    0.2583 H        1 ZINC000003806113    0.0700
43     H43    -0.1051   -0.1331   -2.1251 H        1 ZINC000003806113    0.1300
44     H44     2.6847   -1.5066   -2.0731 H        1 ZINC000003806113    0.0800
45     H45     1.9912   -3.1451   -2.1252 H        1 ZINC000003806113    0.0700
46     H46     1.2875   -1.8488   -3.1215 H        1 ZINC000003806113    0.0700
47     H47     1.5800   -3.2370    0.2627 H        1 ZINC000003806113    0.1300
48     H48     0.1420   -0.3259    2.6459 H        1 ZINC000003806113    0.1200
49     H49    -0.7748   -0.3785    4.1736 H        1 ZINC000003806113    0.0800
50     H50     2.2614   -0.4795    3.8630 H        1 ZINC000003806113    0.1000
51     H51     1.3065    0.8629    4.5387 H        1 ZINC000003806113    0.1000
52     H52     2.3252    1.5894    5.8603 H        1 ZINC000003806113    0.1400
53     H53     1.5069    1.2148    7.3960 H        1 ZINC000003806113    0.1500
54     H54     4.1053    1.3550    4.9297 H        1 ZINC000003806113    0.1200
55     H55     6.2148    1.9094    3.8418 H        1 ZINC000003806113    0.1400
56     H56     8.1229    2.7402    5.1492 H        1 ZINC000003806113    0.1400
57     H57     7.9549    3.0306    7.5599 H        1 ZINC000003806113    0.1500
58     H58     4.6114    2.3546   10.6748 H        1 ZINC000003806113    0.1700
59     H59     2.6423    1.5211    9.4604 H        1 ZINC000003806113    0.1500
60     H60     2.4181   -2.6376    5.0678 H        1 ZINC000003806113    0.1000
61     H61     1.5774   -2.8664    6.6206 H        1 ZINC000003806113    0.1000
62     H62    -0.8168   -3.1639    6.7310 H        1 ZINC000003806113    0.0900
63     H63    -1.1339   -1.6314    5.8828 H        1 ZINC000003806113    0.0700
64     H64    -2.6519   -1.5516    3.9871 H        1 ZINC000003806113    0.1100
65     H65    -4.6037   -2.5673    2.8816 H        1 ZINC000003806113    0.1200
66     H66    -5.2053   -4.9082    3.3522 H        1 ZINC000003806113    0.1200
67     H67    -3.8547   -6.2336    4.9277 H        1 ZINC000003806113    0.1200
68     H68    -1.9002   -5.2193    6.0297 H        1 ZINC000003806113    0.1200
69     H69    -1.5661   -0.7782    1.8277 H        1 ZINC000003806113    0.1300
@<TRIPOS>BOND
1     1     2     1
2     1     40    1
3     1     41    1
4     1     42    1
5     2     39    ar
6     2     3     ar
7     3     4     ar
8     3     43    1
9     4     5     1
10    4     6     ar
11    5     44    1
12    5     45    1
13    5     46    1
14    6     7     ar
15    6     47    1
16    7     8     1
17    7     39    ar
18    8     9     2
19    8     10    am
20    10    30    1
21    10    11    1
22    11    12    1
23    11    48    1
24    11    49    1
25    12    13    1
26    12    50    1
27    12    51    1
28    13    14    1
29    13    15    1
30    13    29    1
31    15    16    1
32    15    17    1
33    15    18    1
34    18    19    1
35    18    52    1
36    18    53    1
37    19    28    ar
38    19    20    ar
39    20    25    ar
40    20    21    ar
41    21    22    ar
42    21    54    1
43    22    23    ar
44    22    55    1
45    23    24    ar
46    23    56    1
47    24    25    ar
48    24    57    1
49    25    26    ar
50    26    27    ar
51    27    28    ar
52    27    58    1
53    28    59    1
54    29    30    1
55    29    60    1
56    29    61    1
57    30    31    1
58    30    32    1
59    32    33    1
60    32    62    1
61    32    63    1
62    33    38    ar
63    33    34    ar
64    34    35    ar
65    34    64    1
66    35    36    ar
67    35    65    1
68    36    37    ar
69    36    66    1
70    37    38    ar
71    37    67    1
72    38    68    1
73    39    69    1
@<TRIPOS>SUBSTRUCTURE
1   ZINC000003806113 1     RESIDUE    1   A     ZIN   1
