@<TRIPOS>MOLECULE
ZINC000001481805
45    48    1     0     0
SMALL
USER_CHARGES
@<TRIPOS>ATOM
1      C1     -0.0178    1.4608    0.0101 C.3      1 ZINC000001481805    0.0500
2      N2      0.0021   -0.0041    0.0020 N.am     1 ZINC000001481805   -0.5400
3      C3      0.0055   -0.6681   -1.1773 C.2      1 ZINC000001481805    0.5500
4      O4     -0.0072   -0.0721   -2.2386 O.2      1 ZINC000001481805   -0.5000
5      C5      0.0257   -2.1376   -1.1266 C.ar     1 ZINC000001481805   -0.2000
6      C6      0.0313   -2.9149   -2.2826 C.ar     1 ZINC000001481805   -0.0400
7      C7      0.0508   -4.2887   -2.1768 C.ar     1 ZINC000001481805   -0.1300
8      C8      0.0645   -4.9009   -0.9307 C.ar     1 ZINC000001481805   -0.0700
9      C9      0.0593   -4.1506    0.2240 C.ar     1 ZINC000001481805   -0.1000
10     C10     0.0401   -2.7571    0.1430 C.ar     1 ZINC000001481805    0.1500
11     N11     0.0348   -1.9795    1.2546 N.2      1 ZINC000001481805   -0.4800
12     C12     0.0225   -0.6834    1.1784 C.2      1 ZINC000001481805    0.3800
13     C13     0.0174    0.1080    2.4609 C.3      1 ZINC000001481805    0.1100
14     O14     0.0280   -0.7884    3.5738 O.3      1 ZINC000001481805   -0.2800
15     C15     0.0250   -0.2325    4.8139 C.ar     1 ZINC000001481805    0.1300
16     C16     0.0065    1.1473    4.9567 C.ar     1 ZINC000001481805   -0.2100
17     C17     0.0031    1.7100    6.2183 C.ar     1 ZINC000001481805   -0.0600
18     C18     0.0186    0.8992    7.3382 C.ar     1 ZINC000001481805   -0.1400
19     C19     0.0153    1.5157    8.7133 C.3      1 ZINC000001481805   -0.0500
20     C20    -1.4281    1.7044    9.1842 C.3      1 ZINC000001481805   -0.1000
21     H21    -1.9759    0.7636    9.1299 H        1 ZINC000001481805    0.1600
22     S22    -2.2638    2.9952    8.2019 S.3      1 ZINC000001481805   -0.1000
23     C23    -2.5537    4.0534    9.5944 C.2      1 ZINC000001481805    0.5400
24     O24    -3.1098    5.1342    9.5705 O.2      1 ZINC000001481805   -0.4300
25     N25    -2.0515    3.4498   10.6736 N.am     1 ZINC000001481805   -0.6800
26     C26    -1.4636    2.2638   10.5896 C.2      1 ZINC000001481805    0.5400
27     O27    -0.9971    1.6868   11.5483 O.2      1 ZINC000001481805   -0.4500
28     C28     0.0366   -0.4763    7.1985 C.ar     1 ZINC000001481805   -0.0700
29     C29     0.0348   -1.0439    5.9391 C.ar     1 ZINC000001481805   -0.1400
30     H30     1.0048    1.8381    0.0023 H        1 ZINC000001481805    0.0800
31     H31    -0.5450    1.8219   -0.8730 H        1 ZINC000001481805    0.1000
32     H32    -0.5280    1.8123    0.9069 H        1 ZINC000001481805    0.0900
33     H33     0.0200   -2.4442   -3.2546 H        1 ZINC000001481805    0.1400
34     H34     0.0552   -4.8944   -3.0710 H        1 ZINC000001481805    0.1400
35     H35     0.0790   -5.9789   -0.8663 H        1 ZINC000001481805    0.1400
36     H36     0.0697   -4.6380    1.1877 H        1 ZINC000001481805    0.1400
37     H37     0.9015    0.7444    2.4986 H        1 ZINC000001481805    0.1000
38     H38    -0.8784    0.7276    2.5020 H        1 ZINC000001481805    0.1000
39     H39    -0.0049    1.7811    4.0822 H        1 ZINC000001481805    0.1300
40     H40    -0.0114    2.7841    6.3300 H        1 ZINC000001481805    0.1300
41     H41     0.5409    0.8594    9.4070 H        1 ZINC000001481805    0.1100
42     H42     0.5157    2.4835    8.6788 H        1 ZINC000001481805    0.0900
43     H43    -2.1186    3.8861   11.5373 H        1 ZINC000001481805    0.4200
44     H44     0.0484   -1.1074    8.0748 H        1 ZINC000001481805    0.1300
45     H45     0.0489   -2.1183    5.8305 H        1 ZINC000001481805    0.1400
@<TRIPOS>BOND
1     1     2     1
2     1     30    1
3     1     31    1
4     1     32    1
5     2     12    1
6     2     3     am
7     3     4     2
8     3     5     1
9     5     10    ar
10    5     6     ar
11    6     7     ar
12    6     33    1
13    7     8     ar
14    7     34    1
15    8     9     ar
16    8     35    1
17    9     10    ar
18    9     36    1
19    10    11    1
20    11    12    2
21    12    13    1
22    13    14    1
23    13    37    1
24    13    38    1
25    14    15    1
26    15    29    ar
27    15    16    ar
28    16    17    ar
29    16    39    1
30    17    18    ar
31    17    40    1
32    18    19    1
33    18    28    ar
34    19    20    1
35    19    41    1
36    19    42    1
37    20    21    1
38    20    26    1
39    20    22    1
40    22    23    1
41    23    24    2
42    23    25    am
43    25    26    am
44    25    43    1
45    26    27    2
46    28    29    ar
47    28    44    1
48    29    45    1
@<TRIPOS>SUBSTRUCTURE
1   ZINC000001481805 1     RESIDUE    1   A     ZIN   1
