@<TRIPOS>MOLECULE
ZINC000003828610
61    64    1     0     0
SMALL
USER_CHARGES
@<TRIPOS>ATOM
1      C1     -0.0178    1.4608    0.0101 C.3      1 ZINC000003828610    0.0900
2      N2      0.0021   -0.0041    0.0020 N.am     1 ZINC000003828610   -0.7300
3      C3      0.6044   -0.6754    1.0035 C.2      1 ZINC000003828610    0.5600
4      O4      1.1311   -0.0654    1.9135 O.2      1 ZINC000003828610   -0.5300
5      C5      0.6244   -2.1537    0.9954 C.ar     1 ZINC000003828610   -0.1300
6      C6      0.0262   -2.8586   -0.0500 C.ar     1 ZINC000003828610   -0.0900
7      C7      0.0532   -4.2363   -0.0490 C.ar     1 ZINC000003828610   -0.1200
8      C8      0.6689   -4.9280    0.9844 C.ar     1 ZINC000003828610   -0.0900
9      C9      1.2591   -4.2357    2.0237 C.ar     1 ZINC000003828610   -0.0800
10     C10     1.2463   -2.8529    2.0292 C.ar     1 ZINC000003828610   -0.0600
11     C11     1.9245   -4.9571    3.1682 C.3      1 ZINC000003828610   -0.1200
12     C12     2.2021   -6.4087    2.7738 C.3      1 ZINC000003828610    0.0600
13     O13     1.0041   -6.9662    2.2219 O.3      1 ZINC000003828610   -0.3700
14     C14     0.6775   -6.4344    0.9385 C.3      1 ZINC000003828610    0.1300
15     H15     1.4163   -6.7691    0.2104 H        1 ZINC000003828610    0.0800
16     C16    -0.7073   -6.9333    0.5209 C.3      1 ZINC000003828610   -0.1100
17     C17    -0.6675   -8.4512    0.3337 C.3      1 ZINC000003828610    0.0600
18     N18    -1.9971   -8.9302   -0.0673 N.3      1 ZINC000003828610   -0.5400
19     C19    -3.0464   -8.3359    0.7727 C.3      1 ZINC000003828610    0.0500
20     C20    -4.4178   -8.7967    0.2735 C.3      1 ZINC000003828610    0.0500
21     N21    -4.4832  -10.2642    0.3138 N.3      1 ZINC000003828610   -0.4900
22     C22    -5.7498  -10.7205   -0.0682 C.ar     1 ZINC000003828610    0.0800
23     C23    -6.7372   -9.8116   -0.4246 C.ar     1 ZINC000003828610   -0.1300
24     C24    -7.9868  -10.2628   -0.8019 C.ar     1 ZINC000003828610   -0.1200
25     C25    -8.2558  -11.6233   -0.8244 C.ar     1 ZINC000003828610    0.1000
26     O26    -9.4867  -12.0667   -1.1956 O.3      1 ZINC000003828610   -0.3200
27     C27    -9.6941  -13.4805   -1.1961 C.3      1 ZINC000003828610    0.0300
28     C28    -7.2699  -12.5318   -0.4690 C.ar     1 ZINC000003828610   -0.1800
29     C29    -6.0181  -12.0826   -0.0965 C.ar     1 ZINC000003828610   -0.1000
30     C30    -3.4340  -10.8585   -0.5262 C.3      1 ZINC000003828610    0.0600
31     C31    -2.0625  -10.3977   -0.0270 C.3      1 ZINC000003828610    0.0600
32     H32     1.0048    1.8381    0.0023 H        1 ZINC000003828610    0.0600
33     H33    -0.5450    1.8219   -0.8730 H        1 ZINC000003828610    0.0800
34     H34    -0.5280    1.8123    0.9069 H        1 ZINC000003828610    0.0600
35     H35    -0.4183   -0.4908   -0.7241 H        1 ZINC000003828610    0.4000
36     H36    -0.4564   -2.3264   -0.8564 H        1 ZINC000003828610    0.1300
37     H37    -0.4088   -4.7819   -0.8585 H        1 ZINC000003828610    0.1300
38     H38     1.7118   -2.3132    2.8406 H        1 ZINC000003828610    0.1400
39     H39     2.8644   -4.4615    3.4115 H        1 ZINC000003828610    0.0900
40     H40     1.2693   -4.9372    4.0391 H        1 ZINC000003828610    0.0900
41     H41     2.9976   -6.4402    2.0293 H        1 ZINC000003828610    0.0600
42     H42     2.4986   -6.9774    3.6551 H        1 ZINC000003828610    0.1000
43     H43    -1.4327   -6.6815    1.2946 H        1 ZINC000003828610    0.0800
44     H44    -0.9969   -6.4590   -0.4168 H        1 ZINC000003828610    0.0900
45     H45     0.0579   -8.7030   -0.4400 H        1 ZINC000003828610    0.0800
46     H46    -0.3780   -8.9256    1.2714 H        1 ZINC000003828610    0.0500
47     H47    -2.9094   -8.6551    1.8059 H        1 ZINC000003828610    0.0500
48     H48    -2.9852   -7.2491    0.7164 H        1 ZINC000003828610    0.0900
49     H49    -5.1963   -8.3803    0.9128 H        1 ZINC000003828610    0.0900
50     H50    -4.5660   -8.4540   -0.7506 H        1 ZINC000003828610    0.0500
51     H51    -6.5282   -8.7522   -0.4064 H        1 ZINC000003828610    0.1300
52     H52    -8.7550   -9.5560   -1.0791 H        1 ZINC000003828610    0.1300
53     H53    -8.9932  -13.9503   -1.8861 H        1 ZINC000003828610    0.0500
54     H54    -9.5324  -13.8718   -0.1916 H        1 ZINC000003828610    0.0500
55     H55   -10.7147  -13.6980   -1.5108 H        1 ZINC000003828610    0.1000
56     H56    -7.4801  -13.5910   -0.4868 H        1 ZINC000003828610    0.1300
57     H57    -5.2506  -12.7902    0.1802 H        1 ZINC000003828610    0.1300
58     H58    -3.4951  -11.9454   -0.4699 H        1 ZINC000003828610    0.0800
59     H59    -3.5709  -10.5393   -1.5594 H        1 ZINC000003828610    0.0500
60     H60    -1.2840  -10.8141   -0.6663 H        1 ZINC000003828610    0.0800
61     H61    -1.9143  -10.7404    0.9971 H        1 ZINC000003828610    0.0500
@<TRIPOS>BOND
1     1     2     1
2     1     32    1
3     1     33    1
4     1     34    1
5     2     3     am
6     2     35    1
7     3     4     2
8     3     5     1
9     5     10    ar
10    5     6     ar
11    6     7     ar
12    6     36    1
13    7     8     ar
14    7     37    1
15    8     14    1
16    8     9     ar
17    9     10    ar
18    9     11    1
19    10    38    1
20    11    12    1
21    11    39    1
22    11    40    1
23    12    13    1
24    12    41    1
25    12    42    1
26    13    14    1
27    14    15    1
28    14    16    1
29    16    17    1
30    16    43    1
31    16    44    1
32    17    18    1
33    17    45    1
34    17    46    1
35    18    31    1
36    18    19    1
37    19    20    1
38    19    47    1
39    19    48    1
40    20    21    1
41    20    49    1
42    20    50    1
43    21    22    1
44    21    30    1
45    22    29    ar
46    22    23    ar
47    23    24    ar
48    23    51    1
49    24    25    ar
50    24    52    1
51    25    26    1
52    25    28    ar
53    26    27    1
54    27    53    1
55    27    54    1
56    27    55    1
57    28    29    ar
58    28    56    1
59    29    57    1
60    30    31    1
61    30    58    1
62    30    59    1
63    31    60    1
64    31    61    1
@<TRIPOS>SUBSTRUCTURE
1   ZINC000003828610 1     RESIDUE    1   A     ZIN   1
