@<TRIPOS>MOLECULE
ZINC000003930092
93    96    1     0     0
SMALL
USER_CHARGES
@<TRIPOS>ATOM
1      C1      3.6649   -7.4374   -8.1290 C.3      1 ZINC000003930092   -0.1400
2      C2      2.7712   -7.4534   -6.8873 C.3      1 ZINC000003930092   -0.1300
3      C3      3.2678   -8.5256   -5.9153 C.3      1 ZINC000003930092   -0.1300
4      C4      2.8201   -6.1052   -6.2158 C.2      1 ZINC000003930092    0.4500
5      O5      3.7851   -5.3856   -6.3692 O.2      1 ZINC000003930092   -0.4600
6      C6      1.7027   -5.6633   -5.3776 C.2      1 ZINC000003930092   -0.0900
7      C7      1.6071   -4.4611   -4.7099 C.2      1 ZINC000003930092    0.0400
8      N8      0.4194   -4.4695   -4.0639 N.pl3    1 ZINC000003930092   -0.5600
9      C9     -0.1935   -5.6520   -4.3336 C.2      1 ZINC000003930092    0.2200
10     C10    -1.5425   -6.0739   -3.8108 C.3      1 ZINC000003930092    0.0100
11     H11    -1.9818   -6.8064   -4.4881 H        1 ZINC000003930092    0.1200
12     C12    -2.4584   -4.8518   -3.7178 C.3      1 ZINC000003930092   -0.0800
13     C13    -2.7357   -4.3253   -5.1023 C.ar     1 ZINC000003930092   -0.0900
14     C14    -1.9008   -3.3754   -5.6606 C.ar     1 ZINC000003930092   -0.1200
15     C15    -2.1552   -2.8925   -6.9306 C.ar     1 ZINC000003930092   -0.1200
16     C16    -3.2442   -3.3597   -7.6425 C.ar     1 ZINC000003930092   -0.1200
17     C17    -4.0785   -4.3102   -7.0846 C.ar     1 ZINC000003930092   -0.1100
18     C18    -3.8217   -4.7963   -5.8162 C.ar     1 ZINC000003930092   -0.1100
19     C19    -1.3797   -6.6961   -2.4226 C.3      1 ZINC000003930092   -0.1500
20     C20    -0.5828   -7.9971   -2.5371 C.3      1 ZINC000003930092    0.1000
21     H21     0.3624   -7.8009   -3.0434 H        1 ZINC000003930092    0.1200
22     O22    -1.3356   -8.9524   -3.2872 O.3      1 ZINC000003930092   -0.5400
23     C23    -0.3064   -8.5508   -1.1378 C.3      1 ZINC000003930092    0.1200
24     H24     0.2678   -7.8221   -0.5656 H        1 ZINC000003930092    0.1000
25     C25     0.4905   -9.8518   -1.2523 C.3      1 ZINC000003930092   -0.0900
26     C26     0.8684  -10.3323    0.1252 C.ar     1 ZINC000003930092   -0.0600
27     C27     2.0562   -9.9198    0.6994 C.ar     1 ZINC000003930092   -0.1100
28     C28     2.4028  -10.3606    1.9629 C.ar     1 ZINC000003930092   -0.1100
29     C29     1.5613  -11.2135    2.6524 C.ar     1 ZINC000003930092   -0.1200
30     C30     0.3730  -11.6253    2.0785 C.ar     1 ZINC000003930092   -0.1100
31     C31     0.0244  -11.1811    0.8167 C.ar     1 ZINC000003930092   -0.1100
32     N32    -1.5767   -8.8145   -0.4574 N.am     1 ZINC000003930092   -0.7200
33     C33    -1.6323   -8.8157    0.8893 C.2      1 ZINC000003930092    0.5200
34     O34    -0.6177   -8.6732    1.5382 O.2      1 ZINC000003930092   -0.5000
35     C35    -2.9553   -8.9942    1.5886 C.3      1 ZINC000003930092    0.1500
36     H36    -3.6028   -9.6296    0.9845 H        1 ZINC000003930092    0.1100
37     N37    -2.7366   -9.6211    2.8945 N.am     1 ZINC000003930092   -0.6900
38     C38    -3.7254  -10.3279    3.4768 C.2      1 ZINC000003930092    0.6500
39     O39    -4.7983  -10.4452    2.9185 O.2      1 ZINC000003930092   -0.5700
40     O40    -3.5245  -10.9040    4.6770 O.3      1 ZINC000003930092   -0.3600
41     C41    -4.6336  -11.6499    5.2441 C.3      1 ZINC000003930092    0.1300
42     C42    -4.2264  -12.2184    6.5790 C.ar     1 ZINC000003930092   -0.1000
43     C43    -3.6437  -13.4700    6.6485 C.ar     1 ZINC000003930092   -0.0900
44     C44    -3.2701  -13.9915    7.8730 C.ar     1 ZINC000003930092   -0.1200
45     C45    -3.4787  -13.2611    9.0280 C.ar     1 ZINC000003930092   -0.1100
46     C46    -4.0606  -12.0092    8.9584 C.ar     1 ZINC000003930092   -0.1200
47     C47    -4.4303  -11.4859    7.7335 C.ar     1 ZINC000003930092   -0.0900
48     C48    -3.6177   -7.6288    1.7828 C.3      1 ZINC000003930092   -0.1000
49     C49    -2.7138   -6.7406    2.6401 C.3      1 ZINC000003930092   -0.1500
50     C50    -3.8361   -6.9694    0.4196 C.3      1 ZINC000003930092   -0.1600
51     N51     0.5644   -6.3602   -5.1185 N.2      1 ZINC000003930092   -0.4300
52     H52     3.6296   -8.4126   -8.6147 H        1 ZINC000003930092    0.0600
53     H53     3.3112   -6.6736   -8.8215 H        1 ZINC000003930092    0.0500
54     H54     4.6908   -7.2147   -7.8355 H        1 ZINC000003930092    0.0600
55     H55     1.7454   -7.6761   -7.1808 H        1 ZINC000003930092    0.1000
56     H56     2.6311   -8.5370   -5.0307 H        1 ZINC000003930092    0.0600
57     H57     3.2324   -9.5008   -6.4010 H        1 ZINC000003930092    0.0700
58     H58     4.2936   -8.3029   -5.6218 H        1 ZINC000003930092    0.0600
59     H59     2.3391   -3.6670   -4.7036 H        1 ZINC000003930092    0.1900
60     H60     0.0676   -3.7580   -3.5064 H        1 ZINC000003930092    0.4200
61     H61    -3.3971   -5.1366   -3.2426 H        1 ZINC000003930092    0.0900
62     H62    -1.9715   -4.0772   -3.1253 H        1 ZINC000003930092    0.0700
63     H63    -1.0501   -3.0104   -5.1044 H        1 ZINC000003930092    0.1100
64     H64    -1.5034   -2.1499   -7.3665 H        1 ZINC000003930092    0.1200
65     H65    -3.4433   -2.9818   -8.6345 H        1 ZINC000003930092    0.1200
66     H66    -4.9295   -4.6750   -7.6406 H        1 ZINC000003930092    0.1200
67     H67    -4.4735   -5.5390   -5.3803 H        1 ZINC000003930092    0.1200
68     H68    -0.8486   -6.0006   -1.7727 H        1 ZINC000003930092    0.0800
69     H69    -2.3627   -6.9080   -2.0019 H        1 ZINC000003930092    0.0800
70     H70    -2.1907   -9.1753   -2.8946 H        1 ZINC000003930092    0.3700
71     H71    -0.1184  -10.6086   -1.7468 H        1 ZINC000003930092    0.0800
72     H72     1.3940   -9.6743   -1.8357 H        1 ZINC000003930092    0.0800
73     H73     2.7136   -9.2534    0.1608 H        1 ZINC000003930092    0.1100
74     H74     3.3312  -10.0389    2.4113 H        1 ZINC000003930092    0.1100
75     H75     1.8324  -11.5584    3.6393 H        1 ZINC000003930092    0.1100
76     H76    -0.2842  -12.2919    2.6170 H        1 ZINC000003930092    0.1100
77     H77    -0.9039  -11.5028    0.3684 H        1 ZINC000003930092    0.1100
78     H78    -2.3778   -8.9883   -0.9760 H        1 ZINC000003930092    0.4000
79     H79    -1.8801   -9.5274    3.3402 H        1 ZINC000003930092    0.4200
80     H80    -5.4877  -10.9859    5.3773 H        1 ZINC000003930092    0.0800
81     H81    -4.9068  -12.4627    4.5711 H        1 ZINC000003930092    0.0800
82     H82    -3.4806  -14.0406    5.7462 H        1 ZINC000003930092    0.1200
83     H83    -2.8155  -14.9696    7.9273 H        1 ZINC000003930092    0.1300
84     H84    -3.1875  -13.6688    9.9847 H        1 ZINC000003930092    0.1300
85     H85    -4.2240  -11.4387    9.8608 H        1 ZINC000003930092    0.1300
86     H86    -4.8849  -10.5077    7.6791 H        1 ZINC000003930092    0.1200
87     H87    -4.5782   -7.7586    2.2817 H        1 ZINC000003930092    0.0900
88     H88    -1.7533   -6.6108    2.1412 H        1 ZINC000003930092    0.0600
89     H89    -3.1857   -5.7679    2.7784 H        1 ZINC000003930092    0.0600
90     H90    -2.5582   -7.2104    3.6112 H        1 ZINC000003930092    0.0600
91     H91    -4.4971   -7.5919   -0.1834 H        1 ZINC000003930092    0.0600
92     H92    -4.2889   -5.9877    0.5592 H        1 ZINC000003930092    0.0700
93     H93    -2.8780   -6.8587   -0.0881 H        1 ZINC000003930092    0.0600
@<TRIPOS>BOND
1     1     2     1
2     1     52    1
3     1     53    1
4     1     54    1
5     2     3     1
6     2     4     1
7     2     55    1
8     3     56    1
9     3     57    1
10    3     58    1
11    4     5     2
12    4     6     1
13    6     51    1
14    6     7     2
15    7     8     1
16    7     59    1
17    8     9     1
18    8     60    1
19    9     10    1
20    9     51    2
21    10    11    1
22    10    12    1
23    10    19    1
24    12    13    1
25    12    61    1
26    12    62    1
27    13    18    ar
28    13    14    ar
29    14    15    ar
30    14    63    1
31    15    16    ar
32    15    64    1
33    16    17    ar
34    16    65    1
35    17    18    ar
36    17    66    1
37    18    67    1
38    19    20    1
39    19    68    1
40    19    69    1
41    20    21    1
42    20    22    1
43    20    23    1
44    22    70    1
45    23    24    1
46    23    25    1
47    23    32    1
48    25    26    1
49    25    71    1
50    25    72    1
51    26    31    ar
52    26    27    ar
53    27    28    ar
54    27    73    1
55    28    29    ar
56    28    74    1
57    29    30    ar
58    29    75    1
59    30    31    ar
60    30    76    1
61    31    77    1
62    32    33    am
63    32    78    1
64    33    34    2
65    33    35    1
66    35    36    1
67    35    37    1
68    35    48    1
69    37    38    am
70    37    79    1
71    38    39    2
72    38    40    1
73    40    41    1
74    41    42    1
75    41    80    1
76    41    81    1
77    42    47    ar
78    42    43    ar
79    43    44    ar
80    43    82    1
81    44    45    ar
82    44    83    1
83    45    46    ar
84    45    84    1
85    46    47    ar
86    46    85    1
87    47    86    1
88    48    49    1
89    48    50    1
90    48    87    1
91    49    88    1
92    49    89    1
93    49    90    1
94    50    91    1
95    50    92    1
96    50    93    1
@<TRIPOS>SUBSTRUCTURE
1   ZINC000003930092 1     RESIDUE    1   A     ZIN   1
