@<TRIPOS>MOLECULE
ZINC000252606119
46    48    1     0     0
SMALL
USER_CHARGES
@<TRIPOS>ATOM
1      C1      0.0701    0.9630    0.6261 C.3      1 ZINC000252606119    0.0300
2      O2     -0.0385   -0.4555    0.7597 O.3      1 ZINC000252606119   -0.2200
3      N3     -1.3663   -0.9413    0.6825 N.2      1 ZINC000252606119   -0.2800
4      C4     -1.6000   -2.2185    0.7900 C.2      1 ZINC000252606119    0.1900
5      C5     -2.9954   -2.7153    0.8346 C.2      1 ZINC000252606119    0.5800
6      O6     -3.2133   -3.9065    0.9347 O.2      1 ZINC000252606119   -0.4700
7      N7     -4.0228   -1.8459    0.7640 N.am     1 ZINC000252606119   -0.6900
8      C8     -5.4023   -2.3370    0.8081 C.3      1 ZINC000252606119    0.1300
9      H9     -5.4969   -3.3667    0.4633 H        1 ZINC000252606119    0.1500
10     C10    -6.1026   -2.0699    2.1296 C.2      1 ZINC000252606119    0.5300
11     O11    -6.0396   -2.5615    3.2367 O.2      1 ZINC000252606119   -0.4300
12     N12    -6.8198   -1.0722    1.5845 N.am     1 ZINC000252606119   -0.5600
13     C13    -7.5631    0.0420    2.0106 C.2      1 ZINC000252606119    0.1000
14     C14    -8.2507    0.0150    3.3118 C.2      1 ZINC000252606119    0.5200
15     O15    -8.9910    0.9351    3.6316 O.co2    1 ZINC000252606119   -0.6600
16     O16    -8.0819   -0.9274    4.0734 O.co2    1 ZINC000252606119   -0.6500
17     C17    -7.6440    1.1180    1.2393 C.2      1 ZINC000252606119   -0.1900
18     C18    -8.4154    2.2794    1.8112 C.3      1 ZINC000252606119    0.1400
19     O19    -8.3213    3.4137    0.9097 O.3      1 ZINC000252606119   -0.3800
20     C20    -8.8713    4.5668    1.3216 C.2      1 ZINC000252606119    0.4500
21     C21    -8.8127    5.7872    0.4394 C.3      1 ZINC000252606119   -0.1400
22     O22    -9.4133    4.6263    2.3998 O.2      1 ZINC000252606119   -0.5100
23     C23    -7.0684    1.3266   -0.1227 C.3      1 ZINC000252606119   -0.0100
24     S24    -5.7148    0.1668   -0.4833 S.3      1 ZINC000252606119   -0.2400
25     C25    -6.4116   -1.3846    0.1753 C.3      1 ZINC000252606119    0.1300
26     H26    -7.1733   -1.8423   -0.4559 H        1 ZINC000252606119    0.1500
27     C27    -0.4727   -3.1724    0.8673 C.2      1 ZINC000252606119    0.1000
28     C28     0.8094   -2.7691    0.9642 C.2      1 ZINC000252606119   -0.2300
29     S29     1.8353   -4.1999    1.0312 S.3      1 ZINC000252606119    0.0500
30     C30     0.4121   -5.2305    0.9203 C.2      1 ZINC000252606119    0.3500
31     N31     0.4269   -6.6152    0.9135 N.pl3    1 ZINC000252606119   -0.8100
32     N32    -0.6522   -4.4937    0.8520 N.2      1 ZINC000252606119   -0.5000
33     H33     1.1178    1.2555    0.6962 H        1 ZINC000252606119    0.1000
34     H34    -0.3284    1.2684   -0.3415 H        1 ZINC000252606119    0.0600
35     H35    -0.4963    1.4474    1.4215 H        1 ZINC000252606119    0.0600
36     H36    -3.8488   -0.8950    0.6840 H        1 ZINC000252606119    0.4200
37     H37    -9.4612    1.9968    1.9317 H        1 ZINC000252606119    0.1000
38     H38    -7.9982    2.5505    2.7810 H        1 ZINC000252606119    0.1000
39     H39    -9.3161    5.5777   -0.5044 H        1 ZINC000252606119    0.0900
40     H40    -9.3078    6.6203    0.9383 H        1 ZINC000252606119    0.1000
41     H41    -7.7716    6.0462    0.2462 H        1 ZINC000252606119    0.0900
42     H42    -7.8562    1.1919   -0.8639 H        1 ZINC000252606119    0.1000
43     H43    -6.6890    2.3459   -0.1939 H        1 ZINC000252606119    0.1300
44     H44     1.1497   -1.7446    0.9948 H        1 ZINC000252606119    0.2000
45     H45     1.2699   -7.0915    0.9727 H        1 ZINC000252606119    0.4100
46     H46    -0.4056   -7.1089    0.8496 H        1 ZINC000252606119    0.4200
@<TRIPOS>BOND
1     1     2     1
2     1     33    1
3     1     34    1
4     1     35    1
5     2     3     1
6     3     4     2
7     4     5     1
8     4     27    1
9     5     6     2
10    5     7     am
11    7     8     1
12    7     36    1
13    8     9     1
14    8     25    1
15    8     10    1
16    10    11    2
17    10    12    am
18    12    25    1
19    12    13    1
20    13    14    1
21    13    17    2
22    14    15    ar
23    14    16    ar
24    17    18    1
25    17    23    1
26    18    19    1
27    18    37    1
28    18    38    1
29    19    20    1
30    20    21    1
31    20    22    2
32    21    39    1
33    21    40    1
34    21    41    1
35    23    24    1
36    23    42    1
37    23    43    1
38    24    25    1
39    25    26    1
40    27    32    1
41    27    28    2
42    28    29    1
43    28    44    1
44    29    30    1
45    30    31    1
46    30    32    2
47    31    45    1
48    31    46    1
@<TRIPOS>SUBSTRUCTURE
1   ZINC000252606119 1     RESIDUE    1   A     ZIN   1
