@<TRIPOS>MOLECULE
ZINC000003986746
  65   68    0    0    0
SMALL
NO_CHARGES
@<TRIPOS>ATOM
   1 C1            -0.0173     1.4248     0.0099 C.3     
   2 O2             0.0021    -0.0041     0.0020 O.3     
   3 C3            -1.2003    -0.6375     0.0101 C.ar    
   4 C4            -2.3746     0.1011     0.0195 C.ar    
   5 C5            -3.5956    -0.5451     0.0272 C.ar    
   6 C6            -3.6478    -1.9268     0.0260 C.ar    
   7 C7            -4.9811    -2.6292     0.0350 C.3     
   8 C8            -5.4359    -2.8617    -1.3828 C.2     
   9 O9            -4.7453    -2.4934    -2.3093 O.2     
  10 N10           -6.6100    -3.4790    -1.6212 N.am    
  11 C11           -7.0521    -3.7051    -2.9995 C.3     
  12 C12           -8.3854    -4.4074    -2.9906 C.ar    
  13 C13           -8.4499    -5.7706    -3.1933 C.ar    
  14 C14           -9.6733    -6.4169    -3.1849 C.ar    
  15 C15          -10.8381    -5.7016    -2.9735 C.ar    
  16 C16          -10.7862    -4.3376    -2.7696 C.ar    
  17 C17           -9.5560    -3.6817    -2.7717 C.ar    
  18 C18           -9.4934    -2.2173    -2.5533 C.ar    
  19 C19           -9.8753    -1.6750    -1.3298 C.ar    
  20 C20           -9.8156    -0.3100    -1.1305 C.ar    
  21 C21           -9.3773     0.5280    -2.1420 C.ar    
  22 C22           -8.9949     0.0094    -3.3620 C.ar    
  23 C23           -9.0421    -1.3675    -3.5794 C.ar    
  24 C24           -8.6337    -1.9283    -4.8825 C.2     
  25 O25           -8.6764    -3.1291    -5.0678 O.2     
  26 N26           -8.2134    -1.1091    -5.8667 N.am    
  27 C27           -7.8081    -1.6656    -7.1599 C.3     
  28 C28           -7.3780    -0.5305    -8.0913 C.3     
  29 C29           -6.9611    -1.1030    -9.4215 C.ar    
  30 C30           -5.6445    -1.4760    -9.6435 C.ar    
  31 C31           -5.3066    -1.9986   -10.8828 C.ar    
  32 C32           -6.2864    -2.1292   -11.8483 C.ar    
  33 N33           -7.5294    -1.7638   -11.6019 N.ar    
  34 C34           -7.8878    -1.2681   -10.4338 C.ar    
  35 C35           -2.4788    -2.6651     0.0162 C.ar    
  36 C36           -1.2554    -2.0237     0.0032 C.ar    
  37 H37            1.0053     1.8021     0.0021 H       
  38 H38           -0.5445     1.7859    -0.8732 H       
  39 H39           -0.5275     1.7763     0.9067 H       
  40 H40           -2.3343     1.1803     0.0211 H       
  41 H41           -4.5101     0.0294     0.0345 H       
  42 H42           -4.8840    -3.5865     0.5470 H       
  43 H43           -5.7136    -2.0117     0.5548 H       
  44 H44           -7.1623    -3.7736    -0.8802 H       
  45 H45           -7.1492    -2.7477    -3.5116 H       
  46 H46           -6.3196    -4.3226    -3.5194 H       
  47 H47           -7.5438    -6.3343    -3.3592 H       
  48 H48           -9.7189    -7.4841    -3.3444 H       
  49 H49          -11.7902    -6.2114    -2.9684 H       
  50 H50          -11.6964    -3.7801    -2.6050 H       
  51 H51          -10.2189    -2.3220    -0.5363 H       
  52 H52          -10.1129     0.1068    -0.1795 H       
  53 H53           -9.3350     1.5942    -1.9750 H       
  54 H54           -8.6545     0.6688    -4.1466 H       
  55 H55           -8.1793    -0.1510    -5.7189 H       
  56 H56           -6.9741    -2.3522    -7.0146 H       
  57 H57           -8.6470    -2.2017    -7.6037 H       
  58 H58           -8.2121     0.1560    -8.2366 H       
  59 H59           -6.5392     0.0056    -7.6475 H       
  60 H60           -4.8997    -1.3620    -8.8699 H       
  61 H61           -4.2904    -2.2994   -11.0907 H       
  62 H62           -6.0313    -2.5350   -12.8162 H       
  63 H63           -8.9154    -0.9797   -10.2689 H       
  64 H64           -2.5223    -3.7443     0.0150 H       
  65 H65           -0.3426    -2.6008    -0.0045 H       
@<TRIPOS>BOND
   1    1    2 1
   2    1   37 1
   3    1   38 1
   4    1   39 1
   5    2    3 1
   6    3   36 ar
   7    3    4 ar
   8    4    5 ar
   9    4   40 1
  10    5    6 ar
  11    5   41 1
  12    6    7 1
  13    6   35 ar
  14    7    8 1
  15    7   42 1
  16    7   43 1
  17    8    9 2
  18    8   10 am
  19   10   11 1
  20   10   44 1
  21   11   12 1
  22   11   45 1
  23   11   46 1
  24   12   17 ar
  25   12   13 ar
  26   13   14 ar
  27   13   47 1
  28   14   15 ar
  29   14   48 1
  30   15   16 ar
  31   15   49 1
  32   16   17 ar
  33   16   50 1
  34   17   18 1
  35   18   23 ar
  36   18   19 ar
  37   19   20 ar
  38   19   51 1
  39   20   21 ar
  40   20   52 1
  41   21   22 ar
  42   21   53 1
  43   22   23 ar
  44   22   54 1
  45   23   24 1
  46   24   25 2
  47   24   26 am
  48   26   27 1
  49   26   55 1
  50   27   28 1
  51   27   56 1
  52   27   57 1
  53   28   29 1
  54   28   58 1
  55   28   59 1
  56   29   34 ar
  57   29   30 ar
  58   30   31 ar
  59   30   60 1
  60   31   32 ar
  61   31   61 1
  62   32   33 ar
  63   32   62 1
  64   33   34 ar
  65   34   63 1
  66   35   36 ar
  67   35   64 1
  68   36   65 1
