@<TRIPOS>MOLECULE
ZINC000043150941
63    65    1     0     0
SMALL
USER_CHARGES
@<TRIPOS>ATOM
1      O1      0.0021   -0.0041    0.0020 O.2      1 ZINC000043150941   -0.5700
2      C2     -0.0145    1.2147    0.0087 C.2      1 ZINC000043150941    0.5100
3      C3     -1.2558    1.8861    0.0300 C.2      1 ZINC000043150941   -0.2000
4      C4     -1.2994    3.2412    0.0374 C.2      1 ZINC000043150941   -0.0500
5      C5     -0.0367    3.9822    0.0233 C.ar     1 ZINC000043150941   -0.0700
6      C6     -0.0188    5.3814    0.0306 C.ar     1 ZINC000043150941   -0.2600
7      C7     -1.3129    6.1534    0.0532 C.3      1 ZINC000043150941    0.1600
8      H8     -2.0477    5.6134    0.6504 H        1 ZINC000043150941    0.1100
9      O9     -1.0883    7.4430    0.6264 O.3      1 ZINC000043150941   -0.5600
10     C10    -1.8358    6.3143   -1.3756 C.3      1 ZINC000043150941   -0.0500
11     N11    -3.0972    7.0668   -1.3535 N.4      1 ZINC000043150941   -0.5100
12     H12    -3.7774    6.5670   -0.8008 H        1 ZINC000043150941    0.4300
13     H13    -2.9386    7.9774   -0.9488 H        1 ZINC000043150941    0.4300
14     C14    -3.5993    7.2214   -2.7254 C.3      1 ZINC000043150941   -0.0100
15     C15    -4.9131    8.0051   -2.7024 C.3      1 ZINC000043150941   -0.1500
16     C16    -5.4360    8.1661   -4.1312 C.3      1 ZINC000043150941   -0.1200
17     C17    -6.7498    8.9499   -4.1082 C.3      1 ZINC000043150941   -0.1200
18     C18    -7.2727    9.1109   -5.5371 C.3      1 ZINC000043150941   -0.1200
19     C19    -8.5865    9.8946   -5.5141 C.3      1 ZINC000043150941    0.0600
20     O20    -9.0749   10.0450   -6.8486 O.3      1 ZINC000043150941   -0.3700
21     C21   -10.3048   10.7668   -6.9396 C.3      1 ZINC000043150941    0.0300
22     C22   -10.7306   10.8662   -8.4057 C.3      1 ZINC000043150941    0.3500
23     F23   -11.9347   11.5729   -8.4948 F        1 ZINC000043150941   -0.1800
24     F24    -9.7417   11.5360   -9.1342 F        1 ZINC000043150941   -0.1800
25     C25   -10.9182    9.4812   -8.9693 C.ar     1 ZINC000043150941   -0.1500
26     C26    -9.8536    8.8244   -9.5578 C.ar     1 ZINC000043150941   -0.0700
27     C27   -10.0257    7.5539  -10.0747 C.ar     1 ZINC000043150941   -0.1200
28     C28   -11.2622    6.9401  -10.0028 C.ar     1 ZINC000043150941   -0.1000
29     C29   -12.3265    7.5965   -9.4135 C.ar     1 ZINC000043150941   -0.1200
30     C30   -12.1534    8.8652   -8.8927 C.ar     1 ZINC000043150941   -0.0900
31     C31     1.1748    6.0457    0.0175 C.ar     1 ZINC000043150941   -0.0400
32     C32     2.3732    5.3464   -0.0033 C.ar     1 ZINC000043150941   -0.2600
33     C33     2.3821    3.9640   -0.0109 C.ar     1 ZINC000043150941    0.2700
34     O34     3.5617    3.2881   -0.0313 O.3      1 ZINC000043150941   -0.6900
35     C35     1.1737    3.2659    0.0027 C.ar     1 ZINC000043150941    0.0600
36     N36     1.1504    1.8863    0.0012 N.am     1 ZINC000043150941   -0.5900
37     H37    -2.1744    1.3182    0.0401 H        1 ZINC000043150941    0.1400
38     H38    -2.2451    3.7627    0.0530 H        1 ZINC000043150941    0.1200
39     H39    -0.4439    7.9803    0.1456 H        1 ZINC000043150941    0.3800
40     H40    -1.1010    6.8543   -1.9727 H        1 ZINC000043150941    0.1400
41     H41    -2.0071    5.3307   -1.8128 H        1 ZINC000043150941    0.1400
42     H42    -2.8645    7.7614   -3.3225 H        1 ZINC000043150941    0.1300
43     H43    -3.7706    6.2377   -3.1626 H        1 ZINC000043150941    0.1300
44     H44    -5.6479    7.4651   -2.1053 H        1 ZINC000043150941    0.0900
45     H45    -4.7417    8.9888   -2.2652 H        1 ZINC000043150941    0.0900
46     H46    -4.7012    8.7061   -4.7284 H        1 ZINC000043150941    0.0800
47     H47    -5.6073    7.1825   -4.5684 H        1 ZINC000043150941    0.0800
48     H48    -7.4846    8.4099   -3.5111 H        1 ZINC000043150941    0.0700
49     H49    -6.5784    9.9335   -3.6711 H        1 ZINC000043150941    0.0700
50     H50    -6.5379    9.6509   -6.1342 H        1 ZINC000043150941    0.0800
51     H51    -7.4440    8.1272   -5.9743 H        1 ZINC000043150941    0.0700
52     H52    -9.3213    9.3546   -4.9170 H        1 ZINC000043150941    0.0500
53     H53    -8.4152   10.8783   -5.0769 H        1 ZINC000043150941    0.0500
54     H54   -11.0752   10.2449   -6.3720 H        1 ZINC000043150941    0.0800
55     H55   -10.1691   11.7686   -6.5319 H        1 ZINC000043150941    0.0800
56     H56    -8.8876    9.3040   -9.6140 H        1 ZINC000043150941    0.1300
57     H57    -9.1942    7.0411  -10.5351 H        1 ZINC000043150941    0.1300
58     H58   -11.3968    5.9478  -10.4073 H        1 ZINC000043150941    0.1300
59     H59   -13.2926    7.1170   -9.3576 H        1 ZINC000043150941    0.1300
60     H60   -12.9849    9.3781   -8.4323 H        1 ZINC000043150941    0.1300
61     H61     1.1858    7.1256    0.0232 H        1 ZINC000043150941    0.1000
62     H62     3.3080    5.8873   -0.0142 H        1 ZINC000043150941    0.1100
63     H63     1.9861    1.3940   -0.0094 H        1 ZINC000043150941    0.4200
@<TRIPOS>BOND
1     1     2     2
2     2     36    am
3     2     3     1
4     3     4     2
5     3     37    1
6     4     5     1
7     4     38    1
8     5     35    ar
9     5     6     ar
10    6     7     1
11    6     31    ar
12    7     8     1
13    7     9     1
14    7     10    1
15    9     39    1
16    10    11    1
17    10    40    1
18    10    41    1
19    11    12    1
20    11    13    1
21    11    14    1
22    14    15    1
23    14    42    1
24    14    43    1
25    15    16    1
26    15    44    1
27    15    45    1
28    16    17    1
29    16    46    1
30    16    47    1
31    17    18    1
32    17    48    1
33    17    49    1
34    18    19    1
35    18    50    1
36    18    51    1
37    19    20    1
38    19    52    1
39    19    53    1
40    20    21    1
41    21    22    1
42    21    54    1
43    21    55    1
44    22    23    1
45    22    24    1
46    22    25    1
47    25    30    ar
48    25    26    ar
49    26    27    ar
50    26    56    1
51    27    28    ar
52    27    57    1
53    28    29    ar
54    28    58    1
55    29    30    ar
56    29    59    1
57    30    60    1
58    31    32    ar
59    31    61    1
60    32    33    ar
61    32    62    1
62    33    34    1
63    33    35    ar
64    35    36    1
65    36    63    1
@<TRIPOS>SUBSTRUCTURE
1   ZINC000043150941 1     RESIDUE    1   A     ZIN   1
