@<TRIPOS>MOLECULE
ZINC000150339145
105   110   1     0     0
SMALL
USER_CHARGES
@<TRIPOS>ATOM
1      C1     -1.0431    0.8830    1.6459 C.2      1 ZINC000150339145   -0.2200
2      C2     -0.5779   -0.2169    1.1074 C.2      1 ZINC000150339145   -0.0800
3      C3     -1.4705   -1.4229    0.9665 C.3      1 ZINC000150339145   -0.1300
4      H4     -2.2932   -1.4847    1.6789 H        1 ZINC000150339145    0.1000
5      C5     -0.8205   -2.7348    0.5224 C.3      1 ZINC000150339145   -0.1700
6      C6     -1.7169   -1.9583   -0.4454 C.3      1 ZINC000150339145    0.0700
7      N7     -3.0403   -2.5152   -0.7364 N.am     1 ZINC000150339145   -0.6900
8      C8     -3.3120   -3.0010   -1.9639 C.2      1 ZINC000150339145    0.5000
9      O9     -2.4609   -2.9770   -2.8276 O.2      1 ZINC000150339145   -0.4600
10     C10    -4.6734   -3.5739   -2.2632 C.3      1 ZINC000150339145    0.1200
11     H11    -5.4387   -2.8152   -2.0998 H        1 ZINC000150339145    0.1100
12     C12    -4.9407   -4.7931   -1.3558 C.3      1 ZINC000150339145   -0.1100
13     C13    -4.5648   -5.9925   -2.2655 C.3      1 ZINC000150339145    0.0700
14     H14    -3.4892   -6.1689   -2.2548 H        1 ZINC000150339145    0.1100
15     O15    -5.2780   -7.1698   -1.8817 O.3      1 ZINC000150339145   -0.2800
16     C16    -4.7287   -8.3615   -2.2241 C.ar     1 ZINC000150339145    0.2100
17     C17    -5.3864   -9.5773   -1.9236 C.ar     1 ZINC000150339145   -0.1500
18     C18    -6.6238   -9.5877   -1.2639 C.ar     1 ZINC000150339145   -0.0100
19     C19    -7.2352  -10.7720   -0.9871 C.ar     1 ZINC000150339145   -0.2100
20     C20    -6.6443  -11.9848   -1.3524 C.ar     1 ZINC000150339145    0.1900
21     O21    -7.2751  -13.1531   -1.0641 O.3      1 ZINC000150339145   -0.3000
22     C22    -8.5318  -13.0627   -0.3899 C.3      1 ZINC000150339145    0.0200
23     C23    -5.4301  -12.0088   -2.0017 C.ar     1 ZINC000150339145   -0.1300
24     Br24   -4.6443  -13.6584   -2.4889 Br       1 ZINC000150339145   -0.0100
25     C25    -4.7781  -10.8001   -2.2991 C.ar     1 ZINC000150339145    0.2200
26     N26    -3.5984  -10.7941   -2.9293 N.ar     1 ZINC000150339145   -0.4900
27     C27    -2.9762   -9.6629   -3.2145 C.ar     1 ZINC000150339145    0.2900
28     C28    -1.6719   -9.7115   -3.9137 C.2      1 ZINC000150339145    0.1100
29     C29    -1.0915  -10.8707   -4.2782 C.2      1 ZINC000150339145   -0.2300
30     S30     0.4345  -10.4972   -5.0758 S.3      1 ZINC000150339145    0.2000
31     C31     0.1413   -8.7773   -4.8383 C.2      1 ZINC000150339145    0.2800
32     N32     0.9908   -7.7555   -5.2441 N.am     1 ZINC000150339145   -0.6200
33     C33     2.1454   -8.0493   -5.8742 C.2      1 ZINC000150339145    0.5200
34     O34     2.4429   -9.2057   -6.0869 O.2      1 ZINC000150339145   -0.5000
35     C35     3.0668   -6.9410   -6.3143 C.3      1 ZINC000150339145   -0.1100
36     C36     3.5076   -6.1295   -5.0944 C.3      1 ZINC000150339145   -0.1500
37     C37     4.2964   -7.5416   -6.9987 C.3      1 ZINC000150339145   -0.1300
38     N38    -0.9915   -8.6114   -4.2318 N.2      1 ZINC000150339145   -0.4900
39     C39    -3.5247   -8.4196   -2.8755 C.ar     1 ZINC000150339145   -0.2600
40     C40    -5.0309   -5.4877   -3.6539 C.3      1 ZINC000150339145    0.0700
41     N41    -4.7234   -4.0427   -3.6557 N.am     1 ZINC000150339145   -0.6000
42     C42    -4.5211   -3.2841   -4.7512 C.2      1 ZINC000150339145    0.5300
43     O43    -4.2020   -2.1201   -4.6322 O.2      1 ZINC000150339145   -0.4700
44     C44    -4.6914   -3.8821   -6.1239 C.3      1 ZINC000150339145    0.1600
45     H45    -5.3187   -4.7711   -6.0577 H        1 ZINC000150339145    0.1000
46     N46    -5.3257   -2.9016   -7.0085 N.am     1 ZINC000150339145   -0.6900
47     C47    -6.0267   -3.3169   -8.0821 C.2      1 ZINC000150339145    0.6500
48     O48    -6.1326   -4.5045   -8.3164 O.2      1 ZINC000150339145   -0.5700
49     O49    -6.6096   -2.4158   -8.8951 O.3      1 ZINC000150339145   -0.3600
50     C50    -7.3486   -2.9347  -10.0321 C.3      1 ZINC000150339145    0.1000
51     C51    -8.8544   -3.0566   -9.6901 C.3      1 ZINC000150339145   -0.1400
52     C52    -9.5263   -3.0128  -11.0850 C.3      1 ZINC000150339145   -0.1200
53     C53    -8.6916   -1.9836  -11.8748 C.3      1 ZINC000150339145   -0.1200
54     C54    -7.3070   -1.9340  -11.2054 C.3      1 ZINC000150339145   -0.1200
55     C55    -3.3213   -4.2656   -6.6867 C.3      1 ZINC000150339145   -0.0700
56     C56    -2.6028   -5.1853   -5.6974 C.3      1 ZINC000150339145   -0.1500
57     C57    -3.5033   -4.9936   -8.0201 C.3      1 ZINC000150339145   -0.1300
58     C58    -2.4878   -3.0013   -6.9055 C.3      1 ZINC000150339145   -0.1500
59     C59    -1.0481   -1.2397   -1.5888 C.2      1 ZINC000150339145    0.5400
60     O60    -1.7229   -0.7402   -2.4730 O.co2    1 ZINC000150339145   -0.6500
61     O61     0.1676   -1.1577   -1.6297 O.co2    1 ZINC000150339145   -0.7000
62     H62    -0.4034    1.7473    1.7468 H        1 ZINC000150339145    0.0900
63     H63    -2.0676    0.9269    1.9848 H        1 ZINC000150339145    0.0900
64     H64     0.4453   -0.2593    0.7644 H        1 ZINC000150339145    0.1200
65     H65     0.2527   -2.7256    0.3321 H        1 ZINC000150339145    0.1100
66     H66    -1.2158   -3.6597    0.9423 H        1 ZINC000150339145    0.0800
67     H67    -3.7210   -2.5344   -0.0456 H        1 ZINC000150339145    0.3800
68     H68    -4.3025   -4.7640   -0.4727 H        1 ZINC000150339145    0.1000
69     H69    -5.9921   -4.8393   -1.0717 H        1 ZINC000150339145    0.1000
70     H70    -7.0909   -8.6576   -0.9755 H        1 ZINC000150339145    0.1500
71     H71    -8.1882  -10.7745   -0.4789 H        1 ZINC000150339145    0.1400
72     H72    -9.2325  -12.4949   -1.0020 H        1 ZINC000150339145    0.0600
73     H73    -8.9263  -14.0646   -0.2207 H        1 ZINC000150339145    0.1100
74     H74    -8.3952  -12.5596    0.5674 H        1 ZINC000150339145    0.0600
75     H75    -1.4925  -11.8594   -4.1105 H        1 ZINC000150339145    0.1900
76     H76     0.7529   -6.8307   -5.0739 H        1 ZINC000150339145    0.4300
77     H77     2.5433   -6.2897   -7.0142 H        1 ZINC000150339145    0.1100
78     H78     4.0311   -6.7809   -4.3946 H        1 ZINC000150339145    0.0600
79     H79     4.1740   -5.3279   -5.4128 H        1 ZINC000150339145    0.0800
80     H80     2.6316   -5.7017   -4.6068 H        1 ZINC000150339145    0.0700
81     H81     3.9824   -8.1197   -7.8678 H        1 ZINC000150339145    0.0600
82     H82     4.9628   -6.7399   -7.3171 H        1 ZINC000150339145    0.0700
83     H83     4.8199   -8.1929   -6.2989 H        1 ZINC000150339145    0.0600
84     H84    -2.9966   -7.5097   -3.1199 H        1 ZINC000150339145    0.1600
85     H85    -4.4798   -5.9941   -4.4463 H        1 ZINC000150339145    0.0900
86     H86    -6.1025   -5.6462   -3.7751 H        1 ZINC000150339145    0.0900
87     H87    -5.2412   -1.9536   -6.8215 H        1 ZINC000150339145    0.4200
88     H88    -6.9458   -3.8998  -10.3394 H        1 ZINC000150339145    0.1000
89     H89    -9.0617   -4.0032   -9.1910 H        1 ZINC000150339145    0.0700
90     H90    -9.1806   -2.2162   -9.0775 H        1 ZINC000150339145    0.0800
91     H91    -9.4774   -3.9911  -11.5629 H        1 ZINC000150339145    0.0700
92     H92   -10.5608   -2.6801  -10.9997 H        1 ZINC000150339145    0.0700
93     H93    -8.5933   -2.3006  -12.9131 H        1 ZINC000150339145    0.0700
94     H94    -9.1650   -1.0030  -11.8266 H        1 ZINC000150339145    0.0700
95     H95    -7.1084   -0.9293  -10.8323 H        1 ZINC000150339145    0.0800
96     H96    -6.5367   -2.2269  -11.9188 H        1 ZINC000150339145    0.0700
97     H97    -3.1491   -6.1246   -5.6119 H        1 ZINC000150339145    0.0500
98     H98    -1.5922   -5.3839   -6.0542 H        1 ZINC000150339145    0.0600
99     H99    -2.5552   -4.7026   -4.7213 H        1 ZINC000150339145    0.0800
100    H100   -4.0152   -4.3384   -8.7249 H        1 ZINC000150339145    0.0500
101    H101   -2.5272   -5.2668   -8.4210 H        1 ZINC000150339145    0.0500
102    H102   -4.0971   -5.8943   -7.8642 H        1 ZINC000150339145    0.0600
103    H103   -2.3582   -2.4827   -5.9556 H        1 ZINC000150339145    0.0800
104    H104   -1.5118   -3.2745   -7.3065 H        1 ZINC000150339145    0.0500
105    H105   -2.9997   -2.3461   -7.6103 H        1 ZINC000150339145    0.0500
@<TRIPOS>BOND
1     1     2     2
2     1     62    1
3     1     63    1
4     2     3     1
5     2     64    1
6     3     4     1
7     3     6     1
8     3     5     1
9     5     6     1
10    5     65    1
11    5     66    1
12    6     7     1
13    6     59    1
14    7     8     am
15    7     67    1
16    8     9     2
17    8     10    1
18    10    11    1
19    10    41    1
20    10    12    1
21    12    13    1
22    12    68    1
23    12    69    1
24    13    14    1
25    13    15    1
26    13    40    1
27    15    16    1
28    16    39    ar
29    16    17    ar
30    17    25    ar
31    17    18    ar
32    18    19    ar
33    18    70    1
34    19    20    ar
35    19    71    1
36    20    21    1
37    20    23    ar
38    21    22    1
39    22    72    1
40    22    73    1
41    22    74    1
42    23    24    1
43    23    25    ar
44    25    26    ar
45    26    27    ar
46    27    28    1
47    27    39    ar
48    28    38    1
49    28    29    2
50    29    30    1
51    29    75    1
52    30    31    1
53    31    32    1
54    31    38    2
55    32    33    am
56    32    76    1
57    33    34    2
58    33    35    1
59    35    36    1
60    35    37    1
61    35    77    1
62    36    78    1
63    36    79    1
64    36    80    1
65    37    81    1
66    37    82    1
67    37    83    1
68    39    84    1
69    40    41    1
70    40    85    1
71    40    86    1
72    41    42    am
73    42    43    2
74    42    44    1
75    44    45    1
76    44    46    1
77    44    55    1
78    46    47    am
79    46    87    1
80    47    48    2
81    47    49    1
82    49    50    1
83    50    54    1
84    50    51    1
85    50    88    1
86    51    52    1
87    51    89    1
88    51    90    1
89    52    53    1
90    52    91    1
91    52    92    1
92    53    54    1
93    53    93    1
94    53    94    1
95    54    95    1
96    54    96    1
97    55    56    1
98    55    57    1
99    55    58    1
100   56    97    1
101   56    98    1
102   56    99    1
103   57    100   1
104   57    101   1
105   57    102   1
106   58    103   1
107   58    104   1
108   58    105   1
109   59    60    ar
110   59    61    ar
@<TRIPOS>SUBSTRUCTURE
1   ZINC000150339145 1     RESIDUE    1   A     ZIN   1
