@<TRIPOS>MOLECULE
ZINC000005377133
  35   36    0    0    0
SMALL
USER_CHARGES
NO_NAME
@<TRIPOS>ATOM
    1 C1       -0.0187     1.5258     0.0104 C.3    1 <0>      -0.1500
    2 C2        0.0021    -0.0041     0.0020 C.3    1 <0>       0.0800
    3 H3        0.5122    -0.3562    -0.8946 H      1 <0>       0.1000
    4 N4       -1.3768    -0.5138     0.0146 N.3    1 <0>      -0.6600
    5 C5       -1.3886    -1.9836     0.0416 C.3    1 <0>       0.0700
    6 C6       -2.8343    -2.4821     0.0906 C.3    1 <0>      -0.1400
    7 C7       -0.7044    -2.5233    -1.2160 C.3    1 <0>      -0.1400
    8 C8       -0.6372    -2.4719     1.2829 C.3    1 <0>       0.0400
    9 O9        0.6908    -1.9413     1.2695 O.3    1 <0>      -0.3800
   10 C10       0.7405    -0.5122     1.2432 C.3    1 <0>       0.3000
   11 O11       0.1132     0.0088     2.4167 O.3    1 <0>      -0.5600
   12 C12       2.1771    -0.0594     1.1963 C.ar   1 <0>      -0.1000
   13 C13       2.5411     1.1447     1.7692 C.ar   1 <0>      -0.0900
   14 C14       3.8590     1.5606     1.7270 C.ar   1 <0>      -0.1100
   15 C15       4.8131     0.7728     1.1115 C.ar   1 <0>      -0.1000
   16 C16       4.4493    -0.4327     0.5378 C.ar   1 <0>      -0.0400
   17 Cl17      5.6473    -1.4232    -0.2351 Cl     1 <0>      -0.0600
   18 C18       3.1316    -0.8510     0.5853 C.ar   1 <0>      -0.0800
   19 H19       1.0039     1.9031     0.0027 H      1 <0>       0.0600
   20 H20      -0.5459     1.8868    -0.8726 H      1 <0>       0.0700
   21 H21      -0.5289     1.8773     0.9072 H      1 <0>       0.0700
   22 H22      -1.8958    -0.1337     0.7919 H      1 <0>       0.3500
   23 H23      -3.3698    -2.1310    -0.7915 H      1 <0>       0.0700
   24 H24      -2.8424    -3.5719     0.1106 H      1 <0>       0.0600
   25 H25      -3.3207    -2.0986     0.9875 H      1 <0>       0.0600
   26 H26       0.3259    -2.1691    -1.2495 H      1 <0>       0.0600
   27 H27      -0.7135    -3.6130    -1.1954 H      1 <0>       0.0600
   28 H28      -1.2383    -2.1721    -2.0991 H      1 <0>       0.0700
   29 H29      -1.1558    -2.1322     2.1794 H      1 <0>       0.0600
   30 H30      -0.5940    -3.5610     1.2773 H      1 <0>       0.1000
   31 H31       0.5270    -0.2756     3.2431 H      1 <0>       0.3900
   32 H32       1.7957     1.7610     2.2498 H      1 <0>       0.1400
   33 H33       4.1429     2.5014     2.1749 H      1 <0>       0.1400
   34 H34       5.8424     1.0981     1.0780 H      1 <0>       0.1400
   35 H35       2.8470    -1.7917     0.1377 H      1 <0>       0.1400
@<TRIPOS>BOND
   1    1    2 1
   2    1   19 1
   3    1   20 1
   4    1   21 1
   5    2    3 1
   6    2   10 1
   7    2    4 1
   8    4    5 1
   9    4   22 1
  10    5    6 1
  11    5    7 1
  12    5    8 1
  13    6   23 1
  14    6   24 1
  15    6   25 1
  16    7   26 1
  17    7   27 1
  18    7   28 1
  19    8    9 1
  20    8   29 1
  21    8   30 1
  22    9   10 1
  23   10   11 1
  24   10   12 1
  25   11   31 1
  26   12   18 ar
  27   12   13 ar
  28   13   14 ar
  29   13   32 1
  30   14   15 ar
  31   14   33 1
  32   15   16 ar
  33   15   34 1
  34   16   17 1
  35   16   18 ar
  36   18   35 1
