@<TRIPOS>MOLECULE
ZINC000101793481
64    69    1     0     0
SMALL
USER_CHARGES
@<TRIPOS>ATOM
1      N1     -0.0167    1.3793    0.0096 N.pl3    1 ZINC000101793481   -0.7900
2      C2      0.0021   -0.0041    0.0020 C.ar     1 ZINC000101793481    0.5400
3      C3     -1.1912   -0.7383    0.0036 C.ar     1 ZINC000101793481   -0.2300
4      C4     -2.6201   -0.4000    0.0122 C.2      1 ZINC000101793481   -0.0500
5      C5     -3.2095    0.9602    0.0215 C.ar     1 ZINC000101793481   -0.0100
6      C6     -2.7676    1.9074    0.9442 C.ar     1 ZINC000101793481   -0.1800
7      C7     -3.3182    3.1733    0.9508 C.ar     1 ZINC000101793481   -0.0600
8      C8     -4.3075    3.5056    0.0445 C.ar     1 ZINC000101793481   -0.2000
9      C9     -4.7537    2.5682   -0.8775 C.ar     1 ZINC000101793481    0.1500
10     O10    -5.7269    2.8994   -1.7664 O.3      1 ZINC000101793481   -0.3000
11     C11    -6.2454    4.2291   -1.6951 C.3      1 ZINC000101793481    0.1000
12     C12    -7.3069    4.4116   -2.7491 C.ar     1 ZINC000101793481   -0.1100
13     C13    -6.9590    4.8566   -4.0108 C.ar     1 ZINC000101793481   -0.0900
14     C14    -7.9327    5.0240   -4.9776 C.ar     1 ZINC000101793481   -0.1200
15     C15    -9.2543    4.7458   -4.6829 C.ar     1 ZINC000101793481   -0.1000
16     C16    -9.6021    4.2999   -3.4215 C.ar     1 ZINC000101793481   -0.1200
17     C17    -8.6278    4.1285   -2.4560 C.ar     1 ZINC000101793481   -0.1000
18     C18    -4.2029    1.2978   -0.8956 C.ar     1 ZINC000101793481   -0.1400
19     C19    -3.2945   -1.5763    0.0090 C.2      1 ZINC000101793481    0.0700
20     N20    -2.4055   -2.6159   -0.0008 N.pl3    1 ZINC000101793481   -0.4100
21     C21    -2.7751   -4.0335   -0.0067 C.3      1 ZINC000101793481    0.1100
22     H22    -1.9229   -4.6937    0.1540 H        1 ZINC000101793481    0.1500
23     C23    -3.9835   -4.3588    0.8870 C.3      1 ZINC000101793481   -0.1300
24     C24    -4.4488   -5.3141   -0.2246 C.3      1 ZINC000101793481   -0.1400
25     H25    -4.0547   -6.3254   -0.1245 H        1 ZINC000101793481    0.1200
26     C26    -5.9597   -5.2863   -0.4639 C.3      1 ZINC000101793481    0.0000
27     N27    -6.3178   -6.3116   -1.4530 N.4      1 ZINC000101793481   -0.4100
28     H28    -5.7001   -6.3213   -2.2508 H        1 ZINC000101793481    0.4400
29     C29    -6.5343   -7.6457   -0.8627 C.3      1 ZINC000101793481    0.0000
30     C30    -7.6905   -7.8357   -1.8546 C.3      1 ZINC000101793481   -0.1600
31     C31    -7.7467   -6.3008   -1.8179 C.3      1 ZINC000101793481    0.0000
32     C32    -3.6496   -4.4371   -1.2055 C.3      1 ZINC000101793481   -0.1500
33     C33    -1.1212   -2.1423   -0.0043 C.ar     1 ZINC000101793481    0.3600
34     N34     0.0798   -2.7192   -0.0130 N.ar     1 ZINC000101793481   -0.4900
35     C35     1.1752   -1.9906   -0.0142 C.ar     1 ZINC000101793481    0.4000
36     N36     1.1535   -0.6702   -0.0126 N.ar     1 ZINC000101793481   -0.5600
37     H37     1.9898   -0.1787   -0.0139 H        1 ZINC000101793481    0.4500
38     H38     0.8167    1.8757    0.0043 H        1 ZINC000101793481    0.4300
39     H39    -0.8632    1.8528    0.0162 H        1 ZINC000101793481    0.4400
40     H40    -1.9950    1.6507    1.6539 H        1 ZINC000101793481    0.1300
41     H41    -2.9753    3.9060    1.6663 H        1 ZINC000101793481    0.1400
42     H42    -4.7350    4.4973    0.0538 H        1 ZINC000101793481    0.1400
43     H43    -6.6792    4.3976   -0.7095 H        1 ZINC000101793481    0.0800
44     H44    -5.4391    4.9430   -1.8641 H        1 ZINC000101793481    0.0800
45     H45    -5.9264    5.0740   -4.2410 H        1 ZINC000101793481    0.1200
46     H46    -7.6609    5.3724   -5.9631 H        1 ZINC000101793481    0.1300
47     H47   -10.0152    4.8773   -5.4380 H        1 ZINC000101793481    0.1300
48     H48   -10.6347    4.0829   -3.1912 H        1 ZINC000101793481    0.1300
49     H49    -8.8996    3.7801   -1.4705 H        1 ZINC000101793481    0.1200
50     H50    -4.5488    0.5678   -1.6125 H        1 ZINC000101793481    0.1400
51     H51    -4.3698   -1.6771    0.0138 H        1 ZINC000101793481    0.2000
52     H52    -3.7168   -4.8652    1.8147 H        1 ZINC000101793481    0.1100
53     H53    -4.6518   -3.5119    1.0430 H        1 ZINC000101793481    0.1100
54     H54    -6.4797   -5.4877    0.4727 H        1 ZINC000101793481    0.1400
55     H55    -6.2505   -4.3043   -0.8370 H        1 ZINC000101793481    0.1300
56     H56    -5.7043   -8.3330   -1.0266 H        1 ZINC000101793481    0.1400
57     H57    -6.8561   -7.6129    0.1782 H        1 ZINC000101793481    0.1500
58     H58    -7.3892   -8.2474   -2.8178 H        1 ZINC000101793481    0.1200
59     H59    -8.5669   -8.3252   -1.4299 H        1 ZINC000101793481    0.1300
60     H60    -8.3921   -5.9086   -1.0320 H        1 ZINC000101793481    0.1500
61     H61    -7.9442   -5.8502   -2.7905 H        1 ZINC000101793481    0.1400
62     H62    -4.2262   -3.6112   -1.6222 H        1 ZINC000101793481    0.1000
63     H63    -3.1153   -5.0074   -1.9654 H        1 ZINC000101793481    0.1000
64     H64     2.1312   -2.4929   -0.0214 H        1 ZINC000101793481    0.2500
@<TRIPOS>BOND
1     1     2     1
2     1     38    1
3     1     39    1
4     2     36    ar
5     2     3     ar
6     3     33    ar
7     3     4     1
8     4     5     1
9     4     19    2
10    5     18    ar
11    5     6     ar
12    6     7     ar
13    6     40    1
14    7     8     ar
15    7     41    1
16    8     9     ar
17    8     42    1
18    9     10    1
19    9     18    ar
20    10    11    1
21    11    12    1
22    11    43    1
23    11    44    1
24    12    17    ar
25    12    13    ar
26    13    14    ar
27    13    45    1
28    14    15    ar
29    14    46    1
30    15    16    ar
31    15    47    1
32    16    17    ar
33    16    48    1
34    17    49    1
35    18    50    1
36    19    20    1
37    19    51    1
38    20    21    1
39    20    33    1
40    21    22    1
41    21    32    1
42    21    23    1
43    23    24    1
44    23    52    1
45    23    53    1
46    24    25    1
47    24    26    1
48    24    32    1
49    26    27    1
50    26    54    1
51    26    55    1
52    27    28    1
53    27    31    1
54    27    29    1
55    29    30    1
56    29    56    1
57    29    57    1
58    30    31    1
59    30    58    1
60    30    59    1
61    31    60    1
62    31    61    1
63    32    62    1
64    32    63    1
65    33    34    ar
66    34    35    ar
67    35    36    ar
68    35    64    1
69    36    37    1
@<TRIPOS>SUBSTRUCTURE
1   ZINC000101793481 1     RESIDUE    1   A     ZIN   1
