@<TRIPOS>MOLECULE
ZINC000001892617
55    56    1     0     0
SMALL
USER_CHARGES
@<TRIPOS>ATOM
1      C1     -1.0948    2.1877    1.8877 C.3      1 ZINC000001892617    0.0300
2      O2     -0.7965    0.8469    1.4936 O.3      1 ZINC000001892617   -0.3200
3      C3     -1.8521    0.0298    1.2367 C.ar     1 ZINC000001892617    0.1100
4      C4     -3.1417    0.5394    1.2551 C.ar     1 ZINC000001892617   -0.1900
5      C5     -4.2167   -0.2849    0.9952 C.ar     1 ZINC000001892617   -0.0600
6      C6     -4.0082   -1.6374    0.7120 C.ar     1 ZINC000001892617   -0.0800
7      C7     -5.1556   -2.5190    0.4337 C.2      1 ZINC000001892617   -0.0800
8      C8     -6.1791   -2.0735   -0.3131 C.2      1 ZINC000001892617   -0.1200
9      C9     -6.0675   -0.7879   -1.0243 C.ar     1 ZINC000001892617    0.0200
10     C10    -4.8740   -0.4430   -1.6643 C.ar     1 ZINC000001892617   -0.2100
11     C11    -4.7724    0.7647   -2.3309 C.ar     1 ZINC000001892617    0.1500
12     O12    -3.6114    1.1009   -2.9544 O.3      1 ZINC000001892617   -0.3000
13     C13    -2.5778    0.1144   -2.9767 C.3      1 ZINC000001892617    0.0300
14     C14    -5.8569    1.6357   -2.3648 C.ar     1 ZINC000001892617    0.0300
15     O15    -5.7539    2.8226   -3.0218 O.3      1 ZINC000001892617   -0.3100
16     C16    -6.1178    2.8329   -4.4036 C.3      1 ZINC000001892617    0.0400
17     C17    -7.0467    1.2954   -1.7286 C.ar     1 ZINC000001892617    0.1500
18     O18    -8.1043    2.1496   -1.7640 O.3      1 ZINC000001892617   -0.3000
19     C19    -9.2947    1.7365   -1.0899 C.3      1 ZINC000001892617    0.0200
20     C20    -7.1567    0.0867   -1.0651 C.ar     1 ZINC000001892617   -0.2300
21     C21    -2.7088   -2.1516    0.6928 C.ar     1 ZINC000001892617   -0.0900
22     C22    -1.6350   -1.3179    0.9497 C.ar     1 ZINC000001892617    0.1100
23     N23    -0.3305   -1.8293    0.9315 N.am     1 ZINC000001892617   -0.6600
24     C24    -0.1143   -3.1336    1.1933 C.2      1 ZINC000001892617    0.4800
25     O25    -1.0537   -3.8811    1.3671 O.2      1 ZINC000001892617   -0.5200
26     C26     1.2944   -3.6634    1.2699 C.3      1 ZINC000001892617    0.0800
27     H27     1.9276   -2.9389    1.7820 H        1 ZINC000001892617    0.1100
28     N28     1.3012   -4.9309    2.0125 N.3      1 ZINC000001892617   -0.8100
29     C29     1.8287   -3.8980   -0.1444 C.3      1 ZINC000001892617    0.0900
30     O30     3.2015   -4.2889   -0.0763 O.3      1 ZINC000001892617   -0.5500
31     H31    -0.1706    2.7045    2.1462 H        1 ZINC000001892617    0.1000
32     H32    -1.5841    2.7080    1.0644 H        1 ZINC000001892617    0.0600
33     H33    -1.7572    2.1731    2.7532 H        1 ZINC000001892617    0.0600
34     H34    -3.3047    1.5843    1.4738 H        1 ZINC000001892617    0.1300
35     H35    -5.2198    0.1150    1.0110 H        1 ZINC000001892617    0.1300
36     H36    -5.1735   -3.5234    0.8302 H        1 ZINC000001892617    0.1300
37     H37    -7.0841   -2.6577   -0.3924 H        1 ZINC000001892617    0.1300
38     H38    -4.0317   -1.1186   -1.6380 H        1 ZINC000001892617    0.1400
39     H39    -1.6809    0.5381   -3.4285 H        1 ZINC000001892617    0.1000
40     H40    -2.3562   -0.2027   -1.9576 H        1 ZINC000001892617    0.0600
41     H41    -2.9079   -0.7446   -3.5608 H        1 ZINC000001892617    0.0600
42     H42    -5.4814    2.1384   -4.9521 H        1 ZINC000001892617    0.0400
43     H43    -7.1597    2.5303   -4.5073 H        1 ZINC000001892617    0.0400
44     H44    -5.9896    3.8380   -4.8056 H        1 ZINC000001892617    0.0900
45     H45    -9.6554    0.8054   -1.5270 H        1 ZINC000001892617    0.0600
46     H46    -9.0785    1.5818   -0.0328 H        1 ZINC000001892617    0.0600
47     H47   -10.0582    2.5072   -1.1955 H        1 ZINC000001892617    0.1000
48     H48    -8.0804   -0.1769   -0.5714 H        1 ZINC000001892617    0.1400
49     H49    -2.5431   -3.1963    0.4747 H        1 ZINC000001892617    0.1600
50     H50     0.4169   -1.2446    0.7305 H        1 ZINC000001892617    0.4200
51     H51     1.0135   -4.7909    2.9694 H        1 ZINC000001892617    0.3500
52     H52     0.7208   -5.6196    1.5575 H        1 ZINC000001892617    0.3500
53     H53     1.2499   -4.6866   -0.6253 H        1 ZINC000001892617    0.0500
54     H54     1.7410   -2.9785   -0.7231 H        1 ZINC000001892617    0.0500
55     H55     3.6065   -4.4547   -0.9386 H        1 ZINC000001892617    0.3800
@<TRIPOS>BOND
1     1     2     1
2     1     31    1
3     1     32    1
4     1     33    1
5     2     3     1
6     3     22    ar
7     3     4     ar
8     4     5     ar
9     4     34    1
10    5     6     ar
11    5     35    1
12    6     7     1
13    6     21    ar
14    7     8     2
15    7     36    1
16    8     9     1
17    8     37    1
18    9     20    ar
19    9     10    ar
20    10    11    ar
21    10    38    1
22    11    12    1
23    11    14    ar
24    12    13    1
25    13    39    1
26    13    40    1
27    13    41    1
28    14    15    1
29    14    17    ar
30    15    16    1
31    16    42    1
32    16    43    1
33    16    44    1
34    17    18    1
35    17    20    ar
36    18    19    1
37    19    45    1
38    19    46    1
39    19    47    1
40    20    48    1
41    21    22    ar
42    21    49    1
43    22    23    1
44    23    24    am
45    23    50    1
46    24    25    2
47    24    26    1
48    26    27    1
49    26    28    1
50    26    29    1
51    28    51    1
52    28    52    1
53    29    30    1
54    29    53    1
55    29    54    1
56    30    55    1
@<TRIPOS>SUBSTRUCTURE
1   ZINC000001892617 1     RESIDUE    1   A     ZIN   1
