@<TRIPOS>MOLECULE
ZINC000003937997
68    72    1     0     0
SMALL
USER_CHARGES
@<TRIPOS>ATOM
1      C1     -0.2473    2.5472    0.6312 C.3      1 ZINC000003937997   -0.6500
2      S2     -0.1325    0.7570    0.9010 S.o2     1 ZINC000003937997    2.5000
3      O3      0.6288    0.4764    2.0675 O.2      1 ZINC000003937997   -0.9400
4      O4     -1.3927    0.1380    0.6821 O.2      1 ZINC000003937997   -0.9400
5      C5      0.8729    0.1762   -0.4243 C.ar     1 ZINC000003937997   -0.6600
6      C6      0.2863   -0.2096   -1.6163 C.ar     1 ZINC000003937997   -0.0200
7      C7      1.0687   -0.6653   -2.6577 C.ar     1 ZINC000003937997   -0.1200
8      C8      2.4528   -0.7360   -2.5070 C.ar     1 ZINC000003937997    0.0100
9      C9      3.2988   -1.2242   -3.6222 C.ar     1 ZINC000003937997   -0.0600
10     C10     2.9739   -2.4265   -4.2680 C.ar     1 ZINC000003937997   -0.0900
11     C11     3.7327   -2.8963   -5.2923 C.ar     1 ZINC000003937997   -0.1000
12     C12     4.8629   -2.1767   -5.7215 C.ar     1 ZINC000003937997   -0.0200
13     C13     5.6601   -2.6453   -6.7785 C.ar     1 ZINC000003937997   -0.1400
14     C14     6.7514   -1.9246   -7.1735 C.ar     1 ZINC000003937997    0.1200
15     O15     7.5210   -2.3797   -8.1967 O.3      1 ZINC000003937997   -0.5000
16     C16     7.0866   -0.7246   -6.5390 C.ar     1 ZINC000003937997   -0.1300
17     C17     6.3348   -0.2439   -5.5123 C.ar     1 ZINC000003937997   -0.0800
18     C18     5.2053   -0.9597   -5.0802 C.ar     1 ZINC000003937997   -0.0700
19     C19     4.4040   -0.4850   -4.0239 C.ar     1 ZINC000003937997    0.1200
20     O20     4.7115    0.6808   -3.4013 O.3      1 ZINC000003937997   -0.2500
21     C21     4.1750    1.8285   -3.8944 C.ar     1 ZINC000003937997    0.0900
22     C22     3.3362    1.7838   -4.9986 C.ar     1 ZINC000003937997   -0.1500
23     C23     2.7909    2.9498   -5.4992 C.ar     1 ZINC000003937997   -0.1100
24     C24     3.0818    4.1656   -4.8980 C.ar     1 ZINC000003937997    0.1000
25     O25     2.5448    5.3134   -5.3909 O.3      1 ZINC000003937997   -0.3100
26     C26     2.8872    6.5292   -4.7224 C.3      1 ZINC000003937997    0.0200
27     C27     2.1940    7.7044   -5.4146 C.3      1 ZINC000003937997    0.0600
28     N28     0.7393    7.5788   -5.2534 N.3      1 ZINC000003937997   -0.5300
29     C29     0.3871    7.2965   -3.8560 C.3      1 ZINC000003937997    0.0500
30     C30    -1.1350    7.3166   -3.6981 C.3      1 ZINC000003937997   -0.1200
31     C31    -1.7531    6.2640   -4.6224 C.3      1 ZINC000003937997   -0.1200
32     C32    -1.3314    6.5527   -6.0658 C.3      1 ZINC000003937997   -0.1200
33     C33     0.1964    6.5548   -6.1550 C.3      1 ZINC000003937997    0.0500
34     C34     3.9200    4.2104   -3.7937 C.ar     1 ZINC000003937997   -0.1700
35     C35     4.4616    3.0440   -3.2900 C.ar     1 ZINC000003937997   -0.1000
36     C36     3.0384   -0.3453   -1.3036 C.ar     1 ZINC000003937997   -0.1100
37     C37     2.2463    0.1132   -0.2708 C.ar     1 ZINC000003937997   -0.0200
38     H38     0.7513    2.9832    0.6567 H        1 ZINC000003937997    0.1300
39     H39    -0.7032    2.7398   -0.3401 H        1 ZINC000003937997    0.1300
40     H40    -0.8591    2.9942    1.4147 H        1 ZINC000003937997    0.1300
41     H41    -0.7861   -0.1544   -1.7319 H        1 ZINC000003937997    0.1400
42     H42     0.6096   -0.9669   -3.5876 H        1 ZINC000003937997    0.1300
43     H43     2.1085   -2.9867   -3.9460 H        1 ZINC000003937997    0.1400
44     H44     3.4680   -3.8240   -5.7778 H        1 ZINC000003937997    0.1400
45     H45     5.4118   -3.5710   -7.2763 H        1 ZINC000003937997    0.1400
46     H46     7.2419   -2.0668   -9.0680 H        1 ZINC000003937997    0.4000
47     H47     7.9542   -0.1721   -6.8682 H        1 ZINC000003937997    0.1300
48     H48     6.6048    0.6846   -5.0312 H        1 ZINC000003937997    0.1400
49     H49     3.1100    0.8373   -5.4669 H        1 ZINC000003937997    0.1300
50     H50     2.1383    2.9151   -6.3590 H        1 ZINC000003937997    0.1300
51     H51     2.5622    6.4764   -3.6833 H        1 ZINC000003937997    0.0700
52     H52     3.9672    6.6719   -4.7585 H        1 ZINC000003937997    0.0700
53     H53     2.5298    8.6395   -4.9663 H        1 ZINC000003937997    0.1000
54     H54     2.4437    7.6999   -6.4756 H        1 ZINC000003937997    0.0900
55     H55     0.7682    6.3143   -3.5767 H        1 ZINC000003937997    0.0400
56     H56     0.8293    8.0548   -3.2097 H        1 ZINC000003937997    0.0700
57     H57    -1.3966    7.0917   -2.6641 H        1 ZINC000003937997    0.0700
58     H58    -1.5154    8.3029   -3.9640 H        1 ZINC000003937997    0.0700
59     H59    -1.4030    5.2734   -4.3319 H        1 ZINC000003937997    0.0600
60     H60    -2.8396    6.3044   -4.5453 H        1 ZINC000003937997    0.0600
61     H61    -1.7333    5.7820   -6.7234 H        1 ZINC000003937997    0.0700
62     H62    -1.7149    7.5269   -6.3690 H        1 ZINC000003937997    0.0700
63     H63     0.5001    6.7742   -7.1786 H        1 ZINC000003937997    0.0700
64     H64     0.5784    5.5760   -5.8649 H        1 ZINC000003937997    0.0600
65     H65     4.1464    5.1570   -3.3257 H        1 ZINC000003937997    0.1300
66     H66     5.1143    3.0789   -2.4302 H        1 ZINC000003937997    0.1400
67     H67     4.1101   -0.3983   -1.1811 H        1 ZINC000003937997    0.1400
68     H68     2.6988    0.4161    0.6619 H        1 ZINC000003937997    0.1400
@<TRIPOS>BOND
1     1     2     1
2     1     38    1
3     1     39    1
4     1     40    1
5     2     3     2
6     2     4     2
7     2     5     1
8     5     37    ar
9     5     6     ar
10    6     7     ar
11    6     41    1
12    7     8     ar
13    7     42    1
14    8     9     1
15    8     36    ar
16    9     19    ar
17    9     10    ar
18    10    11    ar
19    10    43    1
20    11    12    ar
21    11    44    1
22    12    18    ar
23    12    13    ar
24    13    14    ar
25    13    45    1
26    14    15    1
27    14    16    ar
28    15    46    1
29    16    17    ar
30    16    47    1
31    17    18    ar
32    17    48    1
33    18    19    ar
34    19    20    1
35    20    21    1
36    21    35    ar
37    21    22    ar
38    22    23    ar
39    22    49    1
40    23    24    ar
41    23    50    1
42    24    25    1
43    24    34    ar
44    25    26    1
45    26    27    1
46    26    51    1
47    26    52    1
48    27    28    1
49    27    53    1
50    27    54    1
51    28    33    1
52    28    29    1
53    29    30    1
54    29    55    1
55    29    56    1
56    30    31    1
57    30    57    1
58    30    58    1
59    31    32    1
60    31    59    1
61    31    60    1
62    32    33    1
63    32    61    1
64    32    62    1
65    33    63    1
66    33    64    1
67    34    35    ar
68    34    65    1
69    35    66    1
70    36    37    ar
71    36    67    1
72    37    68    1
@<TRIPOS>SUBSTRUCTURE
1   ZINC000003937997 1     RESIDUE    1   A     ZIN   1
