@<TRIPOS>MOLECULE
ZINC000018286013
  29   30    0    0    0
SMALL
USER_CHARGES
NO_NAME
@<TRIPOS>ATOM
    1 N1       -0.0166     1.3714     0.0096 N.pl3  1 <0>      -0.8100
    2 C2        0.0021    -0.0041     0.0020 C.2    1 <0>       0.5000
    3 N3       -1.1354    -0.6867     0.0037 N.2    1 <0>      -0.6200
    4 C4       -1.1293    -2.0185    -0.0041 C.2    1 <0>       0.6600
    5 O5       -2.1886    -2.6233    -0.0028 O.2    1 <0>      -0.5200
    6 N6        0.0264    -2.7078    -0.0137 N.am   1 <0>      -0.5300
    7 C7        0.0011    -4.1726    -0.0226 C.3    1 <0>       0.2900
    8 H8        1.0109    -4.5681    -0.1313 H      1 <0>       0.1100
    9 C9       -0.6493    -4.7070     1.2727 C.3    1 <0>      -0.1900
   10 C10      -1.4548    -5.9405     0.8071 C.3    1 <0>       0.0900
   11 H11      -2.5170    -5.8011     1.0081 H      1 <0>       0.0800
   12 O12      -0.9758    -7.1233     1.4501 O.3    1 <0>      -0.5600
   13 C13      -1.1959    -6.0054    -0.7145 C.3    1 <0>       0.0900
   14 H14      -0.3703    -6.6836    -0.9303 H      1 <0>       0.0900
   15 C15      -2.4594    -6.4546    -1.4511 C.3    1 <0>       0.0800
   16 O16      -2.1675    -6.6203    -2.8401 O.3    1 <0>      -0.5700
   17 O17      -0.8451    -4.6544    -1.0892 O.3    1 <0>      -0.3400
   18 C18       1.2200    -2.0505    -0.0158 C.2    1 <0>       0.2000
   19 C19       1.2303    -0.6965    -0.0134 C.2    1 <0>      -0.3100
   20 H20       0.8168     1.8678     0.0043 H      1 <0>       0.4200
   21 H21      -0.8631     1.8449     0.0162 H      1 <0>       0.4100
   22 H22       0.1160    -4.9998     1.9916 H      1 <0>       0.1000
   23 H23      -1.3132    -3.9578     1.7040 H      1 <0>       0.1000
   24 H24      -1.0604    -7.1091     2.4133 H      1 <0>       0.3900
   25 H25      -2.8041    -7.4021    -1.0368 H      1 <0>       0.0700
   26 H26      -3.2375    -5.7009    -1.3307 H      1 <0>       0.0600
   27 H27      -2.9247    -6.9048    -3.3700 H      1 <0>       0.3800
   28 H28       2.1477    -2.6035    -0.0235 H      1 <0>       0.1800
   29 H29       2.1649    -0.1552    -0.0154 H      1 <0>       0.1600
@<TRIPOS>BOND
   1    1    2 1
   2    1   20 1
   3    1   21 1
   4    2   19 1
   5    2    3 2
   6    3    4 1
   7    4    5 2
   8    4    6 am
   9    6    7 1
  10    6   18 1
  11    7    8 1
  12    7   17 1
  13    7    9 1
  14    9   10 1
  15    9   22 1
  16    9   23 1
  17   10   11 1
  18   10   12 1
  19   10   13 1
  20   12   24 1
  21   13   14 1
  22   13   15 1
  23   13   17 1
  24   15   16 1
  25   15   25 1
  26   15   26 1
  27   16   27 1
  28   18   19 2
  29   18   28 1
  30   19   29 1
