@<TRIPOS>MOLECULE
ZINC000000593414
59    60    1     0     0
SMALL
USER_CHARGES
@<TRIPOS>ATOM
1      C1      0.9850   -0.9264   -0.9405 C.3      1 ZINC000000593414   -0.1400
2      C2      0.1647   -0.1188    0.0673 C.3      1 ZINC000000593414   -0.5900
3      C3      0.2993    1.3731   -0.2444 C.3      1 ZINC000000593414   -0.1500
4      S4     -1.5793   -0.6049   -0.0445 S.o2     1 ZINC000000593414    2.6100
5      O5     -2.3235   -0.0426    1.0275 O.2      1 ZINC000000593414   -0.9500
6      O6     -2.0390   -0.5078   -1.3856 O.2      1 ZINC000000593414   -0.9500
7      N7     -1.5760   -2.2309    0.2693 N.am     1 ZINC000000593414   -1.1200
8      C8     -1.1475   -2.7229    1.5810 C.3      1 ZINC000000593414    0.1200
9      C9     -1.5711   -4.1844    1.7408 C.3      1 ZINC000000593414   -0.0600
10     H10    -1.1799   -4.7692    0.9083 H        1 ZINC000000593414    0.0900
11     C11    -3.0984   -4.2742    1.7540 C.3      1 ZINC000000593414   -0.1500
12     C12    -1.0248   -4.7269    3.0363 C.ar     1 ZINC000000593414   -0.0800
13     C13    -1.3897   -4.1434    4.2361 C.ar     1 ZINC000000593414   -0.1100
14     C14    -0.8924   -4.6362    5.4255 C.ar     1 ZINC000000593414   -0.1100
15     C15    -0.0212   -5.7236    5.4161 C.ar     1 ZINC000000593414   -0.0500
16     C16     0.5164   -6.2582    6.6918 C.ar     1 ZINC000000593414   -0.0500
17     C17     0.1473   -5.6781    7.9037 C.ar     1 ZINC000000593414   -0.1100
18     C18     0.6503   -6.1793    9.0872 C.ar     1 ZINC000000593414   -0.1100
19     C19     1.5193   -7.2554    9.0717 C.ar     1 ZINC000000593414   -0.0900
20     C20     2.0649   -7.7985   10.3672 C.3      1 ZINC000000593414   -0.0900
21     C21     1.1302   -8.8876   10.8975 C.3      1 ZINC000000593414    0.1200
22     N22     1.6605   -9.4156   12.1569 N.am     1 ZINC000000593414   -1.1200
23     S23     0.6936  -10.3272   13.1451 S.o2     1 ZINC000000593414    2.6200
24     C24     0.3434  -11.8232   12.1808 C.3      1 ZINC000000593414   -0.6700
25     O25     1.5210  -10.6341   14.2588 O.2      1 ZINC000000593414   -0.9600
26     O26    -0.4838   -9.5468   13.3002 O.2      1 ZINC000000593414   -0.9600
27     C27     1.8890   -7.8350    7.8715 C.ar     1 ZINC000000593414   -0.1100
28     C28     1.3875   -7.3456    6.6824 C.ar     1 ZINC000000593414   -0.1100
29     C29     0.3430   -6.3076    4.2046 C.ar     1 ZINC000000593414   -0.1100
30     C30    -0.1647   -5.8102    3.0215 C.ar     1 ZINC000000593414   -0.1100
31     H31     2.0330   -0.6343   -0.8733 H        1 ZINC000000593414    0.0800
32     H32     0.8891   -1.9893   -0.7184 H        1 ZINC000000593414    0.0700
33     H33     0.6173   -0.7312   -1.9478 H        1 ZINC000000593414    0.0700
34     H34     0.5324   -0.3140    1.0747 H        1 ZINC000000593414    0.1300
35     H35    -0.3518    1.9430    0.4184 H        1 ZINC000000593414    0.0700
36     H36     1.3331    1.6839   -0.0937 H        1 ZINC000000593414    0.0800
37     H37     0.0125    1.5551   -1.2802 H        1 ZINC000000593414    0.0700
38     H38    -1.8578   -2.8576   -0.4154 H        1 ZINC000000593414    0.4200
39     H39    -0.0630   -2.6482    1.6605 H        1 ZINC000000593414    0.0700
40     H40    -1.6114   -2.1225    2.3635 H        1 ZINC000000593414    0.0800
41     H41    -3.4935   -3.8818    0.8170 H        1 ZINC000000593414    0.0600
42     H42    -3.4001   -5.3154    1.8678 H        1 ZINC000000593414    0.0600
43     H43    -3.4896   -3.6894    2.5865 H        1 ZINC000000593414    0.0600
44     H44    -2.0647   -3.3004    4.2422 H        1 ZINC000000593414    0.1300
45     H45    -1.1776   -4.1796    6.3617 H        1 ZINC000000593414    0.1300
46     H46    -0.5308   -4.8377    7.9170 H        1 ZINC000000593414    0.1300
47     H47     0.3652   -5.7303   10.0272 H        1 ZINC000000593414    0.1300
48     H48     3.0548   -8.2212   10.1958 H        1 ZINC000000593414    0.0800
49     H49     2.1354   -6.9928   11.0980 H        1 ZINC000000593414    0.0800
50     H50     0.1402   -8.4649   11.0690 H        1 ZINC000000593414    0.0800
51     H51     1.0596   -9.6933   10.1668 H        1 ZINC000000593414    0.0700
52     H52     2.5781   -9.2312   12.4120 H        1 ZINC000000593414    0.4200
53     H53     1.2787  -12.3311   11.9455 H        1 ZINC000000593414    0.1300
54     H54    -0.2953  -12.4886   12.7617 H        1 ZINC000000593414    0.1300
55     H55    -0.1638  -11.5488   11.2558 H        1 ZINC000000593414    0.1300
56     H56     2.5681   -8.6748    7.8650 H        1 ZINC000000593414    0.1300
57     H57     1.6769   -7.7989    5.7458 H        1 ZINC000000593414    0.1300
58     H58     1.0183   -7.1504    4.1916 H        1 ZINC000000593414    0.1300
59     H59     0.1166   -6.2622    2.0819 H        1 ZINC000000593414    0.1200
@<TRIPOS>BOND
1     1     2     1
2     1     31    1
3     1     32    1
4     1     33    1
5     2     3     1
6     2     4     1
7     2     34    1
8     3     35    1
9     3     36    1
10    3     37    1
11    4     5     2
12    4     6     2
13    4     7     am
14    7     8     1
15    7     38    1
16    8     9     1
17    8     39    1
18    8     40    1
19    9     10    1
20    9     11    1
21    9     12    1
22    11    41    1
23    11    42    1
24    11    43    1
25    12    30    ar
26    12    13    ar
27    13    14    ar
28    13    44    1
29    14    15    ar
30    14    45    1
31    15    16    1
32    15    29    ar
33    16    28    ar
34    16    17    ar
35    17    18    ar
36    17    46    1
37    18    19    ar
38    18    47    1
39    19    20    1
40    19    27    ar
41    20    21    1
42    20    48    1
43    20    49    1
44    21    22    1
45    21    50    1
46    21    51    1
47    22    23    am
48    22    52    1
49    23    24    1
50    23    25    2
51    23    26    2
52    24    53    1
53    24    54    1
54    24    55    1
55    27    28    ar
56    27    56    1
57    28    57    1
58    29    30    ar
59    29    58    1
60    30    59    1
@<TRIPOS>SUBSTRUCTURE
1   ZINC000000593414 1     RESIDUE    1   A     ZIN   1
