@<TRIPOS>MOLECULE
ZINC000004392967
58    61    1     0     0
SMALL
USER_CHARGES
@<TRIPOS>ATOM
1      C1     -0.0187    1.5258    0.0104 C.3      1 ZINC000004392967   -0.1400
2      C2      0.0021   -0.0041    0.0020 C.3      1 ZINC000004392967   -0.1200
3      C3     -1.4163   -0.5348    0.0755 C.3      1 ZINC000004392967   -0.1000
4      C4     -2.0769    0.1068    1.3056 C.3      1 ZINC000004392967   -0.1200
5      C5     -1.2984   -0.1887    2.5843 C.3      1 ZINC000004392967   -0.0700
6      H6     -1.3509   -1.2573    2.7924 H        1 ZINC000004392967    0.0800
7      C7      0.1765    0.2248    2.4623 C.3      1 ZINC000004392967   -0.0700
8      H8      0.2504    1.3029    2.3195 H        1 ZINC000004392967    0.1000
9      C9      0.9235   -0.1869    3.7360 C.3      1 ZINC000004392967   -0.1700
10     C10     0.2113    0.4040    4.9324 C.2      1 ZINC000004392967    0.3700
11     O11     0.8142    1.0419    5.7617 O.2      1 ZINC000004392967   -0.4500
12     C12    -1.2772    0.1733    5.0598 C.3      1 ZINC000004392967   -0.1200
13     H13    -1.4700   -0.8801    5.2632 H        1 ZINC000004392967    0.1100
14     C14    -1.8311    1.0304    6.2029 C.3      1 ZINC000004392967   -0.0500
15     C15    -3.3388    0.8997    6.2073 C.2      1 ZINC000004392967    0.1400
16     N16    -3.9662    0.5989    7.2811 N.2      1 ZINC000004392967   -0.3400
17     O17    -5.3771    0.4807    7.2673 O.3      1 ZINC000004392967   -0.2400
18     C18    -5.9444    0.1408    8.5340 C.3      1 ZINC000004392967    0.0700
19     C19    -7.4653    0.0405    8.4013 C.3      1 ZINC000004392967    0.0700
20     N20    -7.8065   -1.0765    7.5103 N.3      1 ZINC000004392967   -0.8500
21     C21    -4.0872    1.1322    4.9139 C.3      1 ZINC000004392967   -0.1200
22     C22    -3.4417    0.2823    3.8133 C.3      1 ZINC000004392967   -0.1000
23     C23    -1.9308    0.5759    3.7480 C.3      1 ZINC000004392967   -0.0500
24     C24    -1.7147    2.0773    3.5477 C.3      1 ZINC000004392967   -0.1600
25     C25     0.7519   -0.5240    1.2579 C.3      1 ZINC000004392967   -0.0800
26     H26     0.6198   -1.5992    1.3783 H        1 ZINC000004392967    0.0900
27     C27     2.2097   -0.1964    0.9097 C.3      1 ZINC000004392967   -0.1200
28     C28     2.2872   -0.5654   -0.5969 C.3      1 ZINC000004392967   -0.1800
29     C29     0.8451   -0.4922   -1.1389 C.2      1 ZINC000004392967    0.3800
30     O30     0.4715   -0.7742   -2.2520 O.2      1 ZINC000004392967   -0.4400
31     H31     1.0039    1.9031    0.0027 H        1 ZINC000004392967    0.0600
32     H32    -0.5459    1.8868   -0.8726 H        1 ZINC000004392967    0.0600
33     H33    -0.5289    1.8773    0.9072 H        1 ZINC000004392967    0.0800
34     H34    -1.9632   -0.2589   -0.8261 H        1 ZINC000004392967    0.0700
35     H35    -1.4018   -1.6192    0.1850 H        1 ZINC000004392967    0.0700
36     H36    -2.1254    1.1860    1.1605 H        1 ZINC000004392967    0.0700
37     H37    -3.0899   -0.2824    1.4084 H        1 ZINC000004392967    0.0700
38     H38     0.9347   -1.2738    3.8177 H        1 ZINC000004392967    0.1000
39     H39     1.9460    0.1889    3.6974 H        1 ZINC000004392967    0.0900
40     H40    -1.4292    0.6794    7.1534 H        1 ZINC000004392967    0.0900
41     H41    -1.5532    2.0730    6.0484 H        1 ZINC000004392967    0.1000
42     H42    -5.5447   -0.8175    8.8657 H        1 ZINC000004392967    0.0700
43     H43    -5.6933    0.9111    9.2631 H        1 ZINC000004392967    0.0600
44     H44    -7.9052   -0.1310    9.3838 H        1 ZINC000004392967    0.0900
45     H45    -7.8558    0.9693    7.9855 H        1 ZINC000004392967    0.0400
46     H46    -8.8064   -1.1637    7.4064 H        1 ZINC000004392967    0.3400
47     H47    -7.3573   -0.9734    6.6128 H        1 ZINC000004392967    0.3500
48     H48    -5.1300    0.8400    5.0372 H        1 ZINC000004392967    0.0800
49     H49    -4.0300    2.1864    4.6427 H        1 ZINC000004392967    0.0900
50     H50    -3.5824   -0.7747    4.0394 H        1 ZINC000004392967    0.0700
51     H51    -3.9045    0.5155    2.8543 H        1 ZINC000004392967    0.0800
52     H52    -2.1563    2.6224    4.3819 H        1 ZINC000004392967    0.0700
53     H53    -0.6462    2.2875    3.5012 H        1 ZINC000004392967    0.0600
54     H54    -2.1877    2.3915    2.6173 H        1 ZINC000004392967    0.0700
55     H55     2.4146    0.8636    1.0596 H        1 ZINC000004392967    0.0800
56     H56     2.8947   -0.8105    1.4944 H        1 ZINC000004392967    0.0800
57     H57     2.9240    0.1457   -1.1232 H        1 ZINC000004392967    0.1000
58     H58     2.6790   -1.5758   -0.7141 H        1 ZINC000004392967    0.1000
@<TRIPOS>BOND
1     1     2     1
2     1     31    1
3     1     32    1
4     1     33    1
5     2     25    1
6     2     29    1
7     2     3     1
8     3     4     1
9     3     34    1
10    3     35    1
11    4     5     1
12    4     36    1
13    4     37    1
14    5     6     1
15    5     23    1
16    5     7     1
17    7     8     1
18    7     9     1
19    7     25    1
20    9     10    1
21    9     38    1
22    9     39    1
23    10    11    2
24    10    12    1
25    12    13    1
26    12    23    1
27    12    14    1
28    14    15    1
29    14    40    1
30    14    41    1
31    15    16    2
32    15    21    1
33    16    17    1
34    17    18    1
35    18    19    1
36    18    42    1
37    18    43    1
38    19    20    1
39    19    44    1
40    19    45    1
41    20    46    1
42    20    47    1
43    21    22    1
44    21    48    1
45    21    49    1
46    22    23    1
47    22    50    1
48    22    51    1
49    23    24    1
50    24    52    1
51    24    53    1
52    24    54    1
53    25    26    1
54    25    27    1
55    27    28    1
56    27    55    1
57    27    56    1
58    28    29    1
59    28    57    1
60    28    58    1
61    29    30    2
@<TRIPOS>SUBSTRUCTURE
1   ZINC000004392967 1     RESIDUE    1   A     ZIN   1
