@<TRIPOS>MOLECULE
ZINC000095641922
53    55    1     0     0
SMALL
USER_CHARGES
@<TRIPOS>ATOM
1      C1     -0.0187    1.5258    0.0104 C.3      1 ZINC000095641922   -0.1500
2      C2      0.0021   -0.0041    0.0020 C.3      1 ZINC000095641922    0.0500
3      O3      0.6709   -0.4649   -1.1737 O.3      1 ZINC000095641922   -0.3200
4      C4      0.7768   -1.8100   -1.3361 C.ar     1 ZINC000095641922    0.1300
5      C5      0.2427   -2.6687   -0.3864 C.ar     1 ZINC000095641922   -0.2100
6      C6      0.3511   -4.0357   -0.5541 C.ar     1 ZINC000095641922   -0.0700
7      C7      0.9917   -4.5482   -1.6671 C.ar     1 ZINC000095641922   -0.1200
8      C8      1.1090   -6.0397   -1.8472 C.3      1 ZINC000095641922   -0.0400
9      C9     -0.0856   -6.5489   -2.6119 C.ar     1 ZINC000095641922   -0.0700
10     C10     0.0208   -6.8132   -3.9641 C.ar     1 ZINC000095641922   -0.0700
11     C11    -1.0752   -7.2803   -4.6658 C.ar     1 ZINC000095641922   -0.0700
12     C12    -0.9585   -7.5684   -6.1404 C.3      1 ZINC000095641922    0.1400
13     H13    -0.0982   -7.0371   -6.5476 H        1 ZINC000095641922    0.0800
14     O14    -2.1459   -7.1339   -6.8063 O.3      1 ZINC000095641922   -0.3500
15     C15    -2.1296   -7.3378   -8.2206 C.3      1 ZINC000095641922    0.0800
16     H16    -1.2846   -6.8037   -8.6551 H        1 ZINC000095641922    0.0900
17     S17    -3.6739   -6.7143   -8.9395 S.3      1 ZINC000095641922   -0.2000
18     C18    -3.5117   -4.9167   -8.7585 C.3      1 ZINC000095641922   -0.1200
19     C19    -1.9953   -8.8337   -8.5175 C.3      1 ZINC000095641922    0.0700
20     H20    -2.8603   -9.3634   -8.1183 H        1 ZINC000095641922    0.0800
21     O21    -1.9220   -9.0354   -9.9303 O.3      1 ZINC000095641922   -0.5500
22     C22    -0.7197   -9.3650   -7.8564 C.3      1 ZINC000095641922    0.0900
23     H23     0.1492   -8.8707   -8.2908 H        1 ZINC000095641922    0.0800
24     O24    -0.6232  -10.7749   -8.0683 O.3      1 ZINC000095641922   -0.5600
25     C25    -0.7769   -9.0735   -6.3537 C.3      1 ZINC000095641922    0.1000
26     H26    -1.6172   -9.6079   -5.9107 H        1 ZINC000095641922    0.0800
27     O27     0.4395   -9.5013   -5.7377 O.3      1 ZINC000095641922   -0.5500
28     C28    -2.2776   -7.4835   -4.0152 C.ar     1 ZINC000095641922   -0.0900
29     C29    -2.3853   -7.2195   -2.6626 C.ar     1 ZINC000095641922   -0.1100
30     C30    -1.2877   -6.7571   -1.9590 C.ar     1 ZINC000095641922   -0.0200
31     Cl31   -1.4221   -6.4253   -0.2603 Cl       1 ZINC000095641922   -0.0600
32     C32     1.5245   -3.6944   -2.6153 C.ar     1 ZINC000095641922   -0.0700
33     C33     1.4140   -2.3268   -2.4548 C.ar     1 ZINC000095641922   -0.1500
34     H34     1.0039    1.9031    0.0027 H        1 ZINC000095641922    0.0700
35     H35    -0.5459    1.8868   -0.8726 H        1 ZINC000095641922    0.0700
36     H36    -0.5289    1.8773    0.9072 H        1 ZINC000095641922    0.0800
37     H37     0.5293   -0.3651    0.8851 H        1 ZINC000095641922    0.0600
38     H38    -1.0205   -0.3814    0.0098 H        1 ZINC000095641922    0.0600
39     H39    -0.2572   -2.2689    0.4835 H        1 ZINC000095641922    0.1300
40     H40    -0.0645   -4.7046    0.1850 H        1 ZINC000095641922    0.1300
41     H41     2.0194   -6.2683   -2.4013 H        1 ZINC000095641922    0.0900
42     H42     1.1475   -6.5218   -0.8703 H        1 ZINC000095641922    0.0900
43     H43     0.9601   -6.6546   -4.4729 H        1 ZINC000095641922    0.1300
44     H44    -2.6296   -4.5751   -9.3001 H        1 ZINC000095641922    0.0800
45     H45    -4.3983   -4.4292   -9.1640 H        1 ZINC000095641922    0.1100
46     H46    -3.4097   -4.6656   -7.7028 H        1 ZINC000095641922    0.0900
47     H47    -2.6968   -8.7174  -10.4137 H        1 ZINC000095641922    0.3900
48     H48    -0.5889  -11.0312   -9.0001 H        1 ZINC000095641922    0.3900
49     H49     0.6200  -10.4460   -5.8380 H        1 ZINC000095641922    0.3900
50     H50    -3.1334   -7.8484   -4.5639 H        1 ZINC000095641922    0.1400
51     H51    -3.3249   -7.3783   -2.1544 H        1 ZINC000095641922    0.1400
52     H52     2.0241   -4.0972   -3.4839 H        1 ZINC000095641922    0.1300
53     H53     1.8303   -1.6604   -3.1958 H        1 ZINC000095641922    0.1300
@<TRIPOS>BOND
1     1     2     1
2     1     34    1
3     1     35    1
4     1     36    1
5     2     3     1
6     2     37    1
7     2     38    1
8     3     4     1
9     4     33    ar
10    4     5     ar
11    5     6     ar
12    5     39    1
13    6     7     ar
14    6     40    1
15    7     8     1
16    7     32    ar
17    8     9     1
18    8     41    1
19    8     42    1
20    9     30    ar
21    9     10    ar
22    10    11    ar
23    10    43    1
24    11    12    1
25    11    28    ar
26    12    13    1
27    12    25    1
28    12    14    1
29    14    15    1
30    15    16    1
31    15    17    1
32    15    19    1
33    17    18    1
34    18    44    1
35    18    45    1
36    18    46    1
37    19    20    1
38    19    21    1
39    19    22    1
40    21    47    1
41    22    23    1
42    22    24    1
43    22    25    1
44    24    48    1
45    25    26    1
46    25    27    1
47    27    49    1
48    28    29    ar
49    28    50    1
50    29    30    ar
51    29    51    1
52    30    31    1
53    32    33    ar
54    32    52    1
55    33    53    1
@<TRIPOS>SUBSTRUCTURE
1   ZINC000095641922 1     RESIDUE    1   A     ZIN   1
