@<TRIPOS>MOLECULE
ZINC000000005879
35    37    1     0     0
SMALL
USER_CHARGES
@<TRIPOS>ATOM
1      C1     -0.5135    1.5503    1.7117 C.3      1 ZINC000000005879   -0.1500
2      C2     -0.2875    0.0771    2.0574 C.3      1 ZINC000000005879    0.0300
3      O3      0.6806   -0.4785    1.1652 O.3      1 ZINC000000005879   -0.3400
4      C4      0.8643   -1.8880    1.3113 C.3      1 ZINC000000005879    0.2600
5      C5      1.4711   -2.1844    2.6585 C.cat    1 ZINC000000005879    0.5100
6      N6      2.6675   -2.7069    2.7927 N.pl3    1 ZINC000000005879   -0.6100
7      H7      3.2606   -2.9463    2.0634 H        1 ZINC000000005879    0.4600
8      C8      2.9679   -2.8717    4.2240 C.3      1 ZINC000000005879    0.0600
9      C9      1.6963   -2.3364    4.9145 C.3      1 ZINC000000005879    0.0500
10     N10     0.8444   -1.9338    3.7839 N.pl3    1 ZINC000000005879   -0.6100
11     C11     1.7880   -2.4073    0.2012 C.3      1 ZINC000000005879    0.0400
12     O12     1.1761   -2.1217   -1.0613 O.3      1 ZINC000000005879   -0.2700
13     C13    -0.1460   -2.4219   -1.1819 C.ar     1 ZINC000000005879    0.0600
14     C14    -0.7099   -2.5169   -2.4451 C.ar     1 ZINC000000005879   -0.1100
15     C15    -2.0520   -2.8178   -2.5835 C.ar     1 ZINC000000005879   -0.0900
16     C16    -2.8354   -3.0241   -1.4637 C.ar     1 ZINC000000005879   -0.1100
17     C17    -2.2791   -2.9324   -0.2015 C.ar     1 ZINC000000005879   -0.1000
18     C18    -0.9331   -2.6329   -0.0557 C.ar     1 ZINC000000005879    0.0300
19     O19    -0.3975   -2.5541    1.1931 O.3      1 ZINC000000005879   -0.3100
20     H20    -0.8753    1.6316    0.6867 H        1 ZINC000000005879    0.0800
21     H21    -1.2520    1.9740    2.3923 H        1 ZINC000000005879    0.0900
22     H22     0.4256    2.0948    1.8098 H        1 ZINC000000005879    0.0700
23     H23     0.0743   -0.0042    3.0824 H        1 ZINC000000005879    0.0500
24     H24    -1.2266   -0.4674    1.9594 H        1 ZINC000000005879    0.0800
25     H25     3.1236   -3.9231    4.4659 H        1 ZINC000000005879    0.1400
26     H26     3.8376   -2.2781    4.5055 H        1 ZINC000000005879    0.1400
27     H27     1.2177   -3.1207    5.5009 H        1 ZINC000000005879    0.1400
28     H28     1.9317   -1.4757    5.5405 H        1 ZINC000000005879    0.1300
29     H29    -0.0427   -1.5486    3.8587 H        1 ZINC000000005879    0.4600
30     H30     2.7543   -1.9068    0.2629 H        1 ZINC000000005879    0.1400
31     H31     1.9233   -3.4835    0.3090 H        1 ZINC000000005879    0.1100
32     H32    -0.1001   -2.3552   -3.3217 H        1 ZINC000000005879    0.1500
33     H33    -2.4892   -2.8915   -3.5683 H        1 ZINC000000005879    0.1400
34     H34    -3.8841   -3.2571   -1.5749 H        1 ZINC000000005879    0.1400
35     H35    -2.8935   -3.0940    0.6719 H        1 ZINC000000005879    0.1400
@<TRIPOS>BOND
1     1     2     1
2     1     20    1
3     1     21    1
4     1     22    1
5     2     3     1
6     2     23    1
7     2     24    1
8     3     4     1
9     4     19    1
10    4     5     1
11    4     11    1
12    5     10    ar
13    5     6     ar
14    6     7     1
15    6     8     1
16    8     9     1
17    8     25    1
18    8     26    1
19    9     10    1
20    9     27    1
21    9     28    1
22    10    29    1
23    11    12    1
24    11    30    1
25    11    31    1
26    12    13    1
27    13    18    ar
28    13    14    ar
29    14    15    ar
30    14    32    1
31    15    16    ar
32    15    33    1
33    16    17    ar
34    16    34    1
35    17    18    ar
36    17    35    1
37    18    19    1
@<TRIPOS>SUBSTRUCTURE
1   ZINC000000005879 1     RESIDUE    1   A     ZIN   1
