@<TRIPOS>MOLECULE
ZINC000113493441
64    63    1     0     0
SMALL
USER_CHARGES
@<TRIPOS>ATOM
1      C1      2.3299    1.0201   -0.8333 C.3      1 ZINC000113493441   -0.1500
2      C2      2.0803   -0.4696   -1.0769 C.3      1 ZINC000113493441   -0.1100
3      C3      0.6976   -0.8320   -0.5996 C.2      1 ZINC000113493441   -0.1600
4      C4     -0.1277   -1.4606   -1.3996 C.2      1 ZINC000113493441   -0.1500
5      C5      0.3546   -1.9636   -2.7358 C.3      1 ZINC000113493441   -0.0800
6      C6      0.0362   -3.4309   -2.8650 C.2      1 ZINC000113493441   -0.1600
7      C7     -0.6077   -3.8712   -3.9174 C.2      1 ZINC000113493441   -0.1500
8      C8     -0.8888   -2.9437   -5.0714 C.3      1 ZINC000113493441   -0.0800
9      C9     -0.3802   -3.5620   -6.3482 C.2      1 ZINC000113493441   -0.1600
10     C10    -1.1789   -3.6868   -7.3790 C.2      1 ZINC000113493441   -0.1400
11     C11    -2.5492   -3.0603   -7.3507 C.3      1 ZINC000113493441   -0.0800
12     C12    -2.7325   -2.1976   -8.5726 C.2      1 ZINC000113493441   -0.1600
13     C13    -3.7708   -2.3768   -9.3511 C.2      1 ZINC000113493441   -0.1500
14     C14    -4.8630   -3.3314   -8.9427 C.3      1 ZINC000113493441   -0.0900
15     C15    -6.1957   -2.6319   -9.0183 C.2      1 ZINC000113493441   -0.1600
16     C16    -7.1549   -3.1282   -9.7597 C.2      1 ZINC000113493441   -0.1500
17     C17    -6.8743   -4.2924  -10.6747 C.3      1 ZINC000113493441   -0.1000
18     C18    -7.7596   -5.4762  -10.2799 C.3      1 ZINC000113493441   -0.1100
19     C19    -7.4748   -6.6581  -11.2088 C.3      1 ZINC000113493441   -0.1100
20     C20    -8.3600   -7.8418  -10.8141 C.3      1 ZINC000113493441    0.0700
21     O21    -8.0940   -8.9457  -11.6817 O.3      1 ZINC000113493441   -0.3700
22     C22    -8.8729  -10.1095  -11.3971 C.3      1 ZINC000113493441    0.0300
23     H23    -9.8329   -9.8103  -10.9765 H        1 ZINC000113493441    0.0500
24     C24    -9.1050  -10.8962  -12.6887 C.3      1 ZINC000113493441   -0.1000
25     C25    -9.9578  -10.0628  -13.6473 C.3      1 ZINC000113493441   -0.1400
26     C26    -8.1385  -10.9756  -10.4064 C.2      1 ZINC000113493441    0.4800
27     O27    -7.0490  -10.6285   -9.9833 O.co2    1 ZINC000113493441   -0.6800
28     O28    -8.6337  -12.0235  -10.0281 O.co2    1 ZINC000113493441   -0.7000
29     H29     3.3300    1.2822   -1.1785 H        1 ZINC000113493441    0.0600
30     H30     1.5915    1.6064   -1.3803 H        1 ZINC000113493441    0.0500
31     H31     2.2459    1.2330    0.2324 H        1 ZINC000113493441    0.0500
32     H32     2.1643   -0.6826   -2.1426 H        1 ZINC000113493441    0.0800
33     H33     2.8187   -1.0559   -0.5300 H        1 ZINC000113493441    0.0700
34     H34     0.3870   -0.5734    0.4019 H        1 ZINC000113493441    0.1100
35     H35    -1.1536   -1.6185   -1.1014 H        1 ZINC000113493441    0.1100
36     H36    -0.1438   -1.4121   -3.5330 H        1 ZINC000113493441    0.0800
37     H37     1.4321   -1.8175   -2.8117 H        1 ZINC000113493441    0.0800
38     H38     0.3390   -4.1194   -2.0899 H        1 ZINC000113493441    0.1100
39     H39    -0.9371   -4.8990   -3.9579 H        1 ZINC000113493441    0.1100
40     H40    -1.9632   -2.7779   -5.1508 H        1 ZINC000113493441    0.0800
41     H41    -0.3856   -1.9916   -4.9032 H        1 ZINC000113493441    0.0800
42     H42     0.6427   -3.9023   -6.4133 H        1 ZINC000113493441    0.1100
43     H43    -0.8554   -4.2387   -8.2491 H        1 ZINC000113493441    0.1100
44     H44    -3.3069   -3.8439   -7.3421 H        1 ZINC000113493441    0.0900
45     H45    -2.6502   -2.4476   -6.4549 H        1 ZINC000113493441    0.0800
46     H46    -2.0079   -1.4317   -8.8066 H        1 ZINC000113493441    0.1100
47     H47    -3.8440   -1.8403  -10.2856 H        1 ZINC000113493441    0.1100
48     H48    -4.8649   -4.1901   -9.6141 H        1 ZINC000113493441    0.0900
49     H49    -4.6873   -3.6690   -7.9214 H        1 ZINC000113493441    0.0900
50     H50    -6.3600   -1.7214   -8.4612 H        1 ZINC000113493441    0.1100
51     H51    -8.1467   -2.7031   -9.7153 H        1 ZINC000113493441    0.1100
52     H52    -7.0891   -4.0054  -11.7040 H        1 ZINC000113493441    0.0700
53     H53    -5.8260   -4.5780  -10.5882 H        1 ZINC000113493441    0.0800
54     H54    -7.5449   -5.7631   -9.2505 H        1 ZINC000113493441    0.0600
55     H55    -8.8080   -5.1906  -10.3663 H        1 ZINC000113493441    0.0600
56     H56    -7.6895   -6.3711  -12.2382 H        1 ZINC000113493441    0.0600
57     H57    -6.4264   -6.9436  -11.1224 H        1 ZINC000113493441    0.0700
58     H58    -8.1453   -8.1288   -9.7847 H        1 ZINC000113493441    0.0500
59     H59    -9.4084   -7.5563  -10.9005 H        1 ZINC000113493441    0.0300
60     H60    -8.1456  -11.1189  -13.1559 H        1 ZINC000113493441    0.0600
61     H61    -9.6220  -11.8278  -12.4587 H        1 ZINC000113493441    0.0800
62     H62   -10.1232  -10.6233  -14.5674 H        1 ZINC000113493441    0.0500
63     H63   -10.9172   -9.8402  -13.1801 H        1 ZINC000113493441    0.0400
64     H64    -9.4408   -9.1312  -13.8772 H        1 ZINC000113493441    0.0600
@<TRIPOS>BOND
1     1     2     1
2     1     29    1
3     1     30    1
4     1     31    1
5     2     3     1
6     2     32    1
7     2     33    1
8     3     4     2
9     3     34    1
10    4     5     1
11    4     35    1
12    5     6     1
13    5     36    1
14    5     37    1
15    6     7     2
16    6     38    1
17    7     8     1
18    7     39    1
19    8     9     1
20    8     40    1
21    8     41    1
22    9     10    2
23    9     42    1
24    10    11    1
25    10    43    1
26    11    12    1
27    11    44    1
28    11    45    1
29    12    13    2
30    12    46    1
31    13    14    1
32    13    47    1
33    14    15    1
34    14    48    1
35    14    49    1
36    15    16    2
37    15    50    1
38    16    17    1
39    16    51    1
40    17    18    1
41    17    52    1
42    17    53    1
43    18    19    1
44    18    54    1
45    18    55    1
46    19    20    1
47    19    56    1
48    19    57    1
49    20    21    1
50    20    58    1
51    20    59    1
52    21    22    1
53    22    23    1
54    22    24    1
55    22    26    1
56    24    25    1
57    24    60    1
58    24    61    1
59    25    62    1
60    25    63    1
61    25    64    1
62    26    27    ar
63    26    28    ar
@<TRIPOS>SUBSTRUCTURE
1   ZINC000113493441 1     RESIDUE    1   A     ZIN   1
