@<TRIPOS>MOLECULE
ZINC000140986729
75    78    1     0     0
SMALL
USER_CHARGES
@<TRIPOS>ATOM
1      C1     -0.0173    1.4248    0.0099 C.3      1 ZINC000140986729    0.0300
2      O2      0.0021   -0.0041    0.0020 O.3      1 ZINC000140986729   -0.3800
3      C3      0.6518   -0.5703   -1.1379 C.3      1 ZINC000140986729    0.0600
4      C4      0.6131   -2.0967   -1.0411 C.3      1 ZINC000140986729    0.0600
5      O5     -0.7418   -2.5446   -1.1169 O.3      1 ZINC000140986729   -0.3000
6      C6     -0.9533   -3.8851   -1.0457 C.ar     1 ZINC000140986729    0.1600
7      C7      0.1202   -4.7501   -0.9000 C.ar     1 ZINC000140986729   -0.3000
8      C8     -0.0989   -6.1171   -0.8271 C.ar     1 ZINC000140986729    0.1500
9      O9      0.9514   -6.9675   -0.6839 O.3      1 ZINC000140986729   -0.3000
10     C10     2.2540   -6.3839   -0.6152 C.3      1 ZINC000140986729    0.0600
11     C11     3.3001   -7.4888   -0.4553 C.3      1 ZINC000140986729    0.0600
12     O12     3.3132   -8.3056   -1.6278 O.3      1 ZINC000140986729   -0.3800
13     C13     4.2610   -9.3740   -1.5813 C.3      1 ZINC000140986729    0.0300
14     C14    -1.3917   -6.6163   -0.9002 C.ar     1 ZINC000140986729   -0.1700
15     C15    -2.4600   -5.7521   -1.0454 C.ar     1 ZINC000140986729   -0.0300
16     C16    -3.8629   -6.2969   -1.1245 C.3      1 ZINC000140986729    0.1500
17     N17    -4.4303   -6.3822    0.2235 N.pl3    1 ZINC000140986729   -0.4500
18     C18    -4.3295   -7.4738    1.0526 C.ar     1 ZINC000140986729    0.0900
19     C19    -3.7241   -8.7203    0.9067 C.ar     1 ZINC000140986729   -0.1300
20     C20    -3.7868   -9.6367    1.9323 C.ar     1 ZINC000140986729   -0.1100
21     C21    -4.4488   -9.3332    3.1147 C.ar     1 ZINC000140986729   -0.1600
22     C22    -5.0497   -8.1180    3.2806 C.ar     1 ZINC000140986729   -0.0700
23     C23    -4.9987   -7.1720    2.2536 C.ar     1 ZINC000140986729   -0.0900
24     C24    -5.5231   -5.8097    2.1070 C.2      1 ZINC000140986729   -0.1400
25     C25    -6.3020   -5.0480    3.1076 C.ar     1 ZINC000140986729    0.0300
26     C26    -7.5701   -5.4875    3.4911 C.ar     1 ZINC000140986729   -0.1100
27     C27    -8.2911   -4.7728    4.4251 C.ar     1 ZINC000140986729   -0.1200
28     C28    -7.7601   -3.6225    4.9812 C.ar     1 ZINC000140986729   -0.0900
29     C29    -8.5534   -2.8468    6.0009 C.3      1 ZINC000140986729   -0.0300
30     C30    -8.8467   -3.7414    7.2070 C.3      1 ZINC000140986729   -0.1300
31     C31    -7.7477   -1.6277    6.4542 C.3      1 ZINC000140986729   -0.1400
32     C32    -9.8715   -2.3837    5.3770 C.3      1 ZINC000140986729   -0.1400
33     C33    -6.5036   -3.1814    4.6054 C.ar     1 ZINC000140986729   -0.1200
34     C34    -5.7697   -3.8900    3.6767 C.ar     1 ZINC000140986729   -0.0700
35     C35    -5.1394   -5.3752    0.8485 C.2      1 ZINC000140986729    0.0700
36     C36    -5.4443   -4.0669    0.2719 C.2      1 ZINC000140986729    0.5400
37     O37    -5.0527   -3.7878   -0.8547 O.co2    1 ZINC000140986729   -0.6800
38     O38    -6.0914   -3.2498    0.9154 O.co2    1 ZINC000140986729   -0.6500
39     C39    -2.2447   -4.3889   -1.1130 C.ar     1 ZINC000140986729   -0.1500
40     H40     1.0053    1.8021    0.0021 H        1 ZINC000140986729    0.0400
41     H41    -0.5445    1.7859   -0.8732 H        1 ZINC000140986729    0.0400
42     H42    -0.5275    1.7763    0.9067 H        1 ZINC000140986729    0.0900
43     H43     0.1385   -0.2506   -2.0447 H        1 ZINC000140986729    0.0600
44     H44     1.6883   -0.2344   -1.1694 H        1 ZINC000140986729    0.0700
45     H45     1.1847   -2.5275   -1.8631 H        1 ZINC000140986729    0.0700
46     H46     1.0473   -2.4117   -0.0922 H        1 ZINC000140986729    0.0700
47     H47     1.1256   -4.3597   -0.8437 H        1 ZINC000140986729    0.1300
48     H48     2.4512   -5.8266   -1.5309 H        1 ZINC000140986729    0.0700
49     H49     2.3051   -5.7088    0.2391 H        1 ZINC000140986729    0.0800
50     H50     4.2835   -7.0404   -0.3139 H        1 ZINC000140986729    0.0700
51     H51     3.0520   -8.1014    0.4115 H        1 ZINC000140986729    0.0600
52     H52     5.2643   -8.9647   -1.4632 H        1 ZINC000140986729    0.0400
53     H53     4.0329  -10.0257   -0.7379 H        1 ZINC000140986729    0.0400
54     H54     4.2088   -9.9466   -2.5073 H        1 ZINC000140986729    0.0900
55     H55    -1.5628   -7.6812   -0.8438 H        1 ZINC000140986729    0.1300
56     H56    -4.4760   -5.6345   -1.7356 H        1 ZINC000140986729    0.1300
57     H57    -3.8422   -7.2899   -1.5735 H        1 ZINC000140986729    0.0800
58     H58    -3.2071   -8.9671   -0.0088 H        1 ZINC000140986729    0.1100
59     H59    -3.3164  -10.6019    1.8159 H        1 ZINC000140986729    0.1200
60     H60    -4.4892  -10.0639    3.9090 H        1 ZINC000140986729    0.1100
61     H61    -5.5631   -7.8891    4.2028 H        1 ZINC000140986729    0.1100
62     H62    -7.9860   -6.3848    3.0573 H        1 ZINC000140986729    0.1100
63     H63    -9.2725   -5.1117    4.7227 H        1 ZINC000140986729    0.1100
64     H64    -7.9077   -4.0713    7.6515 H        1 ZINC000140986729    0.0500
65     H65    -9.4205   -3.1804    7.9446 H        1 ZINC000140986729    0.0500
66     H66    -9.4207   -4.6100    6.8841 H        1 ZINC000140986729    0.0500
67     H67    -7.5388   -0.9903    5.5950 H        1 ZINC000140986729    0.0600
68     H68    -8.3215   -1.0666    7.1918 H        1 ZINC000140986729    0.0500
69     H69    -6.8087   -1.9576    6.8987 H        1 ZINC000140986729    0.0600
70     H70   -10.4455   -3.2523    5.0541 H        1 ZINC000140986729    0.0500
71     H71   -10.4453   -1.8227    6.1146 H        1 ZINC000140986729    0.0500
72     H72    -9.6626   -1.7464    4.5178 H        1 ZINC000140986729    0.0600
73     H73    -6.0947   -2.2827    5.0432 H        1 ZINC000140986729    0.1200
74     H74    -4.7889   -3.5448    3.3844 H        1 ZINC000140986729    0.1100
75     H75    -3.0813   -3.7154   -1.2261 H        1 ZINC000140986729    0.1700
@<TRIPOS>BOND
1     1     2     1
2     1     40    1
3     1     41    1
4     1     42    1
5     2     3     1
6     3     4     1
7     3     43    1
8     3     44    1
9     4     5     1
10    4     45    1
11    4     46    1
12    5     6     1
13    6     39    ar
14    6     7     ar
15    7     8     ar
16    7     47    1
17    8     9     1
18    8     14    ar
19    9     10    1
20    10    11    1
21    10    48    1
22    10    49    1
23    11    12    1
24    11    50    1
25    11    51    1
26    12    13    1
27    13    52    1
28    13    53    1
29    13    54    1
30    14    15    ar
31    14    55    1
32    15    16    1
33    15    39    ar
34    16    17    1
35    16    56    1
36    16    57    1
37    17    35    1
38    17    18    1
39    18    23    ar
40    18    19    ar
41    19    20    ar
42    19    58    1
43    20    21    ar
44    20    59    1
45    21    22    ar
46    21    60    1
47    22    23    ar
48    22    61    1
49    23    24    1
50    24    25    1
51    24    35    2
52    25    34    ar
53    25    26    ar
54    26    27    ar
55    26    62    1
56    27    28    ar
57    27    63    1
58    28    29    1
59    28    33    ar
60    29    30    1
61    29    31    1
62    29    32    1
63    30    64    1
64    30    65    1
65    30    66    1
66    31    67    1
67    31    68    1
68    31    69    1
69    32    70    1
70    32    71    1
71    32    72    1
72    33    34    ar
73    33    73    1
74    34    74    1
75    35    36    1
76    36    37    ar
77    36    38    ar
78    39    75    1
@<TRIPOS>SUBSTRUCTURE
1   ZINC000140986729 1     RESIDUE    1   A     ZIN   1
