@<TRIPOS>MOLECULE
ZINC000001532377
  55   57    0    0    0
SMALL
USER_CHARGES
NO_NAME
@<TRIPOS>ATOM
    1 C1       -0.0178     1.4608     0.0101 C.3    1 <0>       0.1000
    2 N2        0.0021    -0.0041     0.0020 N.pl3  1 <0>      -0.4100
    3 N3        0.0089    -0.8396    -1.1266 N.2    1 <0>      -0.3100
    4 C4        0.0279    -2.0703    -0.6903 C.2    1 <0>       0.2500
    5 C5        0.0421    -3.3040    -1.5556 C.3    1 <0>       0.1700
    6 O6        1.3938    -3.6747    -1.8344 O.3    1 <0>      -0.5700
    7 N7        0.0333    -2.0608     0.6433 N.2    1 <0>      -0.5700
    8 C8        0.0234    -0.8189     1.0780 C.2    1 <0>       0.5300
    9 N9        0.0251    -0.4194     2.4024 N.pl3  1 <0>      -0.7000
   10 C10       0.0385    -1.4225     3.4700 C.3    1 <0>       0.1500
   11 C11       0.0377    -0.7204     4.8294 C.3    1 <0>      -0.1300
   12 C12       0.0517    -1.7680     5.9444 C.3    1 <0>       0.0700
   13 O13       0.0509    -1.1123     7.2141 O.3    1 <0>      -0.3100
   14 C14       0.0625    -1.9050     8.3179 C.ar   1 <0>       0.1300
   15 C15       0.0803    -3.2853     8.1818 C.ar   1 <0>      -0.2100
   16 C16       0.0926    -4.0890     9.3056 C.ar   1 <0>      -0.0800
   17 C17       0.0868    -3.5187    10.5648 C.ar   1 <0>      -0.1500
   18 C18       0.0686    -2.1428    10.7032 C.ar   1 <0>      -0.0400
   19 C19       0.0618    -1.5244    12.0775 C.3    1 <0>       0.0900
   20 N20       1.4444    -1.3051    12.5226 N.3    1 <0>      -0.5300
   21 C21       2.2748    -2.4881    12.2631 C.3    1 <0>       0.0500
   22 C22       3.7334    -2.1738    12.6033 C.3    1 <0>      -0.1200
   23 C23       3.8331    -1.7704    14.0770 C.3    1 <0>      -0.1200
   24 C24       2.9221    -0.5663    14.3313 C.3    1 <0>      -0.1200
   25 C25       1.4870    -0.9272    13.9410 C.3    1 <0>       0.0500
   26 C26       0.0625    -1.3349     9.5829 C.ar   1 <0>      -0.1300
   27 H27       1.0048     1.8381     0.0023 H      1 <0>       0.0800
   28 H28      -0.5450     1.8219    -0.8730 H      1 <0>       0.1000
   29 H29      -0.5280     1.8123     0.9069 H      1 <0>       0.0800
   30 H30      -0.4580    -4.1198    -1.0335 H      1 <0>       0.0800
   31 H31      -0.4784    -3.0980    -2.4908 H      1 <0>       0.0700
   32 H32       1.4792    -4.4628    -2.3882 H      1 <0>       0.3900
   33 H33       0.0174     0.5249     2.6241 H      1 <0>       0.4100
   34 H34      -0.8461    -2.0538     3.3866 H      1 <0>       0.0700
   35 H35       0.9338    -2.0377     3.3794 H      1 <0>       0.0700
   36 H36       0.9223    -0.0891     4.9129 H      1 <0>       0.0800
   37 H37      -0.8576    -0.1053     4.9201 H      1 <0>       0.0800
   38 H38      -0.8329    -2.3993     5.8610 H      1 <0>       0.0700
   39 H39       0.9469    -2.3832     5.8538 H      1 <0>       0.0700
   40 H40       0.0842    -3.7314     7.1982 H      1 <0>       0.1300
   41 H41       0.1065    -5.1638     9.2001 H      1 <0>       0.1300
   42 H42       0.0961    -4.1486    11.4420 H      1 <0>       0.1200
   43 H43      -0.4648    -0.5707    12.0441 H      1 <0>       0.0900
   44 H44      -0.4425    -2.1937    12.7746 H      1 <0>       0.0500
   45 H45       1.9285    -3.3173    12.8801 H      1 <0>       0.0300
   46 H46       2.1982    -2.7619    11.2108 H      1 <0>       0.0800
   47 H47       4.3470    -3.0569    12.4254 H      1 <0>       0.0700
   48 H48       4.0846    -1.3537    11.9770 H      1 <0>       0.0700
   49 H49       3.5188    -2.6040    14.7050 H      1 <0>       0.0600
   50 H50       4.8634    -1.5038    14.3128 H      1 <0>       0.0600
   51 H51       2.9560    -0.3009    15.3879 H      1 <0>       0.0700
   52 H52       3.2605     0.2791    13.7321 H      1 <0>       0.0700
   53 H53       0.8382    -0.0673    14.1074 H      1 <0>       0.0800
   54 H54       1.1444    -1.7637    14.5501 H      1 <0>       0.0300
   55 H55       0.0486    -0.2605     9.6915 H      1 <0>       0.1300
@<TRIPOS>BOND
   1    1    2 1
   2    1   27 1
   3    1   28 1
   4    1   29 1
   5    2    8 1
   6    2    3 1
   7    3    4 2
   8    4    5 1
   9    4    7 1
  10    5    6 1
  11    5   30 1
  12    5   31 1
  13    6   32 1
  14    7    8 2
  15    8    9 1
  16    9   10 1
  17    9   33 1
  18   10   11 1
  19   10   34 1
  20   10   35 1
  21   11   12 1
  22   11   36 1
  23   11   37 1
  24   12   13 1
  25   12   38 1
  26   12   39 1
  27   13   14 1
  28   14   26 ar
  29   14   15 ar
  30   15   16 ar
  31   15   40 1
  32   16   17 ar
  33   16   41 1
  34   17   18 ar
  35   17   42 1
  36   18   19 1
  37   18   26 ar
  38   19   20 1
  39   19   43 1
  40   19   44 1
  41   20   25 1
  42   20   21 1
  43   21   22 1
  44   21   45 1
  45   21   46 1
  46   22   23 1
  47   22   47 1
  48   22   48 1
  49   23   24 1
  50   23   49 1
  51   23   50 1
  52   24   25 1
  53   24   51 1
  54   24   52 1
  55   25   53 1
  56   25   54 1
  57   26   55 1
