@<TRIPOS>MOLECULE
ZINC000000000424
50    51    1     0     0
SMALL
USER_CHARGES
@<TRIPOS>ATOM
1      C1     -0.0187    1.5258    0.0104 C.3      1 ZINC000000000424   -0.1400
2      C2      0.0021   -0.0041    0.0020 C.3      1 ZINC000000000424   -0.0300
3      C3      0.7421   -0.5109    1.2415 C.3      1 ZINC000000000424   -0.1400
4      C4     -1.4333   -0.5336    0.0129 C.3      1 ZINC000000000424   -0.1400
5      C5      0.7074   -0.4901   -1.2379 C.ar     1 ZINC000000000424   -0.0800
6      C6      0.0361   -1.2843   -2.1485 C.ar     1 ZINC000000000424   -0.1200
7      C7      0.6831   -1.7301   -3.2859 C.ar     1 ZINC000000000424   -0.1200
8      C8      2.0014   -1.3813   -3.5127 C.ar     1 ZINC000000000424   -0.0800
9      C9      2.7069   -1.8677   -4.7524 C.3      1 ZINC000000000424   -0.0800
10     C10     2.5117   -0.8537   -5.8813 C.3      1 ZINC000000000424   -0.1400
11     C11     3.2279   -1.3475   -7.1399 C.3      1 ZINC000000000424    0.1100
12     H12     2.8760   -2.3486   -7.3891 H        1 ZINC000000000424    0.1100
13     O13     4.6368   -1.3832   -6.9032 O.3      1 ZINC000000000424   -0.5500
14     C14     2.9299   -0.3981   -8.3021 C.3      1 ZINC000000000424    0.0300
15     O15     3.5019   -0.9207   -9.5028 O.3      1 ZINC000000000424   -0.3100
16     C16     3.3277   -0.1940  -10.6351 C.ar     1 ZINC000000000424    0.1100
17     C17     2.6231    1.0039  -10.5883 C.ar     1 ZINC000000000424   -0.2300
18     C18     2.4442    1.7447  -11.7343 C.ar     1 ZINC000000000424   -0.0500
19     C19     2.9725    1.2907  -12.9477 C.ar     1 ZINC000000000424   -0.1700
20     C20     2.7842    2.0799  -14.1764 C.2      1 ZINC000000000424    0.5200
21     O21     2.1650    3.1343  -14.1373 O.co2    1 ZINC000000000424   -0.6900
22     O22     3.2469    1.6812  -15.2363 O.co2    1 ZINC000000000424   -0.6900
23     C23     3.6806    0.0849  -12.9899 C.ar     1 ZINC000000000424   -0.0500
24     C24     3.8591   -0.6465  -11.8378 C.ar     1 ZINC000000000424   -0.1700
25     C25     2.6723   -0.5859   -2.6027 C.ar     1 ZINC000000000424   -0.1100
26     C26     2.0241   -0.1370   -1.4673 C.ar     1 ZINC000000000424   -0.1100
27     H27     1.0039    1.9031    0.0027 H        1 ZINC000000000424    0.0600
28     H28    -0.5459    1.8868   -0.8726 H        1 ZINC000000000424    0.0600
29     H29    -0.5289    1.8773    0.9072 H        1 ZINC000000000424    0.0600
30     H30     0.2319   -0.1594    2.1383 H        1 ZINC000000000424    0.0600
31     H31     0.7568   -1.6008    1.2356 H        1 ZINC000000000424    0.0600
32     H32     1.7647   -0.1336    1.2338 H        1 ZINC000000000424    0.0600
33     H33    -1.9605   -0.1726   -0.8702 H        1 ZINC000000000424    0.0600
34     H34    -1.4185   -1.6235    0.0069 H        1 ZINC000000000424    0.0600
35     H35    -1.9435   -0.1821    0.9097 H        1 ZINC000000000424    0.0600
36     H36    -0.9938   -1.5568   -1.9713 H        1 ZINC000000000424    0.1200
37     H37     0.1588   -2.3512   -3.9970 H        1 ZINC000000000424    0.1200
38     H38     3.7710   -1.9797   -4.5445 H        1 ZINC000000000424    0.0800
39     H39     2.2921   -2.8300   -5.0525 H        1 ZINC000000000424    0.0700
40     H40     1.4475   -0.7418   -6.0892 H        1 ZINC000000000424    0.0800
41     H41     2.9264    0.1086   -5.5812 H        1 ZINC000000000424    0.0700
42     H42     5.0192   -0.5247   -6.6755 H        1 ZINC000000000424    0.3700
43     H43     1.8512   -0.3021   -8.4253 H        1 ZINC000000000424    0.0700
44     H44     3.3601    0.5809   -8.0909 H        1 ZINC000000000424    0.0600
45     H45     2.2154    1.3534   -9.6513 H        1 ZINC000000000424    0.1200
46     H46     1.8966    2.6748  -11.6971 H        1 ZINC000000000424    0.1300
47     H47     4.0899   -0.2696  -13.9244 H        1 ZINC000000000424    0.1300
48     H48     4.4059   -1.5773  -11.8693 H        1 ZINC000000000424    0.1200
49     H49     3.7021   -0.3131   -2.7802 H        1 ZINC000000000424    0.1200
50     H50     2.5483    0.4845   -0.7563 H        1 ZINC000000000424    0.1200
@<TRIPOS>BOND
1     1     2     1
2     1     27    1
3     1     28    1
4     1     29    1
5     2     3     1
6     2     4     1
7     2     5     1
8     3     30    1
9     3     31    1
10    3     32    1
11    4     33    1
12    4     34    1
13    4     35    1
14    5     26    ar
15    5     6     ar
16    6     7     ar
17    6     36    1
18    7     8     ar
19    7     37    1
20    8     9     1
21    8     25    ar
22    9     10    1
23    9     38    1
24    9     39    1
25    10    11    1
26    10    40    1
27    10    41    1
28    11    12    1
29    11    13    1
30    11    14    1
31    13    42    1
32    14    15    1
33    14    43    1
34    14    44    1
35    15    16    1
36    16    24    ar
37    16    17    ar
38    17    18    ar
39    17    45    1
40    18    19    ar
41    18    46    1
42    19    20    1
43    19    23    ar
44    20    21    ar
45    20    22    ar
46    23    24    ar
47    23    47    1
48    24    48    1
49    25    26    ar
50    25    49    1
51    26    50    1
@<TRIPOS>SUBSTRUCTURE
1   ZINC000000000424 1     RESIDUE    1   A     ZIN   1
