@<TRIPOS>MOLECULE
ZINC000030691809
63    65    1     0     0
SMALL
USER_CHARGES
@<TRIPOS>ATOM
1      C1     -0.3561    1.7350    0.0926 C.3      1 ZINC000030691809   -0.1800
2      C2     -0.0860    0.2294    0.1258 C.3      1 ZINC000030691809    0.0600
3      C3      0.7372   -0.1138    1.3690 C.3      1 ZINC000030691809   -0.1800
4      C4     -1.4155   -0.5264    0.1698 C.3      1 ZINC000030691809   -0.1300
5      C5     -2.1981   -0.2571   -1.1170 C.3      1 ZINC000030691809   -0.1100
6      C6     -1.6448   -1.1037   -2.2830 C.3      1 ZINC000030691809   -0.0900
7      C7     -2.4638   -2.3766   -2.2719 C.ar     1 ZINC000030691809   -0.1100
8      C8     -2.2211   -3.6049   -2.8629 C.ar     1 ZINC000030691809   -0.1000
9      C9     -3.1257   -4.6385   -2.7148 C.ar     1 ZINC000030691809   -0.1100
10     C10    -4.2770   -4.4467   -1.9745 C.ar     1 ZINC000030691809   -0.1100
11     C11    -4.5209   -3.2218   -1.3840 C.ar     1 ZINC000030691809   -0.1000
12     C12    -3.6155   -2.1848   -1.5313 C.ar     1 ZINC000030691809   -0.1000
13     C13    -3.6487   -0.7699   -0.9944 C.3      1 ZINC000030691809   -0.0700
14     N14     0.6596   -0.1610   -1.0782 N.4      1 ZINC000030691809   -0.5000
15     H15     0.7562   -1.1650   -1.1033 H        1 ZINC000030691809    0.4300
16     H16     0.1604    0.1495   -1.8983 H        1 ZINC000030691809    0.4300
17     C17     1.9913    0.4585   -1.0519 C.3      1 ZINC000030691809   -0.0600
18     C18     2.7679    0.0520   -2.3059 C.3      1 ZINC000030691809    0.0900
19     H19     2.7956   -1.0352   -2.3795 H        1 ZINC000030691809    0.1300
20     O20     2.1228    0.5913   -3.4614 O.3      1 ZINC000030691809   -0.5400
21     C21     4.1960    0.5939   -2.2195 C.3      1 ZINC000030691809    0.0300
22     O22     4.9545    0.1174   -3.3329 O.3      1 ZINC000030691809   -0.2900
23     C23     6.2542    0.5096   -3.4075 C.ar     1 ZINC000030691809    0.1200
24     C24     6.7891    1.3308   -2.4266 C.ar     1 ZINC000030691809   -0.1900
25     C25     8.1104    1.7290   -2.5032 C.ar     1 ZINC000030691809    0.0000
26     C26     8.6901    2.6216   -1.4363 C.3      1 ZINC000030691809   -0.0600
27     C27     9.2805    1.7614   -0.3172 C.3      1 ZINC000030691809   -0.1800
28     C28     9.8602    2.6539    0.7498 C.2      1 ZINC000030691809    0.4900
29     O29     9.8061    3.8657    0.6265 O.co2    1 ZINC000030691809   -0.7000
30     O30    10.3833    2.1643    1.7362 O.co2    1 ZINC000030691809   -0.7000
31     C31     8.9010    1.3097   -3.5564 C.ar     1 ZINC000030691809   -0.1600
32     C32     8.3716    0.4894   -4.5387 C.ar     1 ZINC000030691809    0.1100
33     F33     9.1461    0.0806   -5.5674 F        1 ZINC000030691809   -0.1200
34     C34     7.0496    0.0836   -4.4632 C.ar     1 ZINC000030691809    0.0200
35     F35     6.5318   -0.7169   -5.4204 F        1 ZINC000030691809   -0.1300
36     H36     0.5881    2.2752    0.1621 H        1 ZINC000030691809    0.0800
37     H37    -0.8550    1.9941   -0.8412 H        1 ZINC000030691809    0.0800
38     H38    -0.9938    2.0083    0.9333 H        1 ZINC000030691809    0.1100
39     H39     0.1839    0.1759    2.2624 H        1 ZINC000030691809    0.1100
40     H40     0.9296   -1.1864    1.3926 H        1 ZINC000030691809    0.0800
41     H41     1.6843    0.4247    1.3377 H        1 ZINC000030691809    0.0900
42     H42    -1.2229   -1.5954    0.2609 H        1 ZINC000030691809    0.0900
43     H43    -1.9978   -0.1878    1.0268 H        1 ZINC000030691809    0.1200
44     H44    -2.1819    0.8046   -1.3634 H        1 ZINC000030691809    0.1000
45     H45    -1.7767   -0.5774   -3.2284 H        1 ZINC000030691809    0.1000
46     H46    -0.5913   -1.3303   -2.1192 H        1 ZINC000030691809    0.0500
47     H47    -1.3219   -3.7554   -3.4418 H        1 ZINC000030691809    0.1200
48     H48    -2.9337   -5.5953   -3.1774 H        1 ZINC000030691809    0.1300
49     H49    -4.9854   -5.2535   -1.8580 H        1 ZINC000030691809    0.1300
50     H50    -5.4207   -3.0727   -0.8057 H        1 ZINC000030691809    0.1200
51     H51    -3.9635   -0.7686    0.0491 H        1 ZINC000030691809    0.0800
52     H52    -4.3194   -0.1538   -1.5934 H        1 ZINC000030691809    0.0900
53     H53     1.8870    1.5432   -1.0248 H        1 ZINC000030691809    0.1400
54     H54     2.5306    0.1232   -0.1659 H        1 ZINC000030691809    0.1500
55     H55     2.0624    1.5564   -3.4635 H        1 ZINC000030691809    0.3900
56     H56     4.1728    1.6836   -2.2353 H        1 ZINC000030691809    0.0800
57     H57     4.6582    0.2539   -1.2927 H        1 ZINC000030691809    0.0900
58     H58     6.1730    1.6596   -1.6027 H        1 ZINC000030691809    0.1400
59     H59     9.4741    3.2430   -1.8690 H        1 ZINC000030691809    0.0800
60     H60     7.9048    3.2584   -1.0292 H        1 ZINC000030691809    0.0800
61     H61     8.4965    1.1399    0.1155 H        1 ZINC000030691809    0.0600
62     H62    10.0658    1.1245   -0.7243 H        1 ZINC000030691809    0.0600
63     H63     9.9332    1.6225   -3.6137 H        1 ZINC000030691809    0.1500
@<TRIPOS>BOND
1     1     2     1
2     1     36    1
3     1     37    1
4     1     38    1
5     2     3     1
6     2     4     1
7     2     14    1
8     3     39    1
9     3     40    1
10    3     41    1
11    4     5     1
12    4     42    1
13    4     43    1
14    5     13    1
15    5     6     1
16    5     44    1
17    6     7     1
18    6     45    1
19    6     46    1
20    7     12    ar
21    7     8     ar
22    8     9     ar
23    8     47    1
24    9     10    ar
25    9     48    1
26    10    11    ar
27    10    49    1
28    11    12    ar
29    11    50    1
30    12    13    1
31    13    51    1
32    13    52    1
33    14    15    1
34    14    16    1
35    14    17    1
36    17    18    1
37    17    53    1
38    17    54    1
39    18    19    1
40    18    20    1
41    18    21    1
42    20    55    1
43    21    22    1
44    21    56    1
45    21    57    1
46    22    23    1
47    23    34    ar
48    23    24    ar
49    24    25    ar
50    24    58    1
51    25    26    1
52    25    31    ar
53    26    27    1
54    26    59    1
55    26    60    1
56    27    28    1
57    27    61    1
58    27    62    1
59    28    29    ar
60    28    30    ar
61    31    32    ar
62    31    63    1
63    32    33    1
64    32    34    ar
65    34    35    1
@<TRIPOS>SUBSTRUCTURE
1   ZINC000030691809 1     RESIDUE    1   A     ZIN   1
