@<TRIPOS>MOLECULE
ZINC000001547346
52    54    1     0     0
SMALL
USER_CHARGES
@<TRIPOS>ATOM
1      O1      0.0021   -0.0041    0.0020 O.co2    1 ZINC000001547346   -0.6800
2      C2     -0.0145    1.2187    0.0087 C.2      1 ZINC000001547346    0.5200
3      O3      1.0361    1.8445    0.0021 O.co2    1 ZINC000001547346   -0.6800
4      C4     -1.3023    1.9390    0.0188 C.ar     1 ZINC000001547346   -0.1300
5      C5     -1.3237    3.3364    0.0206 C.ar     1 ZINC000001547346   -0.0700
6      C6     -2.5284    4.0099    0.0300 C.ar     1 ZINC000001547346   -0.1400
7      C7     -3.7186    3.3086    0.0376 C.ar     1 ZINC000001547346   -0.1100
8      C8     -3.7111    1.9139    0.0353 C.ar     1 ZINC000001547346   -0.0900
9      C9     -4.9918    1.1639    0.0435 C.ar     1 ZINC000001547346    0.0300
10     C10    -4.9853   -0.2296    0.0470 C.ar     1 ZINC000001547346   -0.1500
11     C11    -6.1776   -0.9262    0.0541 C.ar     1 ZINC000001547346   -0.0700
12     C12    -7.3801   -0.2457    0.0576 C.ar     1 ZINC000001547346   -0.2000
13     C13    -7.3962    1.1442    0.0546 C.ar     1 ZINC000001547346    0.2000
14     N14    -8.6138    1.8290    0.0582 N.pl3    1 ZINC000001547346   -0.7500
15     C15    -9.8741    1.0822    0.0652 C.3      1 ZINC000001547346    0.1100
16     C16   -11.0482    2.0632    0.0680 C.3      1 ZINC000001547346   -0.0200
17     N17   -12.3120    1.3144    0.0750 N.4      1 ZINC000001547346   -0.5000
18     H18   -12.3623    0.7319   -0.7474 H        1 ZINC000001547346    0.4300
19     H19   -12.3554    0.7356    0.9003 H        1 ZINC000001547346    0.4300
20     C20   -13.4392    2.2563    0.0776 C.3      1 ZINC000001547346   -0.0400
21     C21   -14.7555    1.4764    0.0850 C.3      1 ZINC000001547346    0.1400
22     H22   -14.8024    0.8511    0.9765 H        1 ZINC000001547346    0.1400
23     O23   -14.8268    0.6514   -1.0797 O.3      1 ZINC000001547346   -0.5500
24     C24   -15.9120    2.4426    0.0877 C.ar     1 ZINC000001547346   -0.1300
25     C25   -16.3840    2.9587   -1.1045 C.ar     1 ZINC000001547346   -0.1000
26     C26   -17.4453    3.8449   -1.1029 C.ar     1 ZINC000001547346   -0.1000
27     C27   -18.0344    4.2156    0.0910 C.ar     1 ZINC000001547346   -0.0900
28     C28   -17.5622    3.6994    1.2848 C.ar     1 ZINC000001547346   -0.0300
29     Cl29  -18.3021    4.1642    2.7849 Cl       1 ZINC000001547346   -0.0500
30     C30   -16.5041    2.8083    1.2821 C.ar     1 ZINC000001547346   -0.0900
31     C31    -6.2028    1.8509    0.0533 C.ar     1 ZINC000001547346   -0.1800
32     C32    -2.5024    1.2270    0.0206 C.ar     1 ZINC000001547346   -0.0600
33     H33    -0.3964    3.8901    0.0151 H        1 ZINC000001547346    0.1300
34     H34    -2.5407    5.0898    0.0317 H        1 ZINC000001547346    0.1200
35     H35    -4.6577    3.8419    0.0456 H        1 ZINC000001547346    0.1100
36     H36    -4.0474   -0.7649    0.0439 H        1 ZINC000001547346    0.1300
37     H37    -6.1701   -2.0061    0.0565 H        1 ZINC000001547346    0.1300
38     H38    -8.3099   -0.7951    0.0624 H        1 ZINC000001547346    0.1100
39     H39    -8.6247    2.7989    0.0561 H        1 ZINC000001547346    0.4000
40     H40    -9.9285    0.4529   -0.8231 H        1 ZINC000001547346    0.0800
41     H41    -9.9210    0.4569    0.9568 H        1 ZINC000001547346    0.0800
42     H42   -10.9938    2.6925    0.9563 H        1 ZINC000001547346    0.1400
43     H43   -11.0013    2.6885   -0.8236 H        1 ZINC000001547346    0.1400
44     H44   -13.3848    2.8855    0.9660 H        1 ZINC000001547346    0.1500
45     H45   -13.3924    2.8816   -0.8139 H        1 ZINC000001547346    0.1400
46     H46   -14.7906    1.1421   -1.9121 H        1 ZINC000001547346    0.3900
47     H47   -15.9235    2.6698   -2.0377 H        1 ZINC000001547346    0.1300
48     H48   -17.8137    4.2478   -2.0347 H        1 ZINC000001547346    0.1400
49     H49   -18.8629    4.9084    0.0922 H        1 ZINC000001547346    0.1400
50     H50   -16.1352    2.4051    2.2135 H        1 ZINC000001547346    0.1400
51     H51    -6.2129    2.9308    0.0513 H        1 ZINC000001547346    0.1200
52     H52    -2.4923    0.1471    0.0188 H        1 ZINC000001547346    0.1300
@<TRIPOS>BOND
1     1     2     ar
2     2     3     ar
3     2     4     1
4     4     32    ar
5     4     5     ar
6     5     6     ar
7     5     33    1
8     6     7     ar
9     6     34    1
10    7     8     ar
11    7     35    1
12    8     9     1
13    8     32    ar
14    9     31    ar
15    9     10    ar
16    10    11    ar
17    10    36    1
18    11    12    ar
19    11    37    1
20    12    13    ar
21    12    38    1
22    13    14    1
23    13    31    ar
24    14    15    1
25    14    39    1
26    15    16    1
27    15    40    1
28    15    41    1
29    16    17    1
30    16    42    1
31    16    43    1
32    17    18    1
33    17    19    1
34    17    20    1
35    20    21    1
36    20    44    1
37    20    45    1
38    21    22    1
39    21    23    1
40    21    24    1
41    23    46    1
42    24    30    ar
43    24    25    ar
44    25    26    ar
45    25    47    1
46    26    27    ar
47    26    48    1
48    27    28    ar
49    27    49    1
50    28    29    1
51    28    30    ar
52    30    50    1
53    31    51    1
54    32    52    1
@<TRIPOS>SUBSTRUCTURE
1   ZINC000001547346 1     RESIDUE    1   A     ZIN   1
