@<TRIPOS>MOLECULE
ZINC000038393445
35    35    1     0     0
SMALL
USER_CHARGES
@<TRIPOS>ATOM
1      C1     -0.0173    1.4248    0.0099 C.3      1 ZINC000038393445    0.0300
2      O2      0.0021   -0.0041    0.0020 O.3      1 ZINC000038393445   -0.3900
3      C3     -1.2953   -0.6030    0.0112 C.3      1 ZINC000038393445    0.0600
4      C4     -1.1538   -2.1264    0.0017 C.3      1 ZINC000038393445   -0.1100
5      C5     -2.5429   -2.7677    0.0115 C.3      1 ZINC000038393445   -0.1400
6      C6     -2.4036   -4.2682    0.0021 C.2      1 ZINC000038393445    0.5100
7      O7     -1.3017   -4.7748   -0.0112 O.2      1 ZINC000038393445   -0.5300
8      N8     -3.5034   -5.0472    0.0084 N.am     1 ZINC000038393445   -0.7300
9      C9     -3.3680   -6.5059   -0.0007 C.3      1 ZINC000038393445    0.1600
10     C10    -4.7362   -7.1375    0.0089 C.ar     1 ZINC000038393445   -0.0800
11     C11    -5.3546   -7.4284    1.2105 C.ar     1 ZINC000038393445   -0.1000
12     C12    -6.6097   -8.0078    1.2194 C.ar     1 ZINC000038393445   -0.0700
13     C13    -7.2464   -8.2958    0.0267 C.ar     1 ZINC000038393445   -0.1700
14     C14    -8.6144   -8.9279    0.0364 C.3      1 ZINC000038393445    0.5100
15     F15    -9.5910   -7.9262    0.0456 F        1 ZINC000038393445   -0.1800
16     F16    -8.7701   -9.7204   -1.1060 F        1 ZINC000038393445   -0.1800
17     F17    -8.7523   -9.7240    1.1785 F        1 ZINC000038393445   -0.1800
18     C18    -6.6285   -8.0037   -1.1748 C.ar     1 ZINC000038393445   -0.0700
19     C19    -5.3751   -7.4208   -1.1837 C.ar     1 ZINC000038393445   -0.1000
20     H20     1.0053    1.8021    0.0021 H        1 ZINC000038393445    0.0900
21     H21    -0.5445    1.7859   -0.8732 H        1 ZINC000038393445    0.0400
22     H22    -0.5275    1.7763    0.9067 H        1 ZINC000038393445    0.0400
23     H23    -1.8320   -0.2936    0.9080 H        1 ZINC000038393445    0.0500
24     H24    -1.8490   -0.2840   -0.8718 H        1 ZINC000038393445    0.0500
25     H25    -0.6171   -2.4359   -0.8952 H        1 ZINC000038393445    0.0800
26     H26    -0.6001   -2.4454    0.8847 H        1 ZINC000038393445    0.0800
27     H27    -3.0796   -2.4582    0.9083 H        1 ZINC000038393445    0.1000
28     H28    -3.0966   -2.4487   -0.8716 H        1 ZINC000038393445    0.1000
29     H29    -4.3847   -4.6420    0.0190 H        1 ZINC000038393445    0.4000
30     H30    -2.8312   -6.8153   -0.8975 H        1 ZINC000038393445    0.0800
31     H31    -2.8143   -6.8249    0.8823 H        1 ZINC000038393445    0.0800
32     H32    -4.8572   -7.2034    2.1423 H        1 ZINC000038393445    0.1400
33     H33    -7.0926   -8.2358    2.1581 H        1 ZINC000038393445    0.1400
34     H34    -7.1262   -8.2283   -2.1067 H        1 ZINC000038393445    0.1400
35     H35    -4.8924   -7.1925   -2.1224 H        1 ZINC000038393445    0.1400
@<TRIPOS>BOND
1     1     2     1
2     1     20    1
3     1     21    1
4     1     22    1
5     2     3     1
6     3     4     1
7     3     23    1
8     3     24    1
9     4     5     1
10    4     25    1
11    4     26    1
12    5     6     1
13    5     27    1
14    5     28    1
15    6     7     2
16    6     8     am
17    8     9     1
18    8     29    1
19    9     10    1
20    9     30    1
21    9     31    1
22    10    19    ar
23    10    11    ar
24    11    12    ar
25    11    32    1
26    12    13    ar
27    12    33    1
28    13    14    1
29    13    18    ar
30    14    15    1
31    14    16    1
32    14    17    1
33    18    19    ar
34    18    34    1
35    19    35    1
@<TRIPOS>SUBSTRUCTURE
1   ZINC000038393445 1     RESIDUE    1   A     ZIN   1
