@<TRIPOS>MOLECULE
ZINC000043196229
59    63    1     0     0
SMALL
USER_CHARGES
@<TRIPOS>ATOM
1      C1     -0.7007    1.6190    0.4628 C.3      1 ZINC000043196229   -0.1700
2      C2     -0.5266    0.1288    0.3215 C.2      1 ZINC000043196229    0.5100
3      O3      0.5824   -0.3414    0.1801 O.2      1 ZINC000043196229   -0.5500
4      N4     -1.6032   -0.6814    0.3524 N.am     1 ZINC000043196229   -0.7200
5      C5     -1.4339   -2.1301    0.2150 C.3      1 ZINC000043196229    0.1000
6      C6     -2.7812   -2.8019    0.2824 C.2      1 ZINC000043196229    0.5400
7      O7     -3.7840   -2.1362    0.4306 O.2      1 ZINC000043196229   -0.5300
8      N8     -2.8716   -4.1426    0.1780 N.am     1 ZINC000043196229   -0.6300
9      C9     -4.0548   -5.0748    0.2021 C.3      1 ZINC000043196229    0.1900
10     H10    -5.0362   -4.6051    0.2676 H        1 ZINC000043196229    0.1300
11     C11    -3.6641   -6.0039    1.3941 C.3      1 ZINC000043196229   -0.1300
12     C12    -2.1221   -6.0982    1.2667 C.3      1 ZINC000043196229   -0.1300
13     C13    -1.8240   -5.2089   -0.0084 C.3      1 ZINC000043196229    0.1700
14     H14    -0.7969   -4.8600   -0.1148 H        1 ZINC000043196229    0.1300
15     C15    -2.3813   -6.0070   -1.1846 C.ar     1 ZINC000043196229   -0.1300
16     C16    -1.7969   -6.7020   -2.2160 C.ar     1 ZINC000043196229   -0.0700
17     C17    -2.5931   -7.3393   -3.1516 C.ar     1 ZINC000043196229   -0.1000
18     C18    -3.9767   -7.2755   -3.0472 C.ar     1 ZINC000043196229    0.1700
19     N19    -4.7797   -7.9203   -3.9928 N.pl3    1 ZINC000043196229   -0.6300
20     C20    -4.3572   -9.1089   -4.5651 C.ar     1 ZINC000043196229    0.6200
21     N21    -3.2470   -9.6801   -4.1223 N.ar     1 ZINC000043196229   -0.5900
22     C22    -2.8111  -10.8174   -4.6443 C.ar     1 ZINC000043196229    0.2700
23     C23    -3.5283  -11.4114   -5.6641 C.ar     1 ZINC000043196229   -0.4100
24     C24    -3.0630  -12.7051   -6.2813 C.3      1 ZINC000043196229    0.5300
25     F25    -1.8797  -13.1190   -5.6603 F        1 ZINC000043196229   -0.1700
26     F26    -4.0473  -13.6843   -6.1092 F        1 ZINC000043196229   -0.1800
27     F27    -2.8303  -12.5129   -7.6473 F        1 ZINC000043196229   -0.1800
28     C28    -4.6950  -10.7860   -6.1102 C.ar     1 ZINC000043196229    0.5300
29     N29    -5.4463  -11.3456   -7.1307 N.pl3    1 ZINC000043196229   -0.6800
30     C30    -6.6681  -10.6806   -7.5902 C.3      1 ZINC000043196229    0.1200
31     C31    -6.5277  -10.0204   -8.9720 C.3      1 ZINC000043196229   -0.1500
32     C32    -6.9701  -11.3652   -9.5724 C.3      1 ZINC000043196229   -0.1500
33     C33    -7.6837  -11.6369   -8.2375 C.3      1 ZINC000043196229   -0.1500
34     N34    -5.0764   -9.6489   -5.5378 N.ar     1 ZINC000043196229   -0.6100
35     C35    -4.5636   -6.5698   -2.0007 C.ar     1 ZINC000043196229   -0.1200
36     C36    -3.7900   -5.8906   -1.0608 C.ar     1 ZINC000043196229   -0.0900
37     H37     0.2738    2.1049    0.4141 H        1 ZINC000043196229    0.1000
38     H38    -1.3321    1.9892   -0.3449 H        1 ZINC000043196229    0.0900
39     H39    -1.1697    1.8407    1.4215 H        1 ZINC000043196229    0.0900
40     H40    -2.4901   -0.3053    0.4656 H        1 ZINC000043196229    0.4100
41     H41    -0.9648   -2.3518   -0.7436 H        1 ZINC000043196229    0.1000
42     H42    -0.8025   -2.5003    1.0227 H        1 ZINC000043196229    0.1000
43     H43    -3.9459   -5.5512    2.3448 H        1 ZINC000043196229    0.0800
44     H44    -4.1214   -6.9871    1.2831 H        1 ZINC000043196229    0.0900
45     H45    -1.6360   -5.6927    2.1540 H        1 ZINC000043196229    0.0800
46     H46    -1.8116   -7.1283    1.0919 H        1 ZINC000043196229    0.0900
47     H47    -0.7210   -6.7504   -2.2963 H        1 ZINC000043196229    0.1300
48     H48    -2.1381   -7.8865   -3.9640 H        1 ZINC000043196229    0.1400
49     H49    -5.6327   -7.5354   -4.2480 H        1 ZINC000043196229    0.4300
50     H50    -1.9046  -11.2747   -4.2764 H        1 ZINC000043196229    0.1800
51     H51    -5.1633  -12.1778   -7.5410 H        1 ZINC000043196229    0.4100
52     H52    -7.1040  -10.0269   -6.8347 H        1 ZINC000043196229    0.1100
53     H53    -7.2374   -9.2111   -9.1433 H        1 ZINC000043196229    0.0900
54     H54    -5.5030   -9.7462   -9.2228 H        1 ZINC000043196229    0.0700
55     H55    -7.6501  -11.2632  -10.4182 H        1 ZINC000043196229    0.0700
56     H56    -6.1436  -12.0471   -9.7724 H        1 ZINC000043196229    0.0800
57     H57    -7.5922  -12.6678   -7.8955 H        1 ZINC000043196229    0.0700
58     H58    -8.7095  -11.2695   -8.2081 H        1 ZINC000043196229    0.1000
59     H59    -5.6390   -6.5175   -1.9161 H        1 ZINC000043196229    0.1200
@<TRIPOS>BOND
1     1     2     1
2     1     37    1
3     1     38    1
4     1     39    1
5     2     3     2
6     2     4     am
7     4     5     1
8     4     40    1
9     5     6     1
10    5     41    1
11    5     42    1
12    6     7     2
13    6     8     am
14    8     13    1
15    8     9     1
16    9     10    1
17    9     36    1
18    9     11    1
19    11    12    1
20    11    43    1
21    11    44    1
22    12    13    1
23    12    45    1
24    12    46    1
25    13    14    1
26    13    15    1
27    15    36    ar
28    15    16    ar
29    16    17    ar
30    16    47    1
31    17    18    ar
32    17    48    1
33    18    19    1
34    18    35    ar
35    19    20    1
36    19    49    1
37    20    34    ar
38    20    21    ar
39    21    22    ar
40    22    23    ar
41    22    50    1
42    23    24    1
43    23    28    ar
44    24    25    1
45    24    26    1
46    24    27    1
47    28    29    1
48    28    34    ar
49    29    30    1
50    29    51    1
51    30    33    1
52    30    31    1
53    30    52    1
54    31    32    1
55    31    53    1
56    31    54    1
57    32    33    1
58    32    55    1
59    32    56    1
60    33    57    1
61    33    58    1
62    35    36    ar
63    35    59    1
@<TRIPOS>SUBSTRUCTURE
1   ZINC000043196229 1     RESIDUE    1   A     ZIN   1
