@<TRIPOS>MOLECULE
ZINC000052634547
55    59    1     0     0
SMALL
USER_CHARGES
@<TRIPOS>ATOM
1      F1      0.0021   -0.0041    0.0020 F        1 ZINC000052634547   -0.1300
2      C2     -0.0162    1.3468    0.0094 C.ar     1 ZINC000052634547    0.1200
3      C3     -1.2264    2.0211    0.0304 C.ar     1 ZINC000052634547   -0.1500
4      C4     -1.2497    3.4006    0.0381 C.ar     1 ZINC000052634547   -0.0700
5      C5     -0.0538    4.1157    0.0251 C.ar     1 ZINC000052634547   -0.0800
6      C6     -0.0739    5.5994    0.0338 C.ar     1 ZINC000052634547   -0.0700
7      C7     -1.2830    6.2907    0.0606 C.ar     1 ZINC000052634547    0.1400
8      N8     -1.3023    7.6080    0.0678 N.ar     1 ZINC000052634547   -0.4700
9      C9     -0.1925    8.3204    0.0507 C.ar     1 ZINC000052634547    0.1300
10     C10     1.0474    7.7081    0.0237 C.ar     1 ZINC000052634547   -0.2100
11     C11     2.3059    8.5369    0.0039 C.3      1 ZINC000052634547    0.0500
12     N12     2.7414    8.7990    1.3821 N.4      1 ZINC000052634547   -0.3900
13     H13     1.9864    9.2260    1.8977 H        1 ZINC000052634547    0.4200
14     C14     3.8970    9.7055    1.3661 C.3      1 ZINC000052634547    0.0000
15     C15     4.3393    9.9938    2.8024 C.3      1 ZINC000052634547    0.0300
16     N16     4.6945    8.7311    3.4654 N.3      1 ZINC000052634547   -0.4800
17     C17     5.1564    8.9603    4.7667 C.ar     1 ZINC000052634547    0.0700
18     C18     4.3316    9.5751    5.6980 C.ar     1 ZINC000052634547   -0.1400
19     C19     4.7879    9.8018    6.9830 C.ar     1 ZINC000052634547   -0.1000
20     C20     6.0656    9.4194    7.3436 C.ar     1 ZINC000052634547   -0.1000
21     C21     6.8983    8.8045    6.4177 C.ar     1 ZINC000052634547    0.0600
22     C22     6.4423    8.5665    5.1295 C.ar     1 ZINC000052634547    0.0800
23     O23     7.2399    7.9579    4.2080 O.3      1 ZINC000052634547   -0.2900
24     C24     8.6431    7.9280    4.4912 C.3      1 ZINC000052634547    0.0200
25     C25     8.8289    7.4961    5.9521 C.3      1 ZINC000052634547    0.0200
26     O26     8.1555    8.4389    6.7904 O.3      1 ZINC000052634547   -0.3000
27     C27     3.5543    7.8036    3.4670 C.3      1 ZINC000052634547    0.0300
28     C28     3.1188    7.5335    2.0251 C.3      1 ZINC000052634547   -0.0100
29     C29     1.1200    6.3259    0.0210 C.ar     1 ZINC000052634547   -0.0500
30     C30     1.1611    3.4335    0.0045 C.ar     1 ZINC000052634547   -0.0800
31     C31     1.1753    2.0538    0.0019 C.ar     1 ZINC000052634547   -0.1500
32     H32    -2.1528    1.4660    0.0404 H        1 ZINC000052634547    0.1500
33     H33    -2.1935    3.9254    0.0537 H        1 ZINC000052634547    0.1400
34     H34    -2.2131    5.7418    0.0753 H        1 ZINC000052634547    0.1700
35     H35    -0.2528    9.3987    0.0574 H        1 ZINC000052634547    0.1600
36     H36     3.0888    7.9962   -0.5279 H        1 ZINC000052634547    0.1400
37     H37     2.1101    9.4827   -0.5014 H        1 ZINC000052634547    0.1400
38     H38     4.7171    9.2391    0.8201 H        1 ZINC000052634547    0.1400
39     H39     3.6196   10.6393    0.8771 H        1 ZINC000052634547    0.1400
40     H40     5.2062   10.6545    2.7904 H        1 ZINC000052634547    0.1300
41     H41     3.5241   10.4726    3.3449 H        1 ZINC000052634547    0.0700
42     H42     3.3329    9.8768    5.4187 H        1 ZINC000052634547    0.1300
43     H43     4.1441   10.2794    7.7068 H        1 ZINC000052634547    0.1400
44     H44     6.4180    9.5995    8.3485 H        1 ZINC000052634547    0.1400
45     H45     9.1362    7.2143    3.8312 H        1 ZINC000052634547    0.1300
46     H46     9.0690    8.9206    4.3443 H        1 ZINC000052634547    0.0800
47     H47     8.3983    6.5057    6.1002 H        1 ZINC000052634547    0.0800
48     H48     9.8907    7.4763    6.1974 H        1 ZINC000052634547    0.1300
49     H49     3.8483    6.8666    3.9397 H        1 ZINC000052634547    0.1200
50     H50     2.7261    8.2464    4.0203 H        1 ZINC000052634547    0.0600
51     H51     2.2642    6.8569    2.0244 H        1 ZINC000052634547    0.1300
52     H52     3.9429    7.0782    1.4759 H        1 ZINC000052634547    0.1400
53     H53     2.0748    5.8216    0.0005 H        1 ZINC000052634547    0.1500
54     H54     2.0903    3.9839   -0.0055 H        1 ZINC000052634547    0.1300
55     H55     2.1164    1.5243   -0.0141 H        1 ZINC000052634547    0.1400
@<TRIPOS>BOND
1     1     2     1
2     2     31    ar
3     2     3     ar
4     3     4     ar
5     3     32    1
6     4     5     ar
7     4     33    1
8     5     6     1
9     5     30    ar
10    6     29    ar
11    6     7     ar
12    7     8     ar
13    7     34    1
14    8     9     ar
15    9     10    ar
16    9     35    1
17    10    11    1
18    10    29    ar
19    11    12    1
20    11    36    1
21    11    37    1
22    12    13    1
23    12    28    1
24    12    14    1
25    14    15    1
26    14    38    1
27    14    39    1
28    15    16    1
29    15    40    1
30    15    41    1
31    16    17    1
32    16    27    1
33    17    22    ar
34    17    18    ar
35    18    19    ar
36    18    42    1
37    19    20    ar
38    19    43    1
39    20    21    ar
40    20    44    1
41    21    26    1
42    21    22    ar
43    22    23    1
44    23    24    1
45    24    25    1
46    24    45    1
47    24    46    1
48    25    26    1
49    25    47    1
50    25    48    1
51    27    28    1
52    27    49    1
53    27    50    1
54    28    51    1
55    28    52    1
56    29    53    1
57    30    31    ar
58    30    54    1
59    31    55    1
@<TRIPOS>SUBSTRUCTURE
1   ZINC000052634547 1     RESIDUE    1   A     ZIN   1
