@<TRIPOS>MOLECULE
ZINC000002530707
59    62    1     0     0
SMALL
USER_CHARGES
@<TRIPOS>ATOM
1      C1     -0.0825    1.1719    0.1384 C.3      1 ZINC000002530707    0.0600
2      N2     -0.0900   -0.2856   -0.0095 N.am     1 ZINC000002530707   -0.6300
3      C3     -0.0712   -1.0739    1.0836 C.2      1 ZINC000002530707    0.5100
4      O4     -0.0774   -2.2805    0.9612 O.2      1 ZINC000002530707   -0.5100
5      C5     -0.0424   -0.4560    2.4578 C.3      1 ZINC000002530707   -0.1000
6      C6     -0.0256   -1.5460    3.4983 C.ar     1 ZINC000002530707   -0.0700
7      C7     -1.2150   -2.0456    3.9945 C.ar     1 ZINC000002530707   -0.0900
8      C8     -1.2009   -3.0455    4.9491 C.ar     1 ZINC000002530707   -0.0900
9      C9      0.0037   -3.5464    5.4082 C.ar     1 ZINC000002530707   -0.0300
10     Cl10    0.0219   -4.8024    6.6065 Cl       1 ZINC000002530707   -0.0400
11     C11     1.1954   -3.0458    4.9111 C.ar     1 ZINC000002530707   -0.0300
12     Cl12    2.7083   -3.6735    5.4862 Cl       1 ZINC000002530707   -0.0400
13     C13     1.1794   -2.0494    3.9520 C.ar     1 ZINC000002530707   -0.0900
14     C14    -0.1180   -0.8862   -1.3454 C.3      1 ZINC000002530707    0.1200
15     H15    -0.1155   -1.9725   -1.2553 H        1 ZINC000002530707    0.1300
16     C16    -1.3836   -0.4385   -2.0791 C.3      1 ZINC000002530707   -0.1200
17     C17    -1.4156   -1.0704   -3.4726 C.3      1 ZINC000002530707   -0.1300
18     C18    -0.1797   -0.6336   -4.2580 C.3      1 ZINC000002530707    0.1200
19     C19    -0.1831    0.9015   -4.4070 C.3      1 ZINC000002530707   -0.1500
20     C20     0.3380    1.0916   -5.8580 C.3      1 ZINC000002530707   -0.1600
21     C21    -0.2680   -0.1532   -6.5540 C.3      1 ZINC000002530707    0.0500
22     O22    -0.2069   -1.1999   -5.5713 O.3      1 ZINC000002530707   -0.3600
23     C23     1.0887   -1.0696   -3.5254 C.3      1 ZINC000002530707   -0.1400
24     C24     1.1150   -0.4372   -2.1320 C.3      1 ZINC000002530707    0.0200
25     H25     1.1111    0.6488   -2.2257 H        1 ZINC000002530707    0.1400
26     N26     2.3294   -0.8633   -1.4237 N.4      1 ZINC000002530707   -0.3900
27     H27     2.3196   -0.5169   -0.4761 H        1 ZINC000002530707    0.4200
28     C28     2.4304   -2.3452   -1.4262 C.3      1 ZINC000002530707   -0.0200
29     C29     3.9399   -2.5980   -1.1849 C.3      1 ZINC000002530707   -0.1400
30     C30     4.6135   -1.4622   -1.9887 C.3      1 ZINC000002530707   -0.1400
31     C31     3.5316   -0.3745   -2.1330 C.3      1 ZINC000002530707   -0.0200
32     H32     0.9435    1.5196    0.2589 H        1 ZINC000002530707    0.0600
33     H33    -0.5192    1.6294   -0.7493 H        1 ZINC000002530707    0.0900
34     H34    -0.6661    1.4512    1.0156 H        1 ZINC000002530707    0.0900
35     H35     0.8517    0.1588    2.5611 H        1 ZINC000002530707    0.1100
36     H36    -0.9279    0.1644    2.5958 H        1 ZINC000002530707    0.1200
37     H37    -2.1558   -1.6545    3.6365 H        1 ZINC000002530707    0.1400
38     H38    -2.1306   -3.4353    5.3366 H        1 ZINC000002530707    0.1500
39     H39     2.1084   -1.6588    3.5636 H        1 ZINC000002530707    0.1400
40     H40    -2.2615   -0.7556   -1.5161 H        1 ZINC000002530707    0.1000
41     H41    -1.3846    0.6475   -2.1725 H        1 ZINC000002530707    0.0800
42     H42    -1.4216   -2.1564   -3.3790 H        1 ZINC000002530707    0.0800
43     H43    -2.3136   -0.7459   -3.9982 H        1 ZINC000002530707    0.0900
44     H44    -1.1925    1.2994   -4.3019 H        1 ZINC000002530707    0.0900
45     H45     0.4939    1.3628   -3.6879 H        1 ZINC000002530707    0.0800
46     H46    -0.0465    2.0127   -6.2960 H        1 ZINC000002530707    0.0900
47     H47     1.4273    1.0683   -5.8903 H        1 ZINC000002530707    0.0800
48     H48    -1.3026    0.0386   -6.8385 H        1 ZINC000002530707    0.0700
49     H49     0.3224   -0.4219   -7.4300 H        1 ZINC000002530707    0.0900
50     H50     1.0993   -2.1555   -3.4321 H        1 ZINC000002530707    0.1000
51     H51     1.9635   -0.7446   -4.0886 H        1 ZINC000002530707    0.1000
52     H52     1.8350   -2.7728   -0.6196 H        1 ZINC000002530707    0.1400
53     H53     2.1218   -2.7502   -2.3900 H        1 ZINC000002530707    0.1400
54     H54     4.1802   -2.5153   -0.1249 H        1 ZINC000002530707    0.1000
55     H55     4.2347   -3.5728   -1.5734 H        1 ZINC000002530707    0.1200
56     H56     5.4721   -1.0705   -1.4434 H        1 ZINC000002530707    0.1100
57     H57     4.9205   -1.8239   -2.9700 H        1 ZINC000002530707    0.1100
58     H58     3.3016   -0.2170   -3.1868 H        1 ZINC000002530707    0.1300
59     H59     3.8780    0.5558   -1.6828 H        1 ZINC000002530707    0.1300
@<TRIPOS>BOND
1     1     2     1
2     1     32    1
3     1     33    1
4     1     34    1
5     2     3     am
6     2     14    1
7     3     4     2
8     3     5     1
9     5     6     1
10    5     35    1
11    5     36    1
12    6     13    ar
13    6     7     ar
14    7     8     ar
15    7     37    1
16    8     9     ar
17    8     38    1
18    9     10    1
19    9     11    ar
20    11    12    1
21    11    13    ar
22    13    39    1
23    14    15    1
24    14    24    1
25    14    16    1
26    16    17    1
27    16    40    1
28    16    41    1
29    17    18    1
30    17    42    1
31    17    43    1
32    18    22    1
33    18    19    1
34    18    23    1
35    19    20    1
36    19    44    1
37    19    45    1
38    20    21    1
39    20    46    1
40    20    47    1
41    21    22    1
42    21    48    1
43    21    49    1
44    23    24    1
45    23    50    1
46    23    51    1
47    24    25    1
48    24    26    1
49    26    27    1
50    26    31    1
51    26    28    1
52    28    29    1
53    28    52    1
54    28    53    1
55    29    30    1
56    29    54    1
57    29    55    1
58    30    31    1
59    30    56    1
60    30    57    1
61    31    58    1
62    31    59    1
@<TRIPOS>SUBSTRUCTURE
1   ZINC000002530707 1     RESIDUE    1   A     ZIN   1
