@<TRIPOS>MOLECULE
ZINC000001482482
  23   24    0    0    0
SMALL
USER_CHARGES
NO_NAME
@<TRIPOS>ATOM
    1 C1       -0.0187     1.5258     0.0104 C.3    1 <0>      -0.1600
    2 C2        0.0021    -0.0041     0.0020 C.3    1 <0>      -0.0800
    3 H3       -1.0184    -0.3870     0.0097 H      1 <0>       0.1500
    4 S4        0.8710    -0.5992    -1.4775 S.3    1 <0>      -0.1800
    5 C5        2.5004    -0.0641    -1.0573 C.2    1 <0>       0.4400
    6 O6        3.3127     0.1532    -1.9349 O.2    1 <0>      -0.3600
    7 N7        2.8428     0.1031     0.2263 N.2    1 <0>      -0.1800
    8 N8        2.1431    -0.0703     1.2038 N.2    1 <0>      -0.0400
    9 C9        0.7594    -0.5198     1.2314 C.3    1 <0>       0.0200
   10 C10       0.0936    -0.0020     2.4803 C.ar   1 <0>      -0.0300
   11 C11       0.3409     1.2842     2.9353 C.ar   1 <0>      -0.1500
   12 C12      -0.2879     1.7245     4.0845 C.ar   1 <0>       0.1100
   13 N13      -1.1136     0.9370     4.7456 N.ar   1 <0>      -0.4800
   14 C14      -1.3724    -0.2915     4.3423 C.ar   1 <0>       0.1100
   15 C15      -0.7853    -0.7984     3.1984 C.ar   1 <0>      -0.1600
   16 H16       1.0039     1.9031     0.0027 H      1 <0>       0.0600
   17 H17      -0.5459     1.8868    -0.8726 H      1 <0>       0.0900
   18 H18      -0.5289     1.8773     0.9072 H      1 <0>       0.0900
   19 H19       0.7356    -1.6095     1.2376 H      1 <0>       0.1500
   20 H20       1.0167     1.9336     2.3986 H      1 <0>       0.1400
   21 H21      -0.1006     2.7250     4.4456 H      1 <0>       0.1600
   22 H22      -2.0541    -0.9073     4.9102 H      1 <0>       0.1600
   23 H23      -1.0015    -1.8053     2.8729 H      1 <0>       0.1400
@<TRIPOS>BOND
   1    1    2 1
   2    1   16 1
   3    1   17 1
   4    1   18 1
   5    2    3 1
   6    2    9 1
   7    2    4 1
   8    4    5 1
   9    5    6 2
  10    5    7 1
  11    7    8 2
  12    8    9 1
  13    9   10 1
  14    9   19 1
  15   10   15 ar
  16   10   11 ar
  17   11   12 ar
  18   11   20 1
  19   12   13 ar
  20   12   21 1
  21   13   14 ar
  22   14   15 ar
  23   14   22 1
  24   15   23 1
