@<TRIPOS>MOLECULE
ZINC000003816510
64    68    1     0     0
SMALL
USER_CHARGES
@<TRIPOS>ATOM
1      O1      0.3650    1.2221    0.1950 O.co2    1 ZINC000003816510   -0.7000
2      C2      0.1509    2.4198    0.2742 C.2      1 ZINC000003816510    0.4900
3      O3      1.0828    3.2016    0.3560 O.co2    1 ZINC000003816510   -0.7100
4      C4     -1.2656    2.9342    0.2648 C.3      1 ZINC000003816510   -0.1700
5      C5     -2.2351    1.7564    0.1482 C.3      1 ZINC000003816510   -0.0500
6      C6     -3.6516    2.2708    0.1387 C.ar     1 ZINC000003816510   -0.1100
7      C7     -4.3699    2.3280    1.3117 C.ar     1 ZINC000003816510   -0.0200
8      C8     -5.6838    2.8058    1.3019 C.ar     1 ZINC000003816510   -0.2000
9      C9     -6.4575    2.8694    2.5571 C.2      1 ZINC000003816510    0.4700
10     O10    -7.5628    3.3777    2.5653 O.2      1 ZINC000003816510   -0.4600
11     C11    -5.8917    2.3177    3.7992 C.ar     1 ZINC000003816510   -0.2100
12     C12    -5.3814    3.1748    4.7801 C.ar     1 ZINC000003816510   -0.0300
13     C13    -4.8569    2.6617    5.9317 C.ar     1 ZINC000003816510   -0.2200
14     C14    -4.8260    1.2859    6.1393 C.ar     1 ZINC000003816510    0.1700
15     O15    -4.3028    0.7876    7.2879 O.3      1 ZINC000003816510   -0.3000
16     C16    -3.8389    1.7334    8.2534 C.3      1 ZINC000003816510    0.0700
17     C17    -4.9868    2.1370    9.2119 C.3      1 ZINC000003816510   -0.1500
18     C18    -4.2261    2.6219   10.4710 C.3      1 ZINC000003816510   -0.1200
19     C19    -3.0302    1.6544   10.5865 C.3      1 ZINC000003816510   -0.1200
20     C20    -2.7840    1.0895    9.1766 C.3      1 ZINC000003816510   -0.1200
21     C21    -5.3284    0.4214    5.1769 C.ar     1 ZINC000003816510   -0.1800
22     C22    -5.8672    0.9287    4.0072 C.ar     1 ZINC000003816510    0.1800
23     O23    -6.3598    0.0888    3.0628 O.3      1 ZINC000003816510   -0.4800
24     C24    -6.2625    3.2236    0.1000 C.ar     1 ZINC000003816510   -0.0300
25     C25    -5.5370    3.1631   -1.0688 C.ar     1 ZINC000003816510   -0.2300
26     C26    -4.2292    2.6923   -1.0537 C.ar     1 ZINC000003816510    0.1700
27     O27    -3.5177    2.6343   -2.2078 O.3      1 ZINC000003816510   -0.2900
28     C28    -4.1754    3.0727   -3.3983 C.3      1 ZINC000003816510    0.0900
29     C29    -3.2373    2.9366   -4.5698 C.ar     1 ZINC000003816510   -0.0200
30     C30    -2.4044    3.9926   -4.9095 C.ar     1 ZINC000003816510   -0.1200
31     C31    -1.5424    3.8816   -5.9776 C.ar     1 ZINC000003816510   -0.0100
32     C32    -1.5084    2.7001   -6.7195 C.ar     1 ZINC000003816510   -0.2300
33     C33    -0.7269    2.2643   -7.8870 C.2      1 ZINC000003816510    0.5600
34     O34     0.1163    2.9116   -8.4818 O.2      1 ZINC000003816510   -0.5000
35     N35    -1.1272    1.0049   -8.1703 N.am     1 ZINC000003816510   -0.5700
36     O36    -2.1216    0.6234   -7.2411 O.3      1 ZINC000003816510   -0.0500
37     C37    -2.3506    1.6312   -6.3757 C.ar     1 ZINC000003816510    0.1100
38     C38    -3.2108    1.7622   -5.2901 C.ar     1 ZINC000003816510   -0.1000
39     H39    -1.4616    3.4759    1.1902 H        1 ZINC000003816510    0.0500
40     H40    -1.4034    3.6037   -0.5843 H        1 ZINC000003816510    0.0600
41     H41    -2.0391    1.2147   -0.7772 H        1 ZINC000003816510    0.0800
42     H42    -2.0974    1.0869    0.9972 H        1 ZINC000003816510    0.0700
43     H43    -3.9192    2.0039    2.2381 H        1 ZINC000003816510    0.1300
44     H44    -5.4019    4.2436    4.6261 H        1 ZINC000003816510    0.1300
45     H45    -4.4635    3.3274    6.6857 H        1 ZINC000003816510    0.1400
46     H46    -3.4265    2.6122    7.7576 H        1 ZINC000003816510    0.0900
47     H47    -5.5809    2.9447    8.7845 H        1 ZINC000003816510    0.0700
48     H48    -5.6141    1.2771    9.4468 H        1 ZINC000003816510    0.0800
49     H49    -3.8770    3.6455   10.3351 H        1 ZINC000003816510    0.0700
50     H50    -4.8625    2.5488   11.3529 H        1 ZINC000003816510    0.0700
51     H51    -2.1473    2.1917   10.9329 H        1 ZINC000003816510    0.0700
52     H52    -3.2698    0.8452   11.2764 H        1 ZINC000003816510    0.0700
53     H53    -2.9041    0.0061    9.1821 H        1 ZINC000003816510    0.0800
54     H54    -1.7816    1.3526    8.8387 H        1 ZINC000003816510    0.0800
55     H55    -5.3024   -0.6455    5.3421 H        1 ZINC000003816510    0.1400
56     H56    -7.2981   -0.1180    3.1713 H        1 ZINC000003816510    0.4000
57     H57    -7.2773    3.5930    0.0881 H        1 ZINC000003816510    0.1300
58     H58    -5.9835    3.4854   -1.9979 H        1 ZINC000003816510    0.1300
59     H59    -5.0618    2.4619   -3.5696 H        1 ZINC000003816510    0.0800
60     H60    -4.4694    4.1165   -3.2876 H        1 ZINC000003816510    0.0800
61     H61    -2.4324    4.9060   -4.3339 H        1 ZINC000003816510    0.1400
62     H62    -0.8955    4.7057   -6.2403 H        1 ZINC000003816510    0.1400
63     H63    -0.7881    0.4535   -8.8927 H        1 ZINC000003816510    0.4600
64     H64    -3.8596    0.9443   -5.0135 H        1 ZINC000003816510    0.1500
@<TRIPOS>BOND
1     1     2     ar
2     2     3     ar
3     2     4     1
4     4     5     1
5     4     39    1
6     4     40    1
7     5     6     1
8     5     41    1
9     5     42    1
10    6     26    ar
11    6     7     ar
12    7     8     ar
13    7     43    1
14    8     9     1
15    8     24    ar
16    9     10    2
17    9     11    1
18    11    22    ar
19    11    12    ar
20    12    13    ar
21    12    44    1
22    13    14    ar
23    13    45    1
24    14    15    1
25    14    21    ar
26    15    16    1
27    16    20    1
28    16    17    1
29    16    46    1
30    17    18    1
31    17    47    1
32    17    48    1
33    18    19    1
34    18    49    1
35    18    50    1
36    19    20    1
37    19    51    1
38    19    52    1
39    20    53    1
40    20    54    1
41    21    22    ar
42    21    55    1
43    22    23    1
44    23    56    1
45    24    25    ar
46    24    57    1
47    25    26    ar
48    25    58    1
49    26    27    1
50    27    28    1
51    28    29    1
52    28    59    1
53    28    60    1
54    29    38    ar
55    29    30    ar
56    30    31    ar
57    30    61    1
58    31    32    ar
59    31    62    1
60    32    37    ar
61    32    33    1
62    33    34    2
63    33    35    am
64    35    36    1
65    35    63    1
66    36    37    1
67    37    38    ar
68    38    64    1
@<TRIPOS>SUBSTRUCTURE
1   ZINC000003816510 1     RESIDUE    1   A     ZIN   1
