@<TRIPOS>MOLECULE
ZINC000001538987
  56   59    0    0    0
SMALL
USER_CHARGES
NO_NAME
@<TRIPOS>ATOM
    1 C1       -0.0178     1.4648     0.0101 C.3    1 <0>       0.0200
    2 N2        0.0021    -0.0041     0.0020 N.3    1 <0>      -0.5400
    3 C3        0.7062    -0.5275     1.1802 C.3    1 <0>       0.0200
    4 C4       -1.3597    -0.5486    -0.0825 C.3    1 <0>       0.0400
    5 C5       -1.9710    -0.1854    -1.4372 C.3    1 <0>       0.1100
    6 N6       -3.3290    -0.7284    -1.5215 N.pl3  1 <0>      -0.7100
    7 C7       -4.0867    -0.5258    -2.6641 C.ar   1 <0>       0.2900
    8 C8       -3.5703     0.1902    -3.7512 C.ar   1 <0>      -0.1600
    9 C9       -4.2831     0.4192    -4.9110 C.ar   1 <0>      -0.0200
   10 C10      -5.5817    -0.0743    -5.0359 C.ar   1 <0>       0.0100
   11 C11      -6.0727    -0.7809    -3.9467 C.ar   1 <0>      -0.0800
   12 C12      -5.3882    -1.0372    -2.7644 C.ar   1 <0>      -0.2100
   13 C13      -6.0842    -1.8034    -1.7295 C.2    1 <0>       0.4500
   14 O14      -5.5392    -2.0600    -0.6707 O.2    1 <0>      -0.4600
   15 C15      -7.4656    -2.2583    -2.0002 C.ar   1 <0>      -0.0900
   16 C16      -8.1632    -2.9927    -1.0349 C.ar   1 <0>      -0.1100
   17 C17      -9.4496    -3.4061    -1.3109 C.ar   1 <0>       0.1100
   18 N18     -10.0314    -3.1239    -2.4621 N.ar   1 <0>      -0.4600
   19 C19      -9.4246    -2.4365    -3.4064 C.ar   1 <0>       0.1200
   20 C20      -8.1233    -1.9756    -3.2183 C.ar   1 <0>      -0.0200
   21 C21      -7.4226    -1.2092    -4.2617 C.2    1 <0>       0.0900
   22 N22      -7.6356    -0.7500    -5.4706 N.2    1 <0>      -0.2100
   23 N23      -6.6118    -0.0997    -5.9349 N.pl3  1 <0>      -0.3300
   24 C24      -6.5642     0.5241    -7.2596 C.3    1 <0>       0.1100
   25 C25      -7.0725     1.9640    -7.1638 C.3    1 <0>      -0.0300
   26 N26      -7.0248     2.5895    -8.4922 N.4    1 <0>      -0.5000
   27 H27      -6.0739     2.5902    -8.8296 H      1 <0>       0.4300
   28 H28      -7.6077     2.0688    -9.1302 H      1 <0>       0.4400
   29 C29      -7.5128     3.9721    -8.4002 C.3    1 <0>       0.0000
   30 C30      -7.4631     4.6235    -9.7837 C.3    1 <0>       0.0400
   31 O31      -8.3771     3.9573   -10.6570 O.3    1 <0>      -0.5800
   32 H32       1.0047     1.8421     0.0024 H      1 <0>       0.0700
   33 H33      -0.5450     1.8259    -0.8730 H      1 <0>       0.0700
   34 H34      -0.5280     1.8163     0.9069 H      1 <0>       0.0300
   35 H35       0.1617    -0.2488     2.0824 H      1 <0>       0.0300
   36 H36       0.7676    -1.6137     1.1140 H      1 <0>       0.0700
   37 H37       1.7116    -0.1084     1.2186 H      1 <0>       0.0800
   38 H38      -1.3244    -1.6331     0.0212 H      1 <0>       0.0900
   39 H39      -1.9698    -0.1268     0.7163 H      1 <0>       0.0500
   40 H40      -2.0063     0.8991    -1.5409 H      1 <0>       0.0700
   41 H41      -1.3609    -0.6071    -2.2359 H      1 <0>       0.0800
   42 H42      -3.6979    -1.2298    -0.7775 H      1 <0>       0.4200
   43 H43      -2.5666     0.5822    -3.6786 H      1 <0>       0.1400
   44 H44      -3.8365     0.9791    -5.7194 H      1 <0>       0.1400
   45 H45      -7.7013    -3.2323    -0.0885 H      1 <0>       0.1600
   46 H46      -9.9928    -3.9732    -0.5695 H      1 <0>       0.1700
   47 H47      -9.9386    -2.2287    -4.3332 H      1 <0>       0.1700
   48 H48      -5.5370     0.5249    -7.6242 H      1 <0>       0.1200
   49 H49      -7.1940    -0.0384    -7.9489 H      1 <0>       0.1200
   50 H50      -8.0997     1.9633    -6.7993 H      1 <0>       0.1400
   51 H51      -6.4427     2.5265    -6.4745 H      1 <0>       0.1400
   52 H52      -8.5400     3.9713    -8.0357 H      1 <0>       0.1400
   53 H53      -6.8830     4.5345    -7.7109 H      1 <0>       0.1500
   54 H54      -7.7403     5.6744    -9.7007 H      1 <0>       0.1000
   55 H55      -6.4532     4.5449   -10.1862 H      1 <0>       0.0700
   56 H56      -8.3985     4.3185   -11.5538 H      1 <0>       0.4100
@<TRIPOS>BOND
   1    1    2 1
   2    1   32 1
   3    1   33 1
   4    1   34 1
   5    2    3 1
   6    2    4 1
   7    3   35 1
   8    3   36 1
   9    3   37 1
  10    4    5 1
  11    4   38 1
  12    4   39 1
  13    5    6 1
  14    5   40 1
  15    5   41 1
  16    6    7 1
  17    6   42 1
  18    7   12 ar
  19    7    8 ar
  20    8    9 ar
  21    8   43 1
  22    9   10 ar
  23    9   44 1
  24   10   23 1
  25   10   11 ar
  26   11   21 1
  27   11   12 ar
  28   12   13 1
  29   13   14 2
  30   13   15 1
  31   15   20 ar
  32   15   16 ar
  33   16   17 ar
  34   16   45 1
  35   17   18 ar
  36   17   46 1
  37   18   19 ar
  38   19   20 ar
  39   19   47 1
  40   20   21 1
  41   21   22 2
  42   22   23 1
  43   23   24 1
  44   24   25 1
  45   24   48 1
  46   24   49 1
  47   25   26 1
  48   25   50 1
  49   25   51 1
  50   26   27 1
  51   26   28 1
  52   26   29 1
  53   29   30 1
  54   29   52 1
  55   29   53 1
  56   30   31 1
  57   30   54 1
  58   30   55 1
  59   31   56 1
