@<TRIPOS>MOLECULE
ZINC000003948085
  61   65    0    0    0
SMALL
NO_CHARGES
@<TRIPOS>ATOM
   1 C1             0.1315     1.3925     0.0894 C.3     
   2 O2             0.0717    -0.0340     0.0288 O.3     
   3 C3             0.6018    -0.6279    -1.0736 C.ar    
   4 C4             0.5676    -2.0245    -1.1926 C.ar    
   5 O5             0.0053    -2.7693    -0.2055 O.3     
   6 C6             0.0008    -4.1870    -0.3849 C.3     
   7 C7            -0.6686    -4.8514     0.8198 C.3     
   8 C8            -0.6734    -6.3693     0.6278 C.3     
   9 N9            -1.3161    -7.0072     1.7844 N.4     
  10 H10           -0.8717    -6.7073     2.6392 H       
  11 C11           -2.7631    -6.6732     1.8151 C.3     
  12 C12           -3.3708    -7.8082     2.6770 C.3     
  13 C13           -2.5509    -9.0461     2.2464 C.3     
  14 C14           -1.2431    -8.4792     1.6609 C.3     
  15 C15            1.0974    -2.6494    -2.2995 C.ar    
  16 C16            1.6764    -1.8793    -3.3156 C.ar    
  17 N17            2.2057    -2.4392    -4.4141 N.ar    
  18 C18            2.7408    -1.6907    -5.3488 C.ar    
  19 N19            2.7920    -0.3700    -5.2715 N.ar    
  20 C20            2.2984     0.2828    -4.2299 C.ar    
  21 O21            2.3577     1.6329    -4.1651 O.3     
  22 C22            3.0309     2.2904    -5.1474 C.ar    
  23 C23            4.3682     2.6297    -4.9639 C.ar    
  24 C24            5.0649     3.2951    -5.9484 C.ar    
  25 C25            4.4330     3.6348    -7.1400 C.ar    
  26 N26            4.8521     4.2842    -8.2817 N.pl3   
  27 C27            3.8197     4.3635    -9.1769 C.2     
  28 C28            3.9022     5.0054   -10.5379 C.3     
  29 C29            2.7233     3.7845    -8.6632 C.2     
  30 C30            3.0819     3.2940    -7.3299 C.ar    
  31 C31            2.3855     2.6143    -6.3270 C.ar    
  32 F32            1.0896     2.2780    -6.5075 F       
  33 C33            1.7080    -0.4678    -3.1883 C.ar    
  34 C34            1.1566     0.1431    -2.0548 C.ar    
  35 H35            1.1723     1.7143     0.0553 H       
  36 H36           -0.4074     1.8150    -0.7587 H       
  37 H37           -0.3249     1.7362     1.0176 H       
  38 H38           -0.5512    -4.4369    -1.2909 H       
  39 H39            1.0264    -4.5452    -0.4739 H       
  40 H40           -0.1166    -4.6015     1.7259 H       
  41 H41           -1.6942    -4.4932     0.9089 H       
  42 H42           -1.2254    -6.6192    -0.2783 H       
  43 H43            0.3522    -6.7275     0.5387 H       
  44 H44           -2.9243    -5.7037     2.2865 H       
  45 H45           -3.1826    -6.6874     0.8091 H       
  46 H46           -3.2313    -7.6034     3.7385 H       
  47 H47           -4.4270    -7.9454     2.4451 H       
  48 H48           -2.3360    -9.6764     3.1094 H       
  49 H49           -3.0913    -9.6128     1.4882 H       
  50 H50           -1.1544    -8.7589     0.6111 H       
  51 H51           -0.3896    -8.8589     2.2225 H       
  52 H52            1.0668    -3.7258    -2.3832 H       
  53 H53            3.1584    -2.1732    -6.2201 H       
  54 H54            4.8643     2.3691    -4.0407 H       
  55 H55            6.1022     3.5536    -5.7947 H       
  56 H56            5.7452     4.6331    -8.4285 H       
  57 H57            4.2064     4.2604   -11.2731 H       
  58 H58            2.9260     5.4069   -10.8099 H       
  59 H59            4.6337     5.8131   -10.5149 H       
  60 H60            1.7590     3.6973    -9.1418 H       
  61 H61            1.1739     1.2184    -1.9555 H       
@<TRIPOS>BOND
   1    1    2 1
   2    1   35 1
   3    1   36 1
   4    1   37 1
   5    2    3 1
   6    3   34 ar
   7    3    4 ar
   8    4    5 1
   9    4   15 ar
  10    5    6 1
  11    6    7 1
  12    6   38 1
  13    6   39 1
  14    7    8 1
  15    7   40 1
  16    7   41 1
  17    8    9 1
  18    8   42 1
  19    8   43 1
  20    9   10 1
  21    9   14 1
  22    9   11 1
  23   11   12 1
  24   11   44 1
  25   11   45 1
  26   12   13 1
  27   12   46 1
  28   12   47 1
  29   13   14 1
  30   13   48 1
  31   13   49 1
  32   14   50 1
  33   14   51 1
  34   15   16 ar
  35   15   52 1
  36   16   33 ar
  37   16   17 ar
  38   17   18 ar
  39   18   19 ar
  40   18   53 1
  41   19   20 ar
  42   20   21 1
  43   20   33 ar
  44   21   22 1
  45   22   31 ar
  46   22   23 ar
  47   23   24 ar
  48   23   54 1
  49   24   25 ar
  50   24   55 1
  51   25   30 ar
  52   25   26 1
  53   26   27 1
  54   26   56 1
  55   27   28 1
  56   27   29 2
  57   28   57 1
  58   28   58 1
  59   28   59 1
  60   29   30 1
  61   29   60 1
  62   30   31 ar
  63   31   32 1
  64   33   34 ar
  65   34   61 1
