@<TRIPOS>MOLECULE
ZINC000000006163
  30   31    0    0    0
SMALL
USER_CHARGES
NO_NAME
@<TRIPOS>ATOM
    1 N1       -0.0116     1.0048     0.0076 N.4    1 <0>      -0.6400
    2 H2        0.0021    -0.0041     0.0020 H      1 <0>       0.4400
    3 H3        0.9350     1.3541     0.0004 H      1 <0>       0.4300
    4 H4       -0.4996     1.3391    -0.8099 H      1 <0>       0.4300
    5 C5       -0.6992     1.4786     1.2162 C.3    1 <0>       0.0900
    6 H6       -0.1720     1.1175     2.0992 H      1 <0>       0.1600
    7 C7       -0.7199     3.0084     1.2246 C.3    1 <0>      -0.0800
    8 C8        0.6896     3.5293     1.3378 C.ar   1 <0>       0.0700
    9 C9        1.1651     4.4227     0.3969 C.ar   1 <0>      -0.1700
   10 C10       2.4635     4.8963     0.5104 C.ar   1 <0>      -0.0700
   11 C11       3.2378     4.4514     1.5707 C.ar   1 <0>      -0.1500
   12 C12       2.6939     3.5568     2.4731 C.ar   1 <0>       0.1100
   13 N13       1.4533     3.1314     2.3367 N.ar   1 <0>      -0.4800
   14 C14      -2.1130     0.9569     1.2269 C.ar   1 <0>      -0.1500
   15 C15      -2.8427     0.9138     0.0536 C.ar   1 <0>      -0.1200
   16 C16      -4.1395     0.4353     0.0634 C.ar   1 <0>      -0.1100
   17 C17      -4.7066    -0.0004     1.2464 C.ar   1 <0>      -0.0900
   18 C18      -3.9766     0.0419     2.4195 C.ar   1 <0>      -0.1100
   19 C19      -2.6782     0.5163     2.4089 C.ar   1 <0>      -0.0800
   20 H20      -1.1680     3.3708     0.2994 H      1 <0>       0.1000
   21 H21      -1.3062     3.3592     2.0739 H      1 <0>       0.1300
   22 H22       0.5337     4.7477    -0.4167 H      1 <0>       0.1400
   23 H23       2.8621     5.5950    -0.2103 H      1 <0>       0.1400
   24 H24       4.2534     4.7990     1.6899 H      1 <0>       0.1500
   25 H25       3.2907     3.2050     3.3017 H      1 <0>       0.1700
   26 H26      -2.3997     1.2542    -0.8707 H      1 <0>       0.1200
   27 H27      -4.7099     0.4023    -0.8531 H      1 <0>       0.1400
   28 H28      -5.7200    -0.3736     1.2542 H      1 <0>       0.1400
   29 H29      -4.4197    -0.2983     3.3438 H      1 <0>       0.1400
   30 H30      -2.1079     0.5494     3.3255 H      1 <0>       0.1400
@<TRIPOS>BOND
   1    1    2 1
   2    1    3 1
   3    1    4 1
   4    1    5 1
   5    5    6 1
   6    5    7 1
   7    5   14 1
   8    7    8 1
   9    7   20 1
  10    7   21 1
  11    8   13 ar
  12    8    9 ar
  13    9   10 ar
  14    9   22 1
  15   10   11 ar
  16   10   23 1
  17   11   12 ar
  18   11   24 1
  19   12   13 ar
  20   12   25 1
  21   14   19 ar
  22   14   15 ar
  23   15   16 ar
  24   15   26 1
  25   16   17 ar
  26   16   27 1
  27   17   18 ar
  28   17   28 1
  29   18   19 ar
  30   18   29 1
  31   19   30 1
