@<TRIPOS>MOLECULE
ZINC000043208702
  53   54    0    0    0
SMALL
USER_CHARGES
NO_NAME
@<TRIPOS>ATOM
    1 O1       -1.1951    -2.0689    -1.8251 O.co2  1 <0>      -0.7000
    2 C2       -1.9709    -2.1713    -2.7601 C.2    1 <0>       0.4900
    3 O3       -1.6647    -2.8343    -3.7364 O.co2  1 <0>      -0.7100
    4 C4       -3.3107    -1.4836    -2.7064 C.3    1 <0>      -0.1800
    5 C5       -3.4448    -0.7308    -1.3811 C.3    1 <0>      -0.0900
    6 C6       -4.8051    -0.0326    -1.3266 C.3    1 <0>      -0.1200
    7 C7       -4.9391     0.7202    -0.0013 C.3    1 <0>      -0.1100
    8 C8       -6.2385     1.5279    -0.0028 C.3    1 <0>      -0.0500
    9 H9       -6.2661     2.1702    -0.8830 H      1 <0>       0.0900
   10 C10      -7.4331     0.5723    -0.0312 C.3    1 <0>      -0.0900
   11 C11      -8.7276     1.3778    -0.1584 C.3    1 <0>      -0.0900
   12 S12     -10.1439     0.2448    -0.1921 S.3    1 <0>      -0.2500
   13 C13     -11.5609     1.3671    -0.3439 C.3    1 <0>      -0.0500
   14 C14     -12.8355     0.5642    -0.3856 C.ar   1 <0>      -0.0700
   15 C15     -13.3387     0.1287    -1.5972 C.ar   1 <0>      -0.1000
   16 C16     -14.5079    -0.6078    -1.6354 C.ar   1 <0>      -0.1200
   17 C17     -15.1736    -0.9092    -0.4620 C.ar   1 <0>      -0.1200
   18 C18     -14.6699    -0.4744     0.7497 C.ar   1 <0>      -0.1200
   19 C19     -13.4984     0.2585     0.7883 C.ar   1 <0>      -0.1000
   20 S20      -6.3171     2.5497     1.4940 S.3    1 <0>      -0.2500
   21 C21      -4.9862     3.7549     1.2356 C.3    1 <0>      -0.0500
   22 C22      -5.0017     4.7674     2.3517 C.ar   1 <0>      -0.0700
   23 C23      -5.7596     5.9172     2.2314 C.ar   1 <0>      -0.1000
   24 C24      -5.7739     6.8460     3.2551 C.ar   1 <0>      -0.1200
   25 C25      -5.0306     6.6247     4.3994 C.ar   1 <0>      -0.1200
   26 C26      -4.2734     5.4745     4.5202 C.ar   1 <0>      -0.1200
   27 C27      -4.2625     4.5437     3.4982 C.ar   1 <0>      -0.1000
   28 H28      -3.3909    -0.7790    -3.5342 H      1 <0>       0.0500
   29 H29      -4.1041    -2.2270    -2.7838 H      1 <0>       0.0600
   30 H30      -3.3646    -1.4354    -0.5533 H      1 <0>       0.0600
   31 H31      -2.6514     0.0126    -1.3037 H      1 <0>       0.0600
   32 H32      -4.8853     0.6720    -2.1544 H      1 <0>       0.0600
   33 H33      -5.5984    -0.7760    -1.4040 H      1 <0>       0.0600
   34 H34      -4.9562     0.0061     0.8220 H      1 <0>       0.0800
   35 H35      -4.0919     1.3951     0.1205 H      1 <0>       0.0600
   36 H36      -7.3392    -0.1014    -0.8829 H      1 <0>       0.0900
   37 H37      -7.4557    -0.0085     0.8909 H      1 <0>       0.0800
   38 H38      -8.8215     2.0515     0.6932 H      1 <0>       0.0900
   39 H39      -8.7050     1.9586    -1.0805 H      1 <0>       0.0800
   40 H40     -11.5839     2.0412     0.5124 H      1 <0>       0.0900
   41 H41     -11.4674     1.9483    -1.2613 H      1 <0>       0.0900
   42 H42     -12.8186     0.3641    -2.5139 H      1 <0>       0.1200
   43 H43     -14.9014    -0.9475    -2.5820 H      1 <0>       0.1200
   44 H44     -16.0874    -1.4840    -0.4919 H      1 <0>       0.1200
   45 H45     -15.1902    -0.7095     1.6664 H      1 <0>       0.1200
   46 H46     -13.1049     0.5981     1.7349 H      1 <0>       0.1200
   47 H47      -4.0259     3.2393     1.2261 H      1 <0>       0.0900
   48 H48      -5.1355     4.2624     0.2826 H      1 <0>       0.0900
   49 H49      -6.3403     6.0901     1.3373 H      1 <0>       0.1200
   50 H50      -6.3654     7.7446     3.1608 H      1 <0>       0.1200
   51 H51      -5.0412     7.3507     5.1990 H      1 <0>       0.1200
   52 H52      -3.6924     5.3018     5.4141 H      1 <0>       0.1200
   53 H53      -3.6710     3.6451     3.5925 H      1 <0>       0.1300
@<TRIPOS>BOND
   1    1    2 ar
   2    2    3 ar
   3    2    4 1
   4    4    5 1
   5    4   28 1
   6    4   29 1
   7    5    6 1
   8    5   30 1
   9    5   31 1
  10    6    7 1
  11    6   32 1
  12    6   33 1
  13    7    8 1
  14    7   34 1
  15    7   35 1
  16    8    9 1
  17    8   10 1
  18    8   20 1
  19   10   11 1
  20   10   36 1
  21   10   37 1
  22   11   12 1
  23   11   38 1
  24   11   39 1
  25   12   13 1
  26   13   14 1
  27   13   40 1
  28   13   41 1
  29   14   19 ar
  30   14   15 ar
  31   15   16 ar
  32   15   42 1
  33   16   17 ar
  34   16   43 1
  35   17   18 ar
  36   17   44 1
  37   18   19 ar
  38   18   45 1
  39   19   46 1
  40   20   21 1
  41   21   22 1
  42   21   47 1
  43   21   48 1
  44   22   27 ar
  45   22   23 ar
  46   23   24 ar
  47   23   49 1
  48   24   25 ar
  49   24   50 1
  50   25   26 ar
  51   25   51 1
  52   26   27 ar
  53   26   52 1
  54   27   53 1
