@<TRIPOS>MOLECULE
ZINC000003824412
44    46    1     0     0
SMALL
USER_CHARGES
@<TRIPOS>ATOM
1      C1     -0.0187    1.5258    0.0104 C.3      1 ZINC000003824412   -0.1700
2      C2      0.0021   -0.0041    0.0020 C.3      1 ZINC000003824412    0.1300
3      C3      0.7421   -0.5109    1.2415 C.3      1 ZINC000003824412   -0.1800
4      N4     -1.3723   -0.5112    0.0124 N.pl3    1 ZINC000003824412   -0.6600
5      C5     -1.6495   -1.7627   -0.4965 C.cat    1 ZINC000003824412    0.6700
6      N6     -0.7629   -2.5808   -1.0061 N.pl3    1 ZINC000003824412   -0.5300
7      H7      0.1868   -2.3988   -1.0824 H        1 ZINC000003824412    0.4600
8      C8     -1.3764   -3.7243   -1.4113 C.ar     1 ZINC000003824412    0.0800
9      C9     -0.9162   -4.8996   -2.0091 C.ar     1 ZINC000003824412   -0.0600
10     C10    -1.8056   -5.9086   -2.3094 C.ar     1 ZINC000003824412   -0.0100
11     Cl11   -1.2332   -7.3695   -3.0524 Cl       1 ZINC000003824412    0.0000
12     C12    -3.1564   -5.7650   -2.0214 C.ar     1 ZINC000003824412    0.0000
13     Cl13   -4.2618   -7.0471   -2.4065 Cl       1 ZINC000003824412    0.0000
14     C14    -3.6256   -4.6088   -1.4301 C.ar     1 ZINC000003824412   -0.0600
15     C15    -2.7439   -3.5841   -1.1225 C.ar     1 ZINC000003824412    0.1100
16     N16    -2.8883   -2.3357   -0.5386 N.pl3    1 ZINC000003824412   -0.4700
17     C17    -4.1376   -1.7406   -0.0577 C.3      1 ZINC000003824412    0.3000
18     H18    -4.0125   -0.6686    0.0947 H        1 ZINC000003824412    0.1300
19     O19    -5.2081   -1.9939   -0.9935 O.3      1 ZINC000003824412   -0.3400
20     C20    -6.4250   -1.8281   -0.2336 C.3      1 ZINC000003824412    0.0500
21     H21    -6.6520   -0.7696   -0.1067 H        1 ZINC000003824412    0.1100
22     C22    -7.5873   -2.5417   -0.9270 C.3      1 ZINC000003824412    0.0800
23     O23    -7.8720   -1.8931   -2.1681 O.3      1 ZINC000003824412   -0.5600
24     C24    -6.1284   -2.4822    1.1341 C.3      1 ZINC000003824412    0.0500
25     H25    -6.4731   -3.5162    1.1457 H        1 ZINC000003824412    0.1000
26     O26    -6.7433   -1.7390    2.1884 O.3      1 ZINC000003824412   -0.5400
27     C27    -4.5875   -2.4213    1.2541 C.3      1 ZINC000003824412    0.0800
28     H28    -4.1698   -3.4257    1.3243 H        1 ZINC000003824412    0.1000
29     O29    -4.2040   -1.6406    2.3879 O.3      1 ZINC000003824412   -0.5400
30     H30     1.0039    1.9031    0.0027 H        1 ZINC000003824412    0.1000
31     H31    -0.5459    1.8868   -0.8726 H        1 ZINC000003824412    0.0700
32     H32    -0.5289    1.8773    0.9072 H        1 ZINC000003824412    0.0800
33     H33     0.5123   -0.3556   -0.8948 H        1 ZINC000003824412    0.1000
34     H34     0.7568   -1.6008    1.2356 H        1 ZINC000003824412    0.0600
35     H35     1.7647   -0.1336    1.2338 H        1 ZINC000003824412    0.0900
36     H36     0.2319   -0.1594    2.1383 H        1 ZINC000003824412    0.0800
37     H37    -2.0874    0.0333    0.3772 H        1 ZINC000003824412    0.4400
38     H38     0.1332   -5.0173   -2.2355 H        1 ZINC000003824412    0.1700
39     H39    -4.6772   -4.5026   -1.2084 H        1 ZINC000003824412    0.1600
40     H40    -7.3163   -3.5808   -1.1138 H        1 ZINC000003824412    0.0600
41     H41    -8.4693   -2.5056   -0.2875 H        1 ZINC000003824412    0.0700
42     H42    -8.6000   -2.2933   -2.6631 H        1 ZINC000003824412    0.3900
43     H43    -7.7073   -1.6944    2.1279 H        1 ZINC000003824412    0.4000
44     H44    -4.5143   -1.9948    3.2325 H        1 ZINC000003824412    0.4100
@<TRIPOS>BOND
1     1     2     1
2     1     30    1
3     1     31    1
4     1     32    1
5     2     3     1
6     2     4     1
7     2     33    1
8     3     34    1
9     3     35    1
10    3     36    1
11    4     5     ar
12    4     37    1
13    5     16    ar
14    5     6     ar
15    6     7     1
16    6     8     1
17    8     15    ar
18    8     9     ar
19    9     10    ar
20    9     38    1
21    10    11    1
22    10    12    ar
23    12    13    1
24    12    14    ar
25    14    15    ar
26    14    39    1
27    15    16    1
28    16    17    1
29    17    18    1
30    17    27    1
31    17    19    1
32    19    20    1
33    20    21    1
34    20    22    1
35    20    24    1
36    22    23    1
37    22    40    1
38    22    41    1
39    23    42    1
40    24    25    1
41    24    26    1
42    24    27    1
43    26    43    1
44    27    28    1
45    27    29    1
46    29    44    1
@<TRIPOS>SUBSTRUCTURE
1   ZINC000003824412 1     RESIDUE    1   A     ZIN   1
