@<TRIPOS>MOLECULE
ZINC000036126689
81    84    1     0     0
SMALL
USER_CHARGES
@<TRIPOS>ATOM
1      C1      1.5224    0.0008    0.7883 C.3      1 ZINC000036126689   -0.1700
2      C2      1.3877   -1.4978    1.0660 C.3      1 ZINC000036126689    0.1000
3      N3      0.0025   -1.9147    0.8346 N.am     1 ZINC000036126689   -0.6100
4      C4     -0.3793   -2.3361   -0.3874 C.2      1 ZINC000036126689    0.5200
5      O5     -1.5260   -2.6812   -0.5790 O.2      1 ZINC000036126689   -0.5100
6      C6      0.6189   -2.3785   -1.5157 C.3      1 ZINC000036126689   -0.1100
7      C7     -0.0564   -2.8825   -2.7651 C.ar     1 ZINC000036126689   -0.0100
8      C8     -0.0826   -4.2374   -3.0379 C.ar     1 ZINC000036126689   -0.1300
9      C9     -0.7020   -4.6998   -4.1840 C.ar     1 ZINC000036126689   -0.0200
10     C10    -1.2956   -3.8073   -5.0569 C.ar     1 ZINC000036126689   -0.6600
11     S11    -2.0846   -4.3966   -6.5180 S.o2     1 ZINC000036126689    2.5000
12     C12    -3.8017   -4.6967   -6.0156 C.3      1 ZINC000036126689   -0.6500
13     O13    -2.0133   -3.3016   -7.4208 O.2      1 ZINC000036126689   -0.9400
14     O14    -1.4263   -5.6237   -6.8012 O.2      1 ZINC000036126689   -0.9400
15     C15    -1.2706   -2.4525   -4.7834 C.ar     1 ZINC000036126689   -0.0200
16     C16    -0.6545   -1.9905   -3.6354 C.ar     1 ZINC000036126689   -0.1300
17     C17    -0.9678   -1.8735    1.9314 C.3      1 ZINC000036126689    0.1500
18     C18    -2.1237   -0.9414    1.5574 C.3      1 ZINC000036126689   -0.1300
19     C19    -3.1632   -0.9498    2.6805 C.3      1 ZINC000036126689    0.0600
20     N20    -3.6588   -2.3175    2.8803 N.3      1 ZINC000036126689   -0.5300
21     C21    -4.7575   -2.3422    3.8551 C.3      1 ZINC000036126689    0.0600
22     C22    -5.0794   -3.7917    4.2242 C.3      1 ZINC000036126689   -0.1200
23     C23    -6.2238   -3.8174    5.2394 C.3      1 ZINC000036126689   -0.0100
24     H24    -5.9622   -3.1982    6.0975 H        1 ZINC000036126689    0.1000
25     C25    -6.4590   -5.2343    5.6954 C.ar     1 ZINC000036126689   -0.0200
26     C26    -6.6385   -6.2395    4.7636 C.ar     1 ZINC000036126689   -0.1300
27     C27    -6.8543   -7.5393    5.1819 C.ar     1 ZINC000036126689   -0.0200
28     C28    -6.8901   -7.8339    6.5320 C.ar     1 ZINC000036126689   -0.6600
29     S29    -7.1658   -9.4905    7.0652 S.o2     1 ZINC000036126689    2.5000
30     C30    -5.5048  -10.2101    7.1840 C.3      1 ZINC000036126689   -0.6500
31     O31    -7.7426   -9.3517    8.3564 O.2      1 ZINC000036126689   -0.9400
32     O32    -7.8919  -10.0857    5.9986 O.2      1 ZINC000036126689   -0.9400
33     C33    -6.7093   -6.8289    7.4638 C.ar     1 ZINC000036126689   -0.0200
34     C34    -6.4897   -5.5298    7.0455 C.ar     1 ZINC000036126689   -0.1300
35     C35    -7.4773   -3.2818    4.5969 C.ar     1 ZINC000036126689   -0.0200
36     C36    -7.9166   -3.8071    3.3964 C.ar     1 ZINC000036126689   -0.1600
37     C37    -9.0684   -3.3157    2.8052 C.ar     1 ZINC000036126689    0.1400
38     F38    -9.4976   -3.8295    1.6317 F        1 ZINC000036126689   -0.1300
39     C39    -9.7800   -2.2984    3.4172 C.ar     1 ZINC000036126689   -0.1900
40     C40    -9.3393   -1.7733    4.6197 C.ar     1 ZINC000036126689    0.1400
41     F41   -10.0328   -0.7803    5.2181 F        1 ZINC000036126689   -0.1300
42     C42    -8.1899   -2.2695    5.2115 C.ar     1 ZINC000036126689   -0.1600
43     C43    -2.5747   -3.2211    3.2864 C.3      1 ZINC000036126689    0.0500
44     C44    -1.5176   -3.2805    2.1813 C.3      1 ZINC000036126689   -0.1300
45     H45     2.5531    0.3110    0.9605 H        1 ZINC000036126689    0.0700
46     H46     1.2499    0.2044   -0.2473 H        1 ZINC000036126689    0.0600
47     H47     0.8603    0.5546    1.4539 H        1 ZINC000036126689    0.0600
48     H48     2.0498   -2.0516    0.4004 H        1 ZINC000036126689    0.0800
49     H49     1.6602   -1.7013    2.1015 H        1 ZINC000036126689    0.0800
50     H50     1.0097   -1.3765   -1.6929 H        1 ZINC000036126689    0.1100
51     H51     1.4384   -3.0465   -1.2508 H        1 ZINC000036126689    0.1100
52     H52     0.3811   -4.9347   -2.3559 H        1 ZINC000036126689    0.1300
53     H53    -0.7219   -5.7583   -4.3975 H        1 ZINC000036126689    0.1400
54     H54    -4.2445   -3.7658   -5.6612 H        1 ZINC000036126689    0.1300
55     H55    -4.3702   -5.0679   -6.8683 H        1 ZINC000036126689    0.1300
56     H56    -3.8221   -5.4365   -5.2154 H        1 ZINC000036126689    0.1300
57     H57    -1.7346   -1.7553   -5.4652 H        1 ZINC000036126689    0.1400
58     H58    -0.6349   -0.9320   -3.4216 H        1 ZINC000036126689    0.1300
59     H59    -0.4808   -1.5068    2.8350 H        1 ZINC000036126689    0.0800
60     H60    -1.7446    0.0713    1.4198 H        1 ZINC000036126689    0.0600
61     H61    -2.5848   -1.2868    0.6321 H        1 ZINC000036126689    0.1000
62     H62    -2.7049   -0.5912    3.6022 H        1 ZINC000036126689    0.0300
63     H63    -3.9943   -0.2981    2.4109 H        1 ZINC000036126689    0.0800
64     H64    -4.4609   -1.7965    4.7508 H        1 ZINC000036126689    0.0400
65     H65    -5.6401   -1.8736    3.4197 H        1 ZINC000036126689    0.0800
66     H66    -5.3760   -4.3374    3.3284 H        1 ZINC000036126689    0.0800
67     H67    -4.1968   -4.2603    4.6596 H        1 ZINC000036126689    0.0800
68     H68    -6.6105   -6.0093    3.7088 H        1 ZINC000036126689    0.1300
69     H69    -6.9952   -8.3245    4.4539 H        1 ZINC000036126689    0.1400
70     H70    -4.9142   -9.6438    7.9041 H        1 ZINC000036126689    0.1300
71     H71    -5.5806  -11.2469    7.5116 H        1 ZINC000036126689    0.1300
72     H72    -5.0216  -10.1719    6.2077 H        1 ZINC000036126689    0.1300
73     H73    -6.7369   -7.0592    8.5186 H        1 ZINC000036126689    0.1400
74     H74    -6.3484   -4.7447    7.7734 H        1 ZINC000036126689    0.1300
75     H75    -7.3613   -4.6009    2.9191 H        1 ZINC000036126689    0.1400
76     H76   -10.6782   -1.9143    2.9566 H        1 ZINC000036126689    0.1500
77     H77    -7.8461   -1.8603    6.1500 H        1 ZINC000036126689    0.1400
78     H78    -2.1192   -2.8519    4.2052 H        1 ZINC000036126689    0.0300
79     H79    -2.9784   -4.2191    3.4569 H        1 ZINC000036126689    0.0800
80     H80    -1.9692   -3.6627    1.2659 H        1 ZINC000036126689    0.1000
81     H81    -0.7056   -3.9391    2.4896 H        1 ZINC000036126689    0.0600
@<TRIPOS>BOND
1     1     2     1
2     1     45    1
3     1     46    1
4     1     47    1
5     2     3     1
6     2     48    1
7     2     49    1
8     3     4     am
9     3     17    1
10    4     5     2
11    4     6     1
12    6     7     1
13    6     50    1
14    6     51    1
15    7     16    ar
16    7     8     ar
17    8     9     ar
18    8     52    1
19    9     10    ar
20    9     53    1
21    10    11    1
22    10    15    ar
23    11    12    1
24    11    13    2
25    11    14    2
26    12    54    1
27    12    55    1
28    12    56    1
29    15    16    ar
30    15    57    1
31    16    58    1
32    17    44    1
33    17    18    1
34    17    59    1
35    18    19    1
36    18    60    1
37    18    61    1
38    19    20    1
39    19    62    1
40    19    63    1
41    20    21    1
42    20    43    1
43    21    22    1
44    21    64    1
45    21    65    1
46    22    23    1
47    22    66    1
48    22    67    1
49    23    24    1
50    23    25    1
51    23    35    1
52    25    34    ar
53    25    26    ar
54    26    27    ar
55    26    68    1
56    27    28    ar
57    27    69    1
58    28    29    1
59    28    33    ar
60    29    30    1
61    29    31    2
62    29    32    2
63    30    70    1
64    30    71    1
65    30    72    1
66    33    34    ar
67    33    73    1
68    34    74    1
69    35    42    ar
70    35    36    ar
71    36    37    ar
72    36    75    1
73    37    38    1
74    37    39    ar
75    39    40    ar
76    39    76    1
77    40    41    1
78    40    42    ar
79    42    77    1
80    43    44    1
81    43    78    1
82    43    79    1
83    44    80    1
84    44    81    1
@<TRIPOS>SUBSTRUCTURE
1   ZINC000036126689 1     RESIDUE    1   A     ZIN   1
