@<TRIPOS>MOLECULE
ZINC000095926668
63    68    1     0     0
SMALL
USER_CHARGES
@<TRIPOS>ATOM
1      C1     -0.1659    0.4212   -0.1559 C.3      1 ZINC000095926668   -0.1400
2      C2      0.3500   -0.7547    0.6328 C.2      1 ZINC000095926668    0.2100
3      C3      1.3083   -1.5504    0.0928 C.2      1 ZINC000095926668   -0.2400
4      C4      1.7967   -2.6428    0.8093 C.2      1 ZINC000095926668    0.0800
5      C5      1.2861   -2.8993    2.0806 C.2      1 ZINC000095926668   -0.2900
6      C6      1.7759   -4.0412    2.8671 C.2      1 ZINC000095926668    0.5900
7      O7      2.7202   -4.6954    2.4665 O.2      1 ZINC000095926668   -0.5300
8      N8      1.1789   -4.3629    4.0318 N.am     1 ZINC000095926668   -0.6600
9      C9      1.7118   -5.3789    4.8345 C.ar     1 ZINC000095926668    0.1800
10     C10     2.2513   -6.5159    4.2483 C.ar     1 ZINC000095926668   -0.1100
11     C11     2.7772   -7.5186    5.0398 C.ar     1 ZINC000095926668   -0.0700
12     C12     2.7668   -7.3904    6.4203 C.ar     1 ZINC000095926668    0.0400
13     O13     3.2844   -8.3782    7.1987 O.3      1 ZINC000095926668   -0.2400
14     C14     2.4265   -9.1020    7.9657 C.ar     1 ZINC000095926668    0.0900
15     C15     2.9311  -10.0379    8.8824 C.ar     1 ZINC000095926668    0.0400
16     C16     4.3971  -10.2317    9.0091 C.2      1 ZINC000095926668   -0.2000
17     C17     5.1125  -10.2360   10.1712 C.2      1 ZINC000095926668    0.0800
18     N18     6.4067  -10.4430    9.8525 N.pl3    1 ZINC000095926668   -0.4700
19     N19     6.4998  -10.5705    8.4614 N.2      1 ZINC000095926668   -0.2900
20     C20     5.3022  -10.4509    7.9522 C.2      1 ZINC000095926668    0.0900
21     C21     2.0657  -10.7816    9.6704 C.ar     1 ZINC000095926668   -0.1000
22     C22     0.6930  -10.5973    9.5496 C.ar     1 ZINC000095926668    0.1100
23     C23     0.1912   -9.6573    8.6286 C.ar     1 ZINC000095926668   -0.1500
24     C24     1.0795   -8.9096    7.8430 C.ar     1 ZINC000095926668   -0.1200
25     C25    -1.2204   -9.6944    8.7321 C.2      1 ZINC000095926668    0.0700
26     N26    -1.5502  -10.5747    9.6322 N.2      1 ZINC000095926668   -0.2500
27     N27    -0.3967  -11.1609   10.1671 N.pl3    1 ZINC000095926668   -0.4000
28     C28    -0.3587  -12.1954   11.2038 C.3      1 ZINC000095926668    0.1100
29     C29     2.2280   -6.2525    7.0088 C.ar     1 ZINC000095926668    0.1000
30     F30     2.2183   -6.1274    8.3540 F        1 ZINC000095926668   -0.1200
31     C31     1.7060   -5.2469    6.2172 C.ar     1 ZINC000095926668   -0.1700
32     C32     0.2860   -2.0394    2.6027 C.2      1 ZINC000095926668    0.5400
33     O33    -0.1766   -2.2425    3.7120 O.2      1 ZINC000095926668   -0.5300
34     N34    -0.1475   -0.9954    1.8710 N.am     1 ZINC000095926668   -0.4400
35     C35    -1.1350   -0.1504    2.3933 C.ar     1 ZINC000095926668    0.0800
36     C36    -0.7727    0.9781    3.1171 C.ar     1 ZINC000095926668   -0.0600
37     C37    -1.7478    1.8099    3.6312 C.ar     1 ZINC000095926668   -0.1400
38     C38    -3.0862    1.5191    3.4259 C.ar     1 ZINC000095926668    0.1200
39     F39    -4.0386    2.3341    3.9297 F        1 ZINC000095926668   -0.1300
40     C40    -3.4496    0.3942    2.7043 C.ar     1 ZINC000095926668   -0.1400
41     C41    -2.4775   -0.4368    2.1833 C.ar     1 ZINC000095926668   -0.0700
42     H42     0.3682    1.3227    0.1446 H        1 ZINC000095926668    0.1000
43     H43    -0.0079    0.2428   -1.2195 H        1 ZINC000095926668    0.1000
44     H44    -1.2311    0.5488    0.0368 H        1 ZINC000095926668    0.0900
45     H45     1.6930   -1.3373   -0.8936 H        1 ZINC000095926668    0.1600
46     H46     2.5585   -3.2803    0.3854 H        1 ZINC000095926668    0.1600
47     H47     0.3800   -3.8906    4.3140 H        1 ZINC000095926668    0.4300
48     H48     2.2594   -6.6168    3.1730 H        1 ZINC000095926668    0.1500
49     H49     3.1963   -8.4030    4.5831 H        1 ZINC000095926668    0.1500
50     H50     4.7146  -10.0980   11.1657 H        1 ZINC000095926668    0.1800
51     H51     7.1454  -10.4946   10.4791 H        1 ZINC000095926668    0.4400
52     H52     5.0511  -10.5042    6.9032 H        1 ZINC000095926668    0.1900
53     H53     2.4564  -11.5012   10.3747 H        1 ZINC000095926668    0.1300
54     H54     0.6990   -8.1875    7.1357 H        1 ZINC000095926668    0.1300
55     H55    -1.9095   -9.0919    8.1590 H        1 ZINC000095926668    0.1900
56     H56    -0.3834  -13.1796   10.7361 H        1 ZINC000095926668    0.0700
57     H57     0.5569  -12.0927   11.7862 H        1 ZINC000095926668    0.0800
58     H58    -1.2215  -12.0835   11.8605 H        1 ZINC000095926668    0.0900
59     H59     1.2874   -4.3621    6.6737 H        1 ZINC000095926668    0.1500
60     H60     0.2709    1.2048    3.2781 H        1 ZINC000095926668    0.1400
61     H61    -1.4664    2.6876    4.1941 H        1 ZINC000095926668    0.1500
62     H62    -4.4938    0.1690    2.5456 H        1 ZINC000095926668    0.1500
63     H63    -2.7613   -1.3140    1.6207 H        1 ZINC000095926668    0.1400
@<TRIPOS>BOND
1     1     2     1
2     1     42    1
3     1     43    1
4     1     44    1
5     2     34    1
6     2     3     2
7     3     4     1
8     3     45    1
9     4     5     2
10    4     46    1
11    5     6     1
12    5     32    1
13    6     7     2
14    6     8     am
15    8     9     1
16    8     47    1
17    9     31    ar
18    9     10    ar
19    10    11    ar
20    10    48    1
21    11    12    ar
22    11    49    1
23    12    13    1
24    12    29    ar
25    13    14    1
26    14    24    ar
27    14    15    ar
28    15    16    1
29    15    21    ar
30    16    20    1
31    16    17    2
32    17    18    1
33    17    50    1
34    18    19    1
35    18    51    1
36    19    20    2
37    20    52    1
38    21    22    ar
39    21    53    1
40    22    27    1
41    22    23    ar
42    23    24    ar
43    23    25    1
44    24    54    1
45    25    26    2
46    25    55    1
47    26    27    1
48    27    28    1
49    28    56    1
50    28    57    1
51    28    58    1
52    29    30    1
53    29    31    ar
54    31    59    1
55    32    33    2
56    32    34    am
57    34    35    1
58    35    41    ar
59    35    36    ar
60    36    37    ar
61    36    60    1
62    37    38    ar
63    37    61    1
64    38    39    1
65    38    40    ar
66    40    41    ar
67    40    62    1
68    41    63    1
@<TRIPOS>SUBSTRUCTURE
1   ZINC000095926668 1     RESIDUE    1   A     ZIN   1
