@<TRIPOS>MOLECULE
ZINC000034892269
42    44    1     0     0
SMALL
USER_CHARGES
@<TRIPOS>ATOM
1      N1     -0.0162    1.3436    0.0094 N.am     1 ZINC000034892269   -0.8600
2      C2      0.0021   -0.0041    0.0020 C.2      1 ZINC000034892269    0.5200
3      O3      1.0605   -0.5961   -0.0113 O.2      1 ZINC000034892269   -0.5200
4      C4     -1.2926   -0.7753    0.0102 C.3      1 ZINC000034892269    0.0500
5      H5     -2.0242   -0.3033   -0.6457 H        1 ZINC000034892269    0.0700
6      C6     -1.8480   -0.8960    1.4516 C.3      1 ZINC000034892269   -0.1100
7      C7     -2.7351   -2.1599    1.3755 C.3      1 ZINC000034892269   -0.1200
8      C8     -2.2045   -2.9514    0.1658 C.3      1 ZINC000034892269    0.1200
9      H9     -2.9863   -3.0464   -0.5877 H        1 ZINC000034892269    0.0600
10     C10    -1.7482   -4.3183    0.6069 C.ar     1 ZINC000034892269   -0.1100
11     C11    -0.5121   -4.4730    1.2069 C.ar     1 ZINC000034892269   -0.0400
12     C12    -0.0916   -5.7249    1.6121 C.ar     1 ZINC000034892269   -0.1500
13     C13    -0.9108   -6.8274    1.4170 C.ar     1 ZINC000034892269    0.1300
14     O14    -0.4995   -8.0600    1.8152 O.3      1 ZINC000034892269   -0.3100
15     C15    -1.3948   -9.1492    1.5826 C.3      1 ZINC000034892269    0.1100
16     C16    -0.7734  -10.4265    2.0859 C.ar     1 ZINC000034892269   -0.1300
17     C17     0.4788  -10.4027    2.6697 C.ar     1 ZINC000034892269   -0.0700
18     C18     1.0492  -11.5745    3.1315 C.ar     1 ZINC000034892269   -0.1300
19     C19     0.3680  -12.7710    3.0094 C.ar     1 ZINC000034892269   -0.0900
20     C20    -0.8845  -12.7973    2.4253 C.ar     1 ZINC000034892269   -0.1500
21     C21    -1.4594  -11.6237    1.9685 C.ar     1 ZINC000034892269    0.1000
22     F22    -2.6835  -11.6482    1.3975 F        1 ZINC000034892269   -0.1400
23     C23    -2.1508   -6.6695    0.8152 C.ar     1 ZINC000034892269   -0.2100
24     C24    -2.5687   -5.4147    0.4161 C.ar     1 ZINC000034892269   -0.0800
25     N25    -1.0642   -2.1874   -0.3895 N.3      1 ZINC000034892269   -0.6400
26     H26     0.8172    1.8399    0.0041 H        1 ZINC000034892269    0.4000
27     H27    -0.8627    1.8171    0.0160 H        1 ZINC000034892269    0.4000
28     H28    -1.0375   -1.0362    2.1668 H        1 ZINC000034892269    0.0800
29     H29    -2.4446   -0.0210    1.7096 H        1 ZINC000034892269    0.0800
30     H30    -2.6336   -2.7488    2.2870 H        1 ZINC000034892269    0.0800
31     H31    -3.7772   -1.8817    1.2179 H        1 ZINC000034892269    0.0700
32     H32     0.1252   -3.6144    1.3586 H        1 ZINC000034892269    0.1400
33     H33     0.8743   -5.8453    2.0801 H        1 ZINC000034892269    0.1300
34     H34    -2.3315   -8.9685    2.1098 H        1 ZINC000034892269    0.0800
35     H35    -1.5904   -9.2368    0.5139 H        1 ZINC000034892269    0.0800
36     H36     1.0122   -9.4685    2.7650 H        1 ZINC000034892269    0.1400
37     H37     2.0279  -11.5549    3.5877 H        1 ZINC000034892269    0.1300
38     H38     0.8147  -13.6857    3.3701 H        1 ZINC000034892269    0.1400
39     H39    -1.4163  -13.7324    2.3294 H        1 ZINC000034892269    0.1400
40     H40    -2.7902   -7.5262    0.6619 H        1 ZINC000034892269    0.1300
41     H41    -3.5341   -5.2912   -0.0521 H        1 ZINC000034892269    0.1200
42     H42    -1.0208   -2.2810   -1.3932 H        1 ZINC000034892269    0.3500
@<TRIPOS>BOND
1     1     2     am
2     1     26    1
3     1     27    1
4     2     3     2
5     2     4     1
6     4     5     1
7     4     25    1
8     4     6     1
9     6     7     1
10    6     28    1
11    6     29    1
12    7     8     1
13    7     30    1
14    7     31    1
15    8     9     1
16    8     10    1
17    8     25    1
18    10    24    ar
19    10    11    ar
20    11    12    ar
21    11    32    1
22    12    13    ar
23    12    33    1
24    13    14    1
25    13    23    ar
26    14    15    1
27    15    16    1
28    15    34    1
29    15    35    1
30    16    21    ar
31    16    17    ar
32    17    18    ar
33    17    36    1
34    18    19    ar
35    18    37    1
36    19    20    ar
37    19    38    1
38    20    21    ar
39    20    39    1
40    21    22    1
41    23    24    ar
42    23    40    1
43    24    41    1
44    25    42    1
@<TRIPOS>SUBSTRUCTURE
1   ZINC000034892269 1     RESIDUE    1   A     ZIN   1
