@<TRIPOS>MOLECULE
ZINC000072284488
58    60    1     0     0
SMALL
USER_CHARGES
@<TRIPOS>ATOM
1      C1     -1.6473    1.4598   -1.5905 C.3      1 ZINC000072284488    0.0200
2      O2     -1.4614    0.1167   -2.0417 O.3      1 ZINC000072284488   -0.3000
3      C3     -0.2252   -0.4251   -1.8749 C.ar     1 ZINC000072284488    0.1200
4      C4      0.7842    0.3177   -1.2848 C.ar     1 ZINC000072284488   -0.1800
5      C5      2.0413   -0.2354   -1.1155 C.ar     1 ZINC000072284488    0.0000
6      Cl6     3.3053    0.6964   -0.3753 Cl       1 ZINC000072284488   -0.0500
7      C7      2.2925   -1.5293   -1.5345 C.ar     1 ZINC000072284488   -0.1200
8      C8      1.2885   -2.2753   -2.1242 C.ar     1 ZINC000072284488   -0.0800
9      C9      1.5655   -3.6851   -2.5791 C.3      1 ZINC000072284488    0.2000
10     H10     0.7356   -4.3299   -2.2898 H        1 ZINC000072284488    0.1000
11     C11     2.8541   -4.1880   -1.9253 C.3      1 ZINC000072284488   -0.1800
12     N12     1.7162   -3.7073   -4.0361 N.pl3    1 ZINC000072284488   -0.7300
13     C13     1.4927   -4.8908   -4.7433 C.ar     1 ZINC000072284488    0.3300
14     C14     1.1223   -6.0445   -4.0673 C.ar     1 ZINC000072284488   -0.2400
15     C15     0.9007   -7.2183   -4.7739 C.ar     1 ZINC000072284488    0.2100
16     N16     0.5272   -8.3817   -4.0973 N.3      1 ZINC000072284488   -0.4900
17     C17    -0.6889   -8.1612   -3.3023 C.3      1 ZINC000072284488    0.0600
18     C18    -1.0187   -9.4324   -2.5163 C.3      1 ZINC000072284488    0.0600
19     N19    -1.2005  -10.5507   -3.4523 N.3      1 ZINC000072284488   -0.6900
20     C20     0.0156  -10.7712   -4.2474 C.3      1 ZINC000072284488    0.0600
21     C21     0.3455   -9.5000   -5.0334 C.3      1 ZINC000072284488    0.0500
22     C22     1.0503   -7.2347   -6.1553 C.ar     1 ZINC000072284488   -0.2400
23     C23     1.4197   -6.0841   -6.8254 C.ar     1 ZINC000072284488    0.0500
24     C24     1.6355   -4.9128   -6.1257 C.ar     1 ZINC000072284488   -0.7500
25     S25     2.1058   -3.4483   -6.9852 S.o2     1 ZINC000072284488    2.5000
26     C26     0.7125   -2.3127   -6.7407 C.3      1 ZINC000072284488   -0.6600
27     O27     3.2542   -2.9860   -6.2876 O.2      1 ZINC000072284488   -0.9400
28     O28     2.1878   -3.8513   -8.3454 O.2      1 ZINC000072284488   -0.9400
29     C29     0.0267   -1.7290   -2.2916 C.ar     1 ZINC000072284488    0.0800
30     O30    -0.9616   -2.4619   -2.8714 O.3      1 ZINC000072284488   -0.3200
31     C31    -1.8473   -3.1636   -1.9967 C.3      1 ZINC000072284488    0.0300
32     H32    -1.4452    1.5150   -0.5208 H        1 ZINC000072284488    0.0600
33     H33    -0.9637    2.1202   -2.1239 H        1 ZINC000072284488    0.0600
34     H34    -2.6748    1.7686   -1.7825 H        1 ZINC000072284488    0.1100
35     H35     0.5902    1.3284   -0.9573 H        1 ZINC000072284488    0.1500
36     H36     3.2748   -1.9579   -1.4012 H        1 ZINC000072284488    0.1500
37     H37     3.6993   -3.6066   -2.2937 H        1 ZINC000072284488    0.0700
38     H38     2.7802   -4.0765   -0.8436 H        1 ZINC000072284488    0.0700
39     H39     3.0008   -5.2393   -2.1730 H        1 ZINC000072284488    0.0700
40     H40     1.9712   -2.9001   -4.5097 H        1 ZINC000072284488    0.4000
41     H41     1.0070   -6.0292   -2.9936 H        1 ZINC000072284488    0.1300
42     H42    -0.5251   -7.3368   -2.6083 H        1 ZINC000072284488    0.0900
43     H43    -1.5185   -7.9187   -3.9663 H        1 ZINC000072284488    0.0600
44     H44    -0.2008   -9.6598   -1.8326 H        1 ZINC000072284488    0.0400
45     H45    -1.9365   -9.2809   -1.9482 H        1 ZINC000072284488    0.0900
46     H46    -1.4703  -11.3911   -2.9635 H        1 ZINC000072284488    0.3500
47     H47     0.8452  -11.0137   -3.5833 H        1 ZINC000072284488    0.0400
48     H48    -0.1481  -11.5956   -4.9414 H        1 ZINC000072284488    0.0900
49     H49    -0.4724   -9.2726   -5.7171 H        1 ZINC000072284488    0.0600
50     H50     1.2633   -9.6515   -5.6014 H        1 ZINC000072284488    0.0900
51     H51     0.8780   -8.1478   -6.7057 H        1 ZINC000072284488    0.1300
52     H52     1.5360   -6.0997   -7.8990 H        1 ZINC000072284488    0.1400
53     H53     0.5738   -2.1321   -5.6747 H        1 ZINC000072284488    0.1300
54     H54     0.9201   -1.3689   -7.2450 H        1 ZINC000072284488    0.1300
55     H55    -0.1935   -2.7546   -7.1553 H        1 ZINC000072284488    0.1400
56     H56    -1.2684   -3.7999   -1.3274 H        1 ZINC000072284488    0.0500
57     H57    -2.4220   -2.4469   -1.4101 H        1 ZINC000072284488    0.0500
58     H58    -2.5272   -3.7793   -2.5856 H        1 ZINC000072284488    0.1000
@<TRIPOS>BOND
1     1     2     1
2     1     32    1
3     1     33    1
4     1     34    1
5     2     3     1
6     3     29    ar
7     3     4     ar
8     4     5     ar
9     4     35    1
10    5     6     1
11    5     7     ar
12    7     8     ar
13    7     36    1
14    8     9     1
15    8     29    ar
16    9     10    1
17    9     11    1
18    9     12    1
19    11    37    1
20    11    38    1
21    11    39    1
22    12    13    1
23    12    40    1
24    13    24    ar
25    13    14    ar
26    14    15    ar
27    14    41    1
28    15    16    1
29    15    22    ar
30    16    21    1
31    16    17    1
32    17    18    1
33    17    42    1
34    17    43    1
35    18    19    1
36    18    44    1
37    18    45    1
38    19    20    1
39    19    46    1
40    20    21    1
41    20    47    1
42    20    48    1
43    21    49    1
44    21    50    1
45    22    23    ar
46    22    51    1
47    23    24    ar
48    23    52    1
49    24    25    1
50    25    26    1
51    25    27    2
52    25    28    2
53    26    53    1
54    26    54    1
55    26    55    1
56    29    30    1
57    30    31    1
58    31    56    1
59    31    57    1
60    31    58    1
@<TRIPOS>SUBSTRUCTURE
1   ZINC000072284488 1     RESIDUE    1   A     ZIN   1
