@<TRIPOS>MOLECULE
ZINC000000579013
50    53    1     0     0
SMALL
USER_CHARGES
@<TRIPOS>ATOM
1      C1     -0.0634    1.4905   -0.0187 C.3      1 ZINC000000579013   -0.1300
2      C2     -0.0386   -0.0163   -0.0230 C.ar     1 ZINC000000579013   -0.0500
3      C3     -0.0457   -0.7059   -1.2209 C.ar     1 ZINC000000579013   -0.0800
4      C4     -0.0229   -2.0876   -1.2264 C.ar     1 ZINC000000579013   -0.1000
5      C5      0.0071   -2.7946   -0.0352 C.ar     1 ZINC000000579013    0.1500
6      C6      0.0144   -2.0908    1.1707 C.ar     1 ZINC000000579013   -0.0800
7      C7     -0.0029   -0.7125    1.1714 C.ar     1 ZINC000000579013   -0.1600
8      C8      0.0056    0.0380    2.4781 C.3      1 ZINC000000579013    0.5100
9      F9      0.0316   -0.8734    3.5392 F        1 ZINC000000579013   -0.1700
10     F10     1.1387    0.8564    2.5385 F        1 ZINC000000579013   -0.1700
11     F11    -1.1455    0.8278    2.5699 F        1 ZINC000000579013   -0.1700
12     N12     0.0269   -4.1753   -0.2559 N.am     1 ZINC000000579013   -0.5600
13     C13     0.0570   -5.1122    0.7125 C.2      1 ZINC000000579013    0.7200
14     O14     0.0688   -4.7781    1.8815 O.2      1 ZINC000000579013   -0.5500
15     N15     0.0740   -6.4195    0.3851 N.am     1 ZINC000000579013   -0.6700
16     C16     0.2019   -7.3913    1.3870 C.ar     1 ZINC000000579013    0.0800
17     C17    -0.3855   -7.1988    2.6356 C.ar     1 ZINC000000579013   -0.0400
18     C18    -0.2335   -8.1851    3.5941 C.ar     1 ZINC000000579013   -0.1600
19     C19     0.4941   -9.3261    3.2822 C.ar     1 ZINC000000579013    0.3000
20     O20     0.6486  -10.2992    4.2160 O.3      1 ZINC000000579013   -0.2400
21     C21     1.4528  -11.3521    3.9133 C.ar     1 ZINC000000579013    0.0400
22     C22     0.9056  -12.5586    3.4885 C.ar     1 ZINC000000579013   -0.0700
23     C23     1.7660  -13.6033    3.1910 C.ar     1 ZINC000000579013   -0.1700
24     C24     3.1287  -13.4143    3.3248 C.ar     1 ZINC000000579013    0.1100
25     N25     3.6152  -12.2575    3.7300 N.ar     1 ZINC000000579013   -0.4700
26     C26     2.8318  -11.2374    4.0180 C.ar     1 ZINC000000579013    0.1400
27     C27     3.4392   -9.9367    4.4766 C.3      1 ZINC000000579013   -0.1100
28     N28     1.0380   -9.4761    2.0861 N.ar     1 ZINC000000579013   -0.5100
29     C29     0.9100   -8.5594    1.1462 C.ar     1 ZINC000000579013    0.1200
30     C30     0.0097   -4.4542   -1.6944 C.3      1 ZINC000000579013    0.0900
31     C31    -0.0238   -3.0746   -2.3720 C.3      1 ZINC000000579013   -0.0900
32     H32     0.9579    1.8708   -0.0384 H        1 ZINC000000579013    0.0800
33     H33    -0.6011    1.8476   -0.8970 H        1 ZINC000000579013    0.0800
34     H34    -0.5651    1.8430    0.8826 H        1 ZINC000000579013    0.0800
35     H35    -0.0694   -0.1637   -2.1546 H        1 ZINC000000579013    0.1400
36     H36     0.0377   -2.6287    2.1070 H        1 ZINC000000579013    0.1600
37     H37    -0.0022   -6.6878   -0.5440 H        1 ZINC000000579013    0.4100
38     H38    -0.9458   -6.3009    2.8505 H        1 ZINC000000579013    0.1600
39     H39    -0.6751   -8.0689    4.5728 H        1 ZINC000000579013    0.1500
40     H40    -0.1635  -12.6782    3.3934 H        1 ZINC000000579013    0.1400
41     H41     1.3764  -14.5542    2.8588 H        1 ZINC000000579013    0.1400
42     H42     3.8040  -14.2251    3.0946 H        1 ZINC000000579013    0.1600
43     H43     3.6412   -9.3051    3.6115 H        1 ZINC000000579013    0.0800
44     H44     2.7448   -9.4269    5.1444 H        1 ZINC000000579013    0.0800
45     H45     4.3709  -10.1374    5.0055 H        1 ZINC000000579013    0.0800
46     H46     1.3684   -8.7167    0.1810 H        1 ZINC000000579013    0.1600
47     H47     0.9093   -4.9966   -1.9852 H        1 ZINC000000579013    0.0900
48     H48    -0.8797   -5.0267   -1.9579 H        1 ZINC000000579013    0.0900
49     H49    -0.9303   -2.9654   -2.9673 H        1 ZINC000000579013    0.1000
50     H50     0.8600   -2.9353   -2.9946 H        1 ZINC000000579013    0.1000
@<TRIPOS>BOND
1     1     2     1
2     1     32    1
3     1     33    1
4     1     34    1
5     2     7     ar
6     2     3     ar
7     3     4     ar
8     3     35    1
9     4     31    1
10    4     5     ar
11    5     6     ar
12    5     12    1
13    6     7     ar
14    6     36    1
15    7     8     1
16    8     9     1
17    8     10    1
18    8     11    1
19    12    13    am
20    12    30    1
21    13    14    2
22    13    15    am
23    15    16    1
24    15    37    1
25    16    29    ar
26    16    17    ar
27    17    18    ar
28    17    38    1
29    18    19    ar
30    18    39    1
31    19    20    1
32    19    28    ar
33    20    21    1
34    21    26    ar
35    21    22    ar
36    22    23    ar
37    22    40    1
38    23    24    ar
39    23    41    1
40    24    25    ar
41    24    42    1
42    25    26    ar
43    26    27    1
44    27    43    1
45    27    44    1
46    27    45    1
47    28    29    ar
48    29    46    1
49    30    31    1
50    30    47    1
51    30    48    1
52    31    49    1
53    31    50    1
@<TRIPOS>SUBSTRUCTURE
1   ZINC000000579013 1     RESIDUE    1   A     ZIN   1
