@<TRIPOS>MOLECULE
ZINC000004097449
74    78    1     0     0
SMALL
USER_CHARGES
@<TRIPOS>ATOM
1      C1     -0.0187    1.5258    0.0104 C.3      1 ZINC000004097449   -0.1500
2      C2      0.0021   -0.0041    0.0020 C.3      1 ZINC000004097449   -0.1100
3      C3      0.7074   -0.4901   -1.2379 C.2      1 ZINC000004097449   -0.0600
4      C4      1.9705   -0.7778   -1.1560 C.2      1 ZINC000004097449   -0.1800
5      C5      2.6657   -0.6006    0.1693 C.3      1 ZINC000004097449   -0.1100
6      C6      2.6775   -1.9330    0.9212 C.3      1 ZINC000004097449    0.0900
7      H7      1.6567   -2.3047    1.0098 H        1 ZINC000004097449    0.1500
8      N8      3.4817   -2.9031    0.1727 N.4      1 ZINC000004097449   -0.5100
9      H9      3.0301   -3.1099   -0.7056 H        1 ZINC000004097449    0.4300
10     H10     4.3984   -2.5192   -0.0012 H        1 ZINC000004097449    0.4300
11     C11     3.6045   -4.1361    0.9653 C.3      1 ZINC000004097449    0.0000
12     C12     4.5513   -3.8706    2.1363 C.3      1 ZINC000004097449   -0.1000
13     C13     4.1198   -2.6258    2.8694 C.ar     1 ZINC000004097449   -0.0800
14     C14     4.6179   -2.4005    4.1432 C.ar     1 ZINC000004097449   -0.1700
15     C15     4.2486   -1.2681    4.8480 C.ar     1 ZINC000004097449    0.1300
16     O16     4.7395   -1.0505    6.0975 O.3      1 ZINC000004097449   -0.3000
17     C17     5.6337   -2.0333    6.6234 C.3      1 ZINC000004097449    0.0200
18     C18     3.3729   -0.3529    4.2717 C.ar     1 ZINC000004097449    0.1200
19     O19     3.0056    0.7640    4.9550 O.3      1 ZINC000004097449   -0.3000
20     C20     2.1036    1.6580    4.3000 C.3      1 ZINC000004097449    0.0200
21     C21     2.8778   -0.5836    3.0004 C.ar     1 ZINC000004097449   -0.1600
22     C22     3.2500   -1.7211    2.2982 C.ar     1 ZINC000004097449   -0.1300
23     C23     2.7695   -1.2804   -2.3249 C.3      1 ZINC000004097449   -0.0700
24     C24     2.0127   -1.0031   -3.6290 C.3      1 ZINC000004097449    0.1300
25     H25     2.0171    0.0681   -3.8305 H        1 ZINC000004097449    0.0600
26     C26     2.7000   -1.7282   -4.7560 C.ar     1 ZINC000004097449   -0.0900
27     C27     4.0837   -1.6494   -4.8369 C.ar     1 ZINC000004097449   -0.1700
28     C28     4.7646   -2.2955   -5.8529 C.ar     1 ZINC000004097449    0.1000
29     O29     6.1202   -2.2142   -5.9252 O.3      1 ZINC000004097449   -0.3000
30     C30     6.7786   -1.4438   -4.9177 C.3      1 ZINC000004097449    0.0300
31     C31     4.0575   -3.0293   -6.8005 C.ar     1 ZINC000004097449    0.1100
32     O32     4.7179   -3.6676   -7.8035 O.3      1 ZINC000004097449   -0.3000
33     C33     3.9246   -4.4012   -8.7387 C.3      1 ZINC000004097449    0.0200
34     C34     2.6783   -3.1061   -6.7160 C.ar     1 ZINC000004097449   -0.1700
35     C35     2.0017   -2.4573   -5.6945 C.ar     1 ZINC000004097449   -0.0600
36     C36     0.4996   -2.5742   -5.6405 C.3      1 ZINC000004097449   -0.0700
37     C37    -0.0712   -1.4581   -4.7665 C.3      1 ZINC000004097449    0.0500
38     N38     0.6279   -1.4657   -3.4728 N.3      1 ZINC000004097449   -0.5200
39     C39    -0.0868   -0.6230   -2.5041 C.3      1 ZINC000004097449    0.0800
40     H40     1.0039    1.9031    0.0027 H        1 ZINC000004097449    0.0600
41     H41    -0.5459    1.8868   -0.8726 H        1 ZINC000004097449    0.0600
42     H42    -0.5289    1.8773    0.9072 H        1 ZINC000004097449    0.0700
43     H43     0.5293   -0.3651    0.8851 H        1 ZINC000004097449    0.0700
44     H44    -1.0205   -0.3814    0.0098 H        1 ZINC000004097449    0.0800
45     H45     3.6904   -0.2695    0.0007 H        1 ZINC000004097449    0.1000
46     H46     2.1354    0.1457    0.7608 H        1 ZINC000004097449    0.1200
47     H47     2.6248   -4.4260    1.3452 H        1 ZINC000004097449    0.1400
48     H48     4.0086   -4.9334    0.3415 H        1 ZINC000004097449    0.1400
49     H49     4.5294   -4.7195    2.8197 H        1 ZINC000004097449    0.1200
50     H50     5.5651   -3.7361    1.7593 H        1 ZINC000004097449    0.1000
51     H51     5.2973   -3.1124    4.5881 H        1 ZINC000004097449    0.1500
52     H52     5.1268   -2.9970    6.6716 H        1 ZINC000004097449    0.0600
53     H53     6.5067   -2.1140    5.9757 H        1 ZINC000004097449    0.0600
54     H54     5.9497   -1.7386    7.6241 H        1 ZINC000004097449    0.1100
55     H55     1.8932    2.5050    4.9531 H        1 ZINC000004097449    0.1100
56     H56     2.5548    2.0160    3.3746 H        1 ZINC000004097449    0.0600
57     H57     1.1747    1.1350    4.0727 H        1 ZINC000004097449    0.0600
58     H58     2.1982    0.1260    2.5520 H        1 ZINC000004097449    0.1500
59     H59     3.7334   -0.7722   -2.3502 H        1 ZINC000004097449    0.0800
60     H60     2.9294   -2.3534   -2.2199 H        1 ZINC000004097449    0.0700
61     H61     4.6323   -1.0793   -4.1017 H        1 ZINC000004097449    0.1300
62     H62     6.4211   -0.4148   -4.9557 H        1 ZINC000004097449    0.0600
63     H63     6.5625   -1.8676   -3.9370 H        1 ZINC000004097449    0.0500
64     H64     7.8544   -1.4613   -5.0921 H        1 ZINC000004097449    0.1000
65     H65     3.3689   -5.1778   -8.2132 H        1 ZINC000004097449    0.0600
66     H66     3.2261   -3.7250   -9.2317 H        1 ZINC000004097449    0.0600
67     H67     4.5737   -4.8602   -9.4844 H        1 ZINC000004097449    0.1100
68     H68     2.1261   -3.6745   -7.4498 H        1 ZINC000004097449    0.1400
69     H69     0.0927   -2.4900   -6.6482 H        1 ZINC000004097449    0.0800
70     H70     0.2258   -3.5413   -5.2188 H        1 ZINC000004097449    0.0900
71     H71     0.0786   -0.4967   -5.2578 H        1 ZINC000004097449    0.0500
72     H72    -1.1362   -1.6272   -4.6075 H        1 ZINC000004097449    0.0900
73     H73    -1.0546   -1.0720   -2.2806 H        1 ZINC000004097449    0.1000
74     H74    -0.2420    0.3670   -2.9328 H        1 ZINC000004097449    0.0600
@<TRIPOS>BOND
1     1     2     1
2     1     40    1
3     1     41    1
4     1     42    1
5     2     3     1
6     2     43    1
7     2     44    1
8     3     39    1
9     3     4     2
10    4     5     1
11    4     23    1
12    5     6     1
13    5     45    1
14    5     46    1
15    6     7     1
16    6     22    1
17    6     8     1
18    8     9     1
19    8     10    1
20    8     11    1
21    11    12    1
22    11    47    1
23    11    48    1
24    12    13    1
25    12    49    1
26    12    50    1
27    13    22    ar
28    13    14    ar
29    14    15    ar
30    14    51    1
31    15    16    1
32    15    18    ar
33    16    17    1
34    17    52    1
35    17    53    1
36    17    54    1
37    18    19    1
38    18    21    ar
39    19    20    1
40    20    55    1
41    20    56    1
42    20    57    1
43    21    22    ar
44    21    58    1
45    23    24    1
46    23    59    1
47    23    60    1
48    24    25    1
49    24    38    1
50    24    26    1
51    26    35    ar
52    26    27    ar
53    27    28    ar
54    27    61    1
55    28    29    1
56    28    31    ar
57    29    30    1
58    30    62    1
59    30    63    1
60    30    64    1
61    31    32    1
62    31    34    ar
63    32    33    1
64    33    65    1
65    33    66    1
66    33    67    1
67    34    35    ar
68    34    68    1
69    35    36    1
70    36    37    1
71    36    69    1
72    36    70    1
73    37    38    1
74    37    71    1
75    37    72    1
76    38    39    1
77    39    73    1
78    39    74    1
@<TRIPOS>SUBSTRUCTURE
1   ZINC000004097449 1     RESIDUE    1   A     ZIN   1
