@<TRIPOS>MOLECULE
ZINC000013600110
70    72    1     0     0
SMALL
USER_CHARGES
@<TRIPOS>ATOM
1      C1      1.3578    1.6393   -2.0115 C.3      1 ZINC000013600110   -0.1500
2      C2      1.3818    0.1194   -2.1854 C.3      1 ZINC000013600110   -0.1100
3      C3      0.7307   -0.5434   -0.9697 C.3      1 ZINC000013600110   -0.0700
4      C4      0.6474   -2.0314   -1.1934 C.ar     1 ZINC000013600110   -0.1500
5      C5      1.6418   -2.8617   -0.7067 C.ar     1 ZINC000013600110    0.2000
6      O6      2.6937   -2.3407   -0.0276 O.3      1 ZINC000013600110   -0.3200
7      C7      2.5344   -2.1678    1.3819 C.3      1 ZINC000013600110    0.0500
8      C8      1.5546   -4.2494   -0.9202 C.ar     1 ZINC000013600110   -0.2300
9      C9      2.6000   -5.1399   -0.4101 C.2      1 ZINC000013600110    0.3900
10     C10     2.5675   -6.6090   -0.7441 C.3      1 ZINC000013600110   -0.2000
11     O11     3.4920   -4.6945    0.2814 O.2      1 ZINC000013600110   -0.4500
12     C12     0.4624   -4.7758   -1.6230 C.ar     1 ZINC000013600110   -0.0200
13     C13    -0.5104   -3.9444   -2.0969 C.ar     1 ZINC000013600110   -0.2300
14     C14    -0.4295   -2.5710   -1.8826 C.ar     1 ZINC000013600110    0.1800
15     O15    -1.4034   -1.7552   -2.3585 O.3      1 ZINC000013600110   -0.3000
16     C16    -2.4785   -2.3737   -3.0682 C.3      1 ZINC000013600110    0.0600
17     C17    -3.4714   -1.3028   -3.5244 C.3      1 ZINC000013600110   -0.1200
18     C18    -4.6225   -1.9651   -4.2842 C.3      1 ZINC000013600110    0.0700
19     O19    -5.5499   -0.9648   -4.7103 O.3      1 ZINC000013600110   -0.3100
20     C20    -6.6387   -1.3886   -5.4044 C.ar     1 ZINC000013600110    0.1600
21     C21    -7.5753   -0.4728   -5.8529 C.ar     1 ZINC000013600110   -0.1500
22     C22    -7.3854    0.9954   -5.5716 C.3      1 ZINC000013600110   -0.0600
23     C23    -6.5904    1.6345   -6.7120 C.3      1 ZINC000013600110   -0.1100
24     C24    -6.3976    3.1252   -6.4264 C.3      1 ZINC000013600110   -0.1500
25     C25    -8.6905   -0.9043   -6.5626 C.ar     1 ZINC000013600110    0.1800
26     C26    -8.8629   -2.2540   -6.8172 C.ar     1 ZINC000013600110   -0.2000
27     C27    -7.9224   -3.1673   -6.3688 C.ar     1 ZINC000013600110   -0.0500
28     C28    -6.8116   -2.7398   -5.6704 C.ar     1 ZINC000013600110   -0.2500
29     C29   -10.0641   -2.7632   -7.5732 C.3      1 ZINC000013600110   -0.0700
30     C30   -10.7197   -1.6101   -8.3370 C.3      1 ZINC000013600110   -0.1400
31     C31   -10.8838   -0.4265   -7.3750 C.3      1 ZINC000013600110    0.0200
32     H32   -11.4377   -0.7451   -6.4920 H        1 ZINC000013600110    0.0700
33     C33   -11.6261    0.6890   -8.0647 C.2      1 ZINC000013600110    0.5100
34     O34   -12.7850    0.5291   -8.4082 O.co2    1 ZINC000013600110   -0.6800
35     O35   -11.0678    1.7514   -8.2793 O.co2    1 ZINC000013600110   -0.6700
36     O36    -9.5843    0.0248   -6.9909 O.3      1 ZINC000013600110   -0.2700
37     H37     0.3258    1.9785   -1.9219 H        1 ZINC000013600110    0.0600
38     H38     1.9089    1.9107   -1.1111 H        1 ZINC000013600110    0.0500
39     H39     1.8216    2.1114   -2.8775 H        1 ZINC000013600110    0.0500
40     H40     0.8307   -0.1520   -3.0858 H        1 ZINC000013600110    0.0600
41     H41     2.4138   -0.2199   -2.2749 H        1 ZINC000013600110    0.0600
42     H42     1.3301   -0.3424   -0.0818 H        1 ZINC000013600110    0.0700
43     H43    -0.2723   -0.1403   -0.8299 H        1 ZINC000013600110    0.0800
44     H44     1.7673   -1.4171    1.5715 H        1 ZINC000013600110    0.0500
45     H45     2.2358   -3.1143    1.8327 H        1 ZINC000013600110    0.0500
46     H46     3.4787   -1.8402    1.8167 H        1 ZINC000013600110    0.1000
47     H47     1.7525   -6.8053   -1.4407 H        1 ZINC000013600110    0.0800
48     H48     3.5137   -6.8988   -1.2010 H        1 ZINC000013600110    0.0900
49     H49     2.4128   -7.1856    0.1679 H        1 ZINC000013600110    0.0900
50     H50     0.3908   -5.8404   -1.7901 H        1 ZINC000013600110    0.1400
51     H51    -1.3500   -4.3546   -2.6383 H        1 ZINC000013600110    0.1400
52     H52    -2.0849   -2.8986   -3.9386 H        1 ZINC000013600110    0.0700
53     H53    -2.9848   -3.0836   -2.4141 H        1 ZINC000013600110    0.0700
54     H54    -3.8651   -0.7779   -2.6540 H        1 ZINC000013600110    0.0900
55     H55    -2.9651   -0.5929   -4.1785 H        1 ZINC000013600110    0.0900
56     H56    -4.2289   -2.4900   -5.1546 H        1 ZINC000013600110    0.0600
57     H57    -5.1288   -2.6749   -3.6301 H        1 ZINC000013600110    0.0600
58     H58    -8.3590    1.4790   -5.4918 H        1 ZINC000013600110    0.0800
59     H59    -6.8407    1.1186   -4.6355 H        1 ZINC000013600110    0.0700
60     H60    -5.6168    1.1510   -6.7918 H        1 ZINC000013600110    0.0500
61     H61    -7.1351    1.5114   -7.6481 H        1 ZINC000013600110    0.0700
62     H62    -5.8313    3.5805   -7.2389 H        1 ZINC000013600110    0.0500
63     H63    -7.3712    3.6088   -6.3466 H        1 ZINC000013600110    0.0600
64     H64    -5.8530    3.2483   -5.4903 H        1 ZINC000013600110    0.0500
65     H65    -8.0572   -4.2197   -6.5710 H        1 ZINC000013600110    0.1200
66     H66    -6.0823   -3.4567   -5.3231 H        1 ZINC000013600110    0.1200
67     H67    -9.7494   -3.5327   -8.2782 H        1 ZINC000013600110    0.0700
68     H68   -10.7816   -3.1874   -6.8708 H        1 ZINC000013600110    0.0700
69     H69   -10.0869   -1.3176   -9.1748 H        1 ZINC000013600110    0.0700
70     H70   -11.6969   -1.9222   -8.7055 H        1 ZINC000013600110    0.0900
@<TRIPOS>BOND
1     1     2     1
2     1     37    1
3     1     38    1
4     1     39    1
5     2     3     1
6     2     40    1
7     2     41    1
8     3     4     1
9     3     42    1
10    3     43    1
11    4     14    ar
12    4     5     ar
13    5     6     1
14    5     8     ar
15    6     7     1
16    7     44    1
17    7     45    1
18    7     46    1
19    8     9     1
20    8     12    ar
21    9     10    1
22    9     11    2
23    10    47    1
24    10    48    1
25    10    49    1
26    12    13    ar
27    12    50    1
28    13    14    ar
29    13    51    1
30    14    15    1
31    15    16    1
32    16    17    1
33    16    52    1
34    16    53    1
35    17    18    1
36    17    54    1
37    17    55    1
38    18    19    1
39    18    56    1
40    18    57    1
41    19    20    1
42    20    28    ar
43    20    21    ar
44    21    22    1
45    21    25    ar
46    22    23    1
47    22    58    1
48    22    59    1
49    23    24    1
50    23    60    1
51    23    61    1
52    24    62    1
53    24    63    1
54    24    64    1
55    25    36    1
56    25    26    ar
57    26    27    ar
58    26    29    1
59    27    28    ar
60    27    65    1
61    28    66    1
62    29    30    1
63    29    67    1
64    29    68    1
65    30    31    1
66    30    69    1
67    30    70    1
68    31    32    1
69    31    33    1
70    31    36    1
71    33    34    ar
72    33    35    ar
@<TRIPOS>SUBSTRUCTURE
1   ZINC000013600110 1     RESIDUE    1   A     ZIN   1
