@<TRIPOS>MOLECULE
ZINC000003803921
52    54    1     0     0
SMALL
USER_CHARGES
@<TRIPOS>ATOM
1      C1     -0.0187    1.5258    0.0104 C.3      1 ZINC000003803921   -0.1700
2      C2      0.0021   -0.0041    0.0020 C.3      1 ZINC000003803921    0.1200
3      N3      0.6878   -0.4765   -1.2033 N.am     1 ZINC000003803921   -0.5100
4      C4     -0.0334   -0.7053   -2.3655 C.2      1 ZINC000003803921    0.3300
5      C5      0.6436   -1.1542   -3.4967 C.2      1 ZINC000003803921   -0.1500
6      C6      2.0362   -1.3621   -3.4263 C.2      1 ZINC000003803921    0.5900
7      O7      2.6505   -1.7540   -4.4028 O.2      1 ZINC000003803921   -0.5100
8      N8      2.6812   -1.1217   -2.2661 N.am     1 ZINC000003803921   -0.5500
9      C9      4.1283   -1.3361   -2.1878 C.3      1 ZINC000003803921    0.1100
10     C10     4.8564   -0.0454   -2.5681 C.3      1 ZINC000003803921   -0.1700
11     C11     2.0179   -0.6827   -1.1827 C.2      1 ZINC000003803921    0.7100
12     O12     2.6334   -0.4767   -0.1545 O.2      1 ZINC000003803921   -0.5300
13     N13    -0.3054   -1.2960   -4.4925 N.pl3    1 ZINC000003803921   -0.4100
14     C14    -0.0700   -1.7458   -5.8667 C.3      1 ZINC000003803921    0.0700
15     C15    -1.5045   -0.9364   -3.9468 C.2      1 ZINC000003803921    0.3300
16     C16    -2.7898   -0.9358   -4.6481 C.2      1 ZINC000003803921   -0.1200
17     C17    -3.9109   -0.5585   -4.0008 C.2      1 ZINC000003803921   -0.0200
18     C18    -5.2022   -0.5580   -4.7055 C.ar     1 ZINC000003803921   -0.0700
19     C19    -5.2703   -0.9538   -6.0451 C.ar     1 ZINC000003803921   -0.1000
20     C20    -6.4816   -0.9524   -6.7031 C.ar     1 ZINC000003803921   -0.1800
21     C21    -7.6350   -0.5584   -6.0398 C.ar     1 ZINC000003803921    0.1100
22     O22    -8.8261   -0.5586   -6.6937 O.3      1 ZINC000003803921   -0.3000
23     C23    -8.8158   -0.9758   -8.0605 C.3      1 ZINC000003803921    0.0200
24     C24    -7.5754   -0.1628   -4.7041 C.ar     1 ZINC000003803921    0.1000
25     O25    -8.7084    0.2221   -4.0579 O.3      1 ZINC000003803921   -0.3100
26     C26    -8.5739    0.6148   -2.6906 C.3      1 ZINC000003803921    0.0200
27     C27    -6.3669   -0.1668   -4.0356 C.ar     1 ZINC000003803921   -0.1500
28     N28    -1.3204   -0.5893   -2.6837 N.2      1 ZINC000003803921   -0.4900
29     H29     1.0039    1.9031    0.0027 H        1 ZINC000003803921    0.0600
30     H30    -0.5459    1.8868   -0.8726 H        1 ZINC000003803921    0.0600
31     H31    -0.5289    1.8773    0.9072 H        1 ZINC000003803921    0.0800
32     H32     0.5293   -0.3651    0.8851 H        1 ZINC000003803921    0.1000
33     H33    -1.0205   -0.3814    0.0098 H        1 ZINC000003803921    0.1000
34     H34     4.3990   -1.6199   -1.1709 H        1 ZINC000003803921    0.1000
35     H35     4.4155   -2.1315   -2.8756 H        1 ZINC000003803921    0.1000
36     H36     4.5692    0.7500   -1.8803 H        1 ZINC000003803921    0.0600
37     H37     5.9331   -0.2049   -2.5099 H        1 ZINC000003803921    0.0800
38     H38     4.5856    0.2384   -3.5851 H        1 ZINC000003803921    0.0600
39     H39    -0.1716   -2.8299   -5.9166 H        1 ZINC000003803921    0.0900
40     H40    -0.7991   -1.2816   -6.5309 H        1 ZINC000003803921    0.1000
41     H41     0.9358   -1.4606   -6.1752 H        1 ZINC000003803921    0.1000
42     H42    -2.8399   -1.2376   -5.6839 H        1 ZINC000003803921    0.1400
43     H43    -3.8608   -0.2567   -2.9651 H        1 ZINC000003803921    0.1400
44     H44    -4.3740   -1.2603   -6.5640 H        1 ZINC000003803921    0.1300
45     H45    -6.5330   -1.2583   -7.7376 H        1 ZINC000003803921    0.1400
46     H46    -9.8280   -0.9291   -8.4622 H        1 ZINC000003803921    0.1000
47     H47    -8.1656   -0.3173   -8.6364 H        1 ZINC000003803921    0.0600
48     H48    -8.4460   -1.9991   -8.1252 H        1 ZINC000003803921    0.0600
49     H49    -9.5499    0.8972   -2.2959 H        1 ZINC000003803921    0.1000
50     H50    -8.1746   -0.2176   -2.1111 H        1 ZINC000003803921    0.0600
51     H51    -7.8945    1.4644   -2.6217 H        1 ZINC000003803921    0.0600
52     H52    -6.3195    0.1394   -3.0010 H        1 ZINC000003803921    0.1400
@<TRIPOS>BOND
1     1     2     1
2     1     29    1
3     1     30    1
4     1     31    1
5     2     3     1
6     2     32    1
7     2     33    1
8     3     11    am
9     3     4     1
10    4     28    1
11    4     5     2
12    5     6     1
13    5     13    1
14    6     7     2
15    6     8     am
16    8     9     1
17    8     11    am
18    9     10    1
19    9     34    1
20    9     35    1
21    10    36    1
22    10    37    1
23    10    38    1
24    11    12    2
25    13    14    1
26    13    15    1
27    14    39    1
28    14    40    1
29    14    41    1
30    15    16    1
31    15    28    2
32    16    17    2
33    16    42    1
34    17    18    1
35    17    43    1
36    18    27    ar
37    18    19    ar
38    19    20    ar
39    19    44    1
40    20    21    ar
41    20    45    1
42    21    22    1
43    21    24    ar
44    22    23    1
45    23    46    1
46    23    47    1
47    23    48    1
48    24    25    1
49    24    27    ar
50    25    26    1
51    26    49    1
52    26    50    1
53    26    51    1
54    27    52    1
@<TRIPOS>SUBSTRUCTURE
1   ZINC000003803921 1     RESIDUE    1   A     ZIN   1
