@<TRIPOS>MOLECULE
ZINC000261075016
56    60    1     0     0
SMALL
USER_CHARGES
@<TRIPOS>ATOM
1      C1      0.2020    1.5812   -0.0871 C.3      1 ZINC000261075016   -0.0700
2      N2      0.1081    0.1177   -0.0020 N.4      1 ZINC000261075016   -0.2400
3      C3      0.6089   -0.4668   -1.2532 C.3      1 ZINC000261075016    0.0200
4      C4     -0.1402    0.1462   -2.4382 C.3      1 ZINC000261075016   -0.2000
5      C5      0.6663    1.0003   -3.4184 C.3      1 ZINC000261075016   -0.1700
6      C6      0.1842   -0.3912   -3.8334 C.3      1 ZINC000261075016   -0.1500
7      C7     -1.2971   -0.2609    0.1706 C.3      1 ZINC000261075016   -0.0100
8      C8     -1.8323    0.3411    1.4748 C.3      1 ZINC000261075016   -0.1200
9      C9     -1.0003   -0.2320    2.6323 C.3      1 ZINC000261075016    0.0500
10     C10    -1.5500    0.2773    3.9608 C.3      1 ZINC000261075016   -0.2200
11     C11    -0.6147   -0.1399    5.0740 C.2      1 ZINC000261075016    0.3700
12     O12    -1.0311   -0.7006    6.0592 O.2      1 ZINC000261075016   -0.4400
13     C13     0.8588    0.1663    4.9154 C.3      1 ZINC000261075016   -0.1700
14     C14     1.3221   -0.3773    3.5609 C.3      1 ZINC000261075016   -0.1300
15     C15     0.4529    0.2089    2.4449 C.3      1 ZINC000261075016    0.1300
16     O16     0.5369    1.6354    2.4579 O.3      1 ZINC000261075016   -0.5400
17     C17     0.9346   -0.3466    1.1017 C.3      1 ZINC000261075016    0.0100
18     H18     1.9398    0.0373    0.9279 H        1 ZINC000261075016    0.1200
19     C19     1.0266   -1.8599    1.1721 C.3      1 ZINC000261075016   -0.0900
20     C20    -0.1556   -2.4776    1.8693 C.ar     1 ZINC000261075016   -0.0400
21     C21    -0.2953   -3.8618    1.7980 C.ar     1 ZINC000261075016   -0.2600
22     C22    -1.3404   -4.5003    2.4230 C.ar     1 ZINC000261075016   -0.0200
23     C23    -2.2782   -3.7567    3.1429 C.ar     1 ZINC000261075016   -0.2800
24     C24    -3.3996   -4.4305    3.8252 C.2      1 ZINC000261075016    0.5600
25     N25    -3.5231   -5.7708    3.7557 N.am     1 ZINC000261075016   -0.8700
26     O26    -4.2122   -3.7767    4.4500 O.2      1 ZINC000261075016   -0.5200
27     C27    -2.1422   -2.3652    3.2103 C.ar     1 ZINC000261075016    0.3200
28     O28    -3.0446   -1.6297    3.9067 O.3      1 ZINC000261075016   -0.6200
29     C29    -1.0833   -1.7353    2.5650 C.ar     1 ZINC000261075016   -0.2300
30     H30     1.2508    1.8778   -0.1007 H        1 ZINC000261075016    0.1100
31     H31    -0.2845    1.9240   -1.0003 H        1 ZINC000261075016    0.1100
32     H32    -0.2907    2.0277    0.7766 H        1 ZINC000261075016    0.1500
33     H33     1.6745   -0.2591   -1.3503 H        1 ZINC000261075016    0.1200
34     H34     0.4486   -1.5449   -1.2404 H        1 ZINC000261075016    0.1300
35     H35    -1.1701    0.4435   -2.2403 H        1 ZINC000261075016    0.1300
36     H36     0.1671    1.8600   -3.8655 H        1 ZINC000261075016    0.1100
37     H37     1.7306    1.1256   -3.2191 H        1 ZINC000261075016    0.1000
38     H38     0.9314   -1.1814   -3.9072 H        1 ZINC000261075016    0.1000
39     H39    -0.6320   -0.4470   -4.5537 H        1 ZINC000261075016    0.1100
40     H40    -1.8806    0.1154   -0.6696 H        1 ZINC000261075016    0.1200
41     H41    -1.3782   -1.3471    0.2117 H        1 ZINC000261075016    0.1400
42     H42    -1.7313    1.4261    1.4494 H        1 ZINC000261075016    0.0900
43     H43    -2.8802    0.0701    1.6038 H        1 ZINC000261075016    0.1100
44     H44    -1.6217    1.3646    3.9330 H        1 ZINC000261075016    0.0700
45     H45    -2.5375   -0.1502    4.1348 H        1 ZINC000261075016    0.2000
46     H46     1.0156    1.2444    4.9514 H        1 ZINC000261075016    0.1000
47     H47     1.4217   -0.3139    5.7157 H        1 ZINC000261075016    0.0900
48     H48     2.3626   -0.0981    3.3948 H        1 ZINC000261075016    0.0700
49     H49     1.2337   -1.4637    3.5567 H        1 ZINC000261075016    0.1000
50     H50     1.4315    1.9779    2.3259 H        1 ZINC000261075016    0.3800
51     H51     1.0853   -2.2571    0.1587 H        1 ZINC000261075016    0.0900
52     H52     1.9349   -2.1333    1.7090 H        1 ZINC000261075016    0.1100
53     H53     0.4275   -4.4417    1.2435 H        1 ZINC000261075016    0.1000
54     H54    -1.4360   -5.5740    2.3571 H        1 ZINC000261075016    0.1000
55     H55    -2.8748   -6.2925    3.2572 H        1 ZINC000261075016    0.3900
56     H56    -4.2603   -6.2138    4.2043 H        1 ZINC000261075016    0.3900
@<TRIPOS>BOND
1     1     2     1
2     1     30    1
3     1     31    1
4     1     32    1
5     2     17    1
6     2     3     1
7     2     7     1
8     3     4     1
9     3     33    1
10    3     34    1
11    4     6     1
12    4     5     1
13    4     35    1
14    5     6     1
15    5     36    1
16    5     37    1
17    6     38    1
18    6     39    1
19    7     8     1
20    7     40    1
21    7     41    1
22    8     9     1
23    8     42    1
24    8     43    1
25    9     15    1
26    9     29    1
27    9     10    1
28    10    11    1
29    10    44    1
30    10    45    1
31    11    12    2
32    11    13    1
33    13    14    1
34    13    46    1
35    13    47    1
36    14    15    1
37    14    48    1
38    14    49    1
39    15    16    1
40    15    17    1
41    16    50    1
42    17    18    1
43    17    19    1
44    19    20    1
45    19    51    1
46    19    52    1
47    20    29    ar
48    20    21    ar
49    21    22    ar
50    21    53    1
51    22    23    ar
52    22    54    1
53    23    24    1
54    23    27    ar
55    24    25    am
56    24    26    2
57    25    55    1
58    25    56    1
59    27    28    1
60    27    29    ar
@<TRIPOS>SUBSTRUCTURE
1   ZINC000261075016 1     RESIDUE    1   A     ZIN   1
