@<TRIPOS>MOLECULE
ZINC000072190166
52    54    1     0     0
SMALL
USER_CHARGES
@<TRIPOS>ATOM
1      C1     -0.0256    1.4471   -0.0055 C.3      1 ZINC000072190166    0.0100
2      O2     -0.0089    0.0182    0.0031 O.3      1 ZINC000072190166   -0.1000
3      N3      0.6370   -0.5570   -1.1181 N.am     1 ZINC000072190166   -0.4800
4      C4      2.0740   -0.8379   -1.0713 C.3      1 ZINC000072190166    0.1000
5      C5     -0.0704   -0.8460   -2.2283 C.2      1 ZINC000072190166    0.7500
6      O6      0.4844   -1.3401   -3.1915 O.2      1 ZINC000072190166   -0.5400
7      N7     -1.3924   -0.5876   -2.2714 N.am     1 ZINC000072190166   -0.4500
8      N8     -2.1005   -0.1308   -1.1822 N.2      1 ZINC000072190166   -0.2100
9      C9     -3.3701    0.1115   -1.2458 C.2      1 ZINC000072190166    0.1600
10     C10    -4.2346    0.6023   -0.1515 C.ar     1 ZINC000072190166   -0.0400
11     C11    -5.5957    0.8120   -0.3745 C.ar     1 ZINC000072190166   -0.1000
12     C12    -6.3983    1.2705    0.6527 C.ar     1 ZINC000072190166    0.1000
13     F13    -7.7167    1.4737    0.4386 F        1 ZINC000072190166   -0.1200
14     C14    -5.8541    1.5219    1.9019 C.ar     1 ZINC000072190166   -0.1000
15     C15    -4.5055    1.3165    2.1294 C.ar     1 ZINC000072190166   -0.1200
16     C16    -3.6929    0.8528    1.1123 C.ar     1 ZINC000072190166    0.1300
17     F17    -2.3758    0.6522    1.3362 F        1 ZINC000072190166   -0.1100
18     S18    -3.8676   -0.2627   -2.9103 S.3      1 ZINC000072190166   -0.1300
19     C19    -2.2030   -0.7640   -3.4904 C.3      1 ZINC000072190166    0.2400
20     C20    -1.7168    0.1517   -4.6156 C.3      1 ZINC000072190166   -0.1100
21     C21    -1.5434    1.5733   -4.0772 C.3      1 ZINC000072190166   -0.1600
22     C22    -1.0573    2.4890   -5.2023 C.3      1 ZINC000072190166    0.0000
23     N23    -0.8908    3.8540   -4.6854 N.4      1 ZINC000072190166   -0.6400
24     H24    -0.2128    3.8502   -3.9381 H        1 ZINC000072190166    0.4300
25     H25    -0.5702    4.4579   -5.4274 H        1 ZINC000072190166    0.4400
26     H26    -1.7751    4.1913   -4.3356 H        1 ZINC000072190166    0.4400
27     C27    -2.1970   -2.2053   -3.9306 C.ar     1 ZINC000072190166   -0.1000
28     C28    -2.3229   -3.2144   -2.9943 C.ar     1 ZINC000072190166   -0.0800
29     C29    -2.3173   -4.5365   -3.3980 C.ar     1 ZINC000072190166   -0.1100
30     C30    -2.1863   -4.8494   -4.7381 C.ar     1 ZINC000072190166   -0.1000
31     C31    -2.0614   -3.8402   -5.6745 C.ar     1 ZINC000072190166   -0.1200
32     C32    -2.0712   -2.5180   -5.2712 C.ar     1 ZINC000072190166   -0.0900
33     H33     0.9977    1.8223   -0.0147 H        1 ZINC000072190166    0.0500
34     H34    -0.5497    1.7990   -0.8941 H        1 ZINC000072190166    0.0300
35     H35    -0.5376    1.8098    0.8858 H        1 ZINC000072190166    0.1100
36     H36     2.2349   -1.8465   -0.6907 H        1 ZINC000072190166    0.0700
37     H37     2.4929   -0.7570   -2.0744 H        1 ZINC000072190166    0.0900
38     H38     2.5635   -0.1191   -0.4141 H        1 ZINC000072190166    0.0800
39     H39    -6.0210    0.6168   -1.3478 H        1 ZINC000072190166    0.1500
40     H40    -6.4858    1.8801    2.7013 H        1 ZINC000072190166    0.1600
41     H41    -4.0873    1.5150    3.1052 H        1 ZINC000072190166    0.1600
42     H42    -0.7616   -0.2127   -4.9935 H        1 ZINC000072190166    0.1100
43     H43    -2.4492    0.1557   -5.4228 H        1 ZINC000072190166    0.1100
44     H44    -2.4987    1.9377   -3.6993 H        1 ZINC000072190166    0.1000
45     H45    -0.8110    1.5693   -3.2699 H        1 ZINC000072190166    0.0800
46     H46    -0.1020    2.1246   -5.5802 H        1 ZINC000072190166    0.1400
47     H47    -1.7897    2.4930   -6.0096 H        1 ZINC000072190166    0.1400
48     H48    -2.4252   -2.9700   -1.9473 H        1 ZINC000072190166    0.1100
49     H49    -2.4149   -5.3249   -2.6664 H        1 ZINC000072190166    0.1300
50     H50    -2.1813   -5.8823   -5.0534 H        1 ZINC000072190166    0.1300
51     H51    -1.9587   -4.0847   -6.7214 H        1 ZINC000072190166    0.1300
52     H52    -1.9736   -1.7296   -6.0028 H        1 ZINC000072190166    0.1200
@<TRIPOS>BOND
1     1     2     1
2     1     33    1
3     1     34    1
4     1     35    1
5     2     3     1
6     3     4     1
7     3     5     am
8     4     36    1
9     4     37    1
10    4     38    1
11    5     6     2
12    5     7     am
13    7     19    1
14    7     8     1
15    8     9     2
16    9     10    1
17    9     18    1
18    10    16    ar
19    10    11    ar
20    11    12    ar
21    11    39    1
22    12    13    1
23    12    14    ar
24    14    15    ar
25    14    40    1
26    15    16    ar
27    15    41    1
28    16    17    1
29    18    19    1
30    19    20    1
31    19    27    1
32    20    21    1
33    20    42    1
34    20    43    1
35    21    22    1
36    21    44    1
37    21    45    1
38    22    23    1
39    22    46    1
40    22    47    1
41    23    24    1
42    23    25    1
43    23    26    1
44    27    32    ar
45    27    28    ar
46    28    29    ar
47    28    48    1
48    29    30    ar
49    29    49    1
50    30    31    ar
51    30    50    1
52    31    32    ar
53    31    51    1
54    32    52    1
@<TRIPOS>SUBSTRUCTURE
1   ZINC000072190166 1     RESIDUE    1   A     ZIN   1
