@<TRIPOS>MOLECULE
ZINC000003936474
104   108   1     0     0
SMALL
USER_CHARGES
@<TRIPOS>ATOM
1      C1      1.5093    2.1000    3.1863 C.3      1 ZINC000003936474   -0.1400
2      C2      0.6202    1.8121    1.9749 C.3      1 ZINC000003936474   -0.1000
3      C3      0.8450    0.3725    1.5079 C.3      1 ZINC000003936474   -0.1500
4      C4     -0.8477    1.9987    2.3637 C.3      1 ZINC000003936474    0.1300
5      H5     -0.9846    2.9872    2.8022 H        1 ZINC000003936474    0.1100
6      N6     -1.2284    0.9746    3.3397 N.am     1 ZINC000003936474   -0.6900
7      C7     -0.9900    1.1721    4.6514 C.2      1 ZINC000003936474    0.5700
8      O8     -0.4593    2.1994    5.0245 O.2      1 ZINC000003936474   -0.5200
9      C9     -1.3752    0.1356    5.6392 C.ar     1 ZINC000003936474    0.1100
10     C10    -1.1249    0.3601    7.0007 C.ar     1 ZINC000003936474   -0.1300
11     C11    -1.4753   -0.5862    7.9205 C.ar     1 ZINC000003936474   -0.0600
12     C12    -2.0835   -1.7689    7.4606 C.ar     1 ZINC000003936474   -0.0900
13     C13    -2.4701   -2.7838    8.3508 C.ar     1 ZINC000003936474   -0.1000
14     C14    -3.0563   -3.9143    7.8695 C.ar     1 ZINC000003936474   -0.1000
15     C15    -3.2787   -4.0800    6.5030 C.ar     1 ZINC000003936474   -0.1000
16     C16    -2.9178   -3.1190    5.6112 C.ar     1 ZINC000003936474   -0.0800
17     C17    -2.3091   -1.9344    6.0689 C.ar     1 ZINC000003936474    0.1200
18     N18    -1.9504   -0.9741    5.2177 N.ar     1 ZINC000003936474   -0.4400
19     C19    -1.7128    1.8693    1.1365 C.2      1 ZINC000003936474    0.5100
20     O20    -2.3677    0.8640    0.9595 O.2      1 ZINC000003936474   -0.5000
21     N21    -1.7588    2.8709    0.2358 N.am     1 ZINC000003936474   -0.7200
22     C22    -2.5402    2.7151   -0.9936 C.3      1 ZINC000003936474    0.1300
23     H23    -2.4872    1.6793   -1.3289 H        1 ZINC000003936474    0.1000
24     C24    -3.9986    3.0892   -0.7218 C.3      1 ZINC000003936474   -0.1000
25     C25    -4.5946    2.1097    0.2562 C.ar     1 ZINC000003936474   -0.0600
26     C26    -5.2111    0.9614   -0.2045 C.ar     1 ZINC000003936474   -0.1100
27     C27    -5.7578    0.0629    0.6926 C.ar     1 ZINC000003936474   -0.1100
28     C28    -5.6876    0.3125    2.0504 C.ar     1 ZINC000003936474   -0.1200
29     C29    -5.0703    1.4604    2.5112 C.ar     1 ZINC000003936474   -0.1100
30     C30    -4.5198    2.3568    1.6143 C.ar     1 ZINC000003936474   -0.1100
31     C31    -1.9721    3.6322   -2.0785 C.3      1 ZINC000003936474    0.0600
32     H32    -0.9100    3.4254   -2.2095 H        1 ZINC000003936474    0.1200
33     O33    -2.1475    4.9959   -1.6894 O.3      1 ZINC000003936474   -0.5600
34     C34    -2.7072    3.3793   -3.3963 C.3      1 ZINC000003936474    0.0200
35     N35    -2.0794    4.1663   -4.4661 N.3      1 ZINC000003936474   -0.5000
36     C36    -0.6207    3.9974   -4.4569 C.3      1 ZINC000003936474    0.0500
37     C37    -0.0156    4.7113   -5.6678 C.3      1 ZINC000003936474   -0.1400
38     C38    -0.3763    6.1983   -5.6104 C.3      1 ZINC000003936474    0.1000
39     H39     0.0551    6.6434   -4.7138 H        1 ZINC000003936474    0.0600
40     O40     0.1393    6.8598   -6.7674 O.3      1 ZINC000003936474   -0.3700
41     C41     1.4621    7.3743   -6.6016 C.3      1 ZINC000003936474    0.1000
42     C42     1.9027    8.0474   -7.8759 C.ar     1 ZINC000003936474   -0.0500
43     C43     2.5551    7.3313   -8.8679 C.ar     1 ZINC000003936474   -0.1500
44     C44     2.9444    7.9824  -10.0231 C.ar     1 ZINC000003936474    0.1000
45     N45     2.7022    9.2683  -10.1870 N.ar     1 ZINC000003936474   -0.4800
46     C46     2.0842    9.9805   -9.2652 C.ar     1 ZINC000003936474    0.1000
47     C47     1.6601    9.3961   -8.0867 C.ar     1 ZINC000003936474   -0.1500
48     C48    -1.9000    6.3447   -5.5720 C.3      1 ZINC000003936474   -0.1000
49     C49    -2.4505    5.5835   -4.3639 C.3      1 ZINC000003936474    0.0600
50     H50    -2.0326    6.0033   -3.4489 H        1 ZINC000003936474    0.0900
51     C51    -3.9520    5.7082   -4.3335 C.2      1 ZINC000003936474    0.5200
52     O52    -4.6415    4.8635   -4.8645 O.2      1 ZINC000003936474   -0.5100
53     N53    -4.5286    6.7584   -3.7162 N.am     1 ZINC000003936474   -0.7300
54     C54    -5.9883    6.8796   -3.6866 C.3      1 ZINC000003936474    0.1700
55     C55    -6.5870    5.6615   -2.9804 C.3      1 ZINC000003936474   -0.1600
56     C56    -6.3792    8.1508   -2.9303 C.3      1 ZINC000003936474   -0.1600
57     C57    -6.5231    6.9531   -5.1182 C.3      1 ZINC000003936474   -0.1700
58     H58     2.5561    2.0693    2.8842 H        1 ZINC000003936474    0.0500
59     H59     1.2743    3.0877    3.5828 H        1 ZINC000003936474    0.0700
60     H60     1.3307    1.3480    3.9549 H        1 ZINC000003936474    0.0600
61     H61     0.8724    2.4995    1.1675 H        1 ZINC000003936474    0.0800
62     H62     0.5928   -0.3150    2.3152 H        1 ZINC000003936474    0.0600
63     H63     0.2116    0.1674    0.6448 H        1 ZINC000003936474    0.0600
64     H64     1.8908    0.2395    1.2308 H        1 ZINC000003936474    0.0600
65     H65    -1.6520    0.1544    3.0418 H        1 ZINC000003936474    0.4200
66     H66    -0.6560    1.2788    7.3207 H        1 ZINC000003936474    0.1500
67     H67    -1.2902   -0.4313    8.9732 H        1 ZINC000003936474    0.1500
68     H68    -2.3030   -2.6683    9.4115 H        1 ZINC000003936474    0.1300
69     H69    -3.3530   -4.6937    8.5557 H        1 ZINC000003936474    0.1300
70     H70    -3.7450   -4.9868    6.1470 H        1 ZINC000003936474    0.1300
71     H71    -3.0971   -3.2637    4.5560 H        1 ZINC000003936474    0.1400
72     H72    -1.2745    3.6948    0.4016 H        1 ZINC000003936474    0.4000
73     H73    -4.0438    4.0943   -0.3025 H        1 ZINC000003936474    0.0700
74     H74    -4.5614    3.0591   -1.6547 H        1 ZINC000003936474    0.0800
75     H75    -5.2659    0.7664   -1.2653 H        1 ZINC000003936474    0.1100
76     H76    -6.2400   -0.8339    0.3326 H        1 ZINC000003936474    0.1200
77     H77    -6.1153   -0.3891    2.7512 H        1 ZINC000003936474    0.1100
78     H78    -5.0158    1.6556    3.5720 H        1 ZINC000003936474    0.1100
79     H79    -4.0376    3.2536    1.9742 H        1 ZINC000003936474    0.1000
80     H80    -3.0705    5.2509   -1.5547 H        1 ZINC000003936474    0.3700
81     H81    -2.6527    2.3195   -3.6452 H        1 ZINC000003936474    0.0900
82     H82    -3.7512    3.6750   -3.2926 H        1 ZINC000003936474    0.1000
83     H83    -0.2114    4.4246   -3.5415 H        1 ZINC000003936474    0.0500
84     H84    -0.3777    2.9358   -4.5024 H        1 ZINC000003936474    0.0800
85     H85     1.0685    4.5989   -5.6522 H        1 ZINC000003936474    0.0700
86     H86    -0.4141    4.2753   -6.5839 H        1 ZINC000003936474    0.0800
87     H87     1.4710    8.0980   -5.7866 H        1 ZINC000003936474    0.0600
88     H88     2.1436    6.5562   -6.3684 H        1 ZINC000003936474    0.0600
89     H89     2.7570    6.2782   -8.7392 H        1 ZINC000003936474    0.1400
90     H90     3.4531    7.4318  -10.8005 H        1 ZINC000003936474    0.1600
91     H91     1.9036   11.0317   -9.4348 H        1 ZINC000003936474    0.1600
92     H92     1.1541    9.9846   -7.3357 H        1 ZINC000003936474    0.1400
93     H93    -2.1622    7.3993   -5.4880 H        1 ZINC000003936474    0.0800
94     H94    -2.3281    5.9344   -6.4866 H        1 ZINC000003936474    0.0900
95     H95    -3.9771    7.4340   -3.2915 H        1 ZINC000003936474    0.4000
96     H96    -6.2060    5.6091   -1.9605 H        1 ZINC000003936474    0.0500
97     H97    -7.6730    5.7517   -2.9584 H        1 ZINC000003936474    0.0600
98     H98    -6.3085    4.7559   -3.5193 H        1 ZINC000003936474    0.0800
99     H99    -5.9527    9.0186   -3.4333 H        1 ZINC000003936474    0.0600
100    H100   -7.4653    8.2410   -2.9082 H        1 ZINC000003936474    0.0700
101    H101   -5.9983    8.0985   -1.9104 H        1 ZINC000003936474    0.0600
102    H102   -6.2445    6.0475   -5.6571 H        1 ZINC000003936474    0.0800
103    H103   -7.6091    7.0433   -5.0962 H        1 ZINC000003936474    0.0600
104    H104   -6.0965    7.8209   -5.6213 H        1 ZINC000003936474    0.0500
@<TRIPOS>BOND
1     1     2     1
2     1     58    1
3     1     59    1
4     1     60    1
5     2     3     1
6     2     4     1
7     2     61    1
8     3     62    1
9     3     63    1
10    3     64    1
11    4     5     1
12    4     6     1
13    4     19    1
14    6     7     am
15    6     65    1
16    7     8     2
17    7     9     1
18    9     18    ar
19    9     10    ar
20    10    11    ar
21    10    66    1
22    11    12    ar
23    11    67    1
24    12    17    ar
25    12    13    ar
26    13    14    ar
27    13    68    1
28    14    15    ar
29    14    69    1
30    15    16    ar
31    15    70    1
32    16    17    ar
33    16    71    1
34    17    18    ar
35    19    20    2
36    19    21    am
37    21    22    1
38    21    72    1
39    22    23    1
40    22    24    1
41    22    31    1
42    24    25    1
43    24    73    1
44    24    74    1
45    25    30    ar
46    25    26    ar
47    26    27    ar
48    26    75    1
49    27    28    ar
50    27    76    1
51    28    29    ar
52    28    77    1
53    29    30    ar
54    29    78    1
55    30    79    1
56    31    32    1
57    31    33    1
58    31    34    1
59    33    80    1
60    34    35    1
61    34    81    1
62    34    82    1
63    35    49    1
64    35    36    1
65    36    37    1
66    36    83    1
67    36    84    1
68    37    38    1
69    37    85    1
70    37    86    1
71    38    39    1
72    38    40    1
73    38    48    1
74    40    41    1
75    41    42    1
76    41    87    1
77    41    88    1
78    42    47    ar
79    42    43    ar
80    43    44    ar
81    43    89    1
82    44    45    ar
83    44    90    1
84    45    46    ar
85    46    47    ar
86    46    91    1
87    47    92    1
88    48    49    1
89    48    93    1
90    48    94    1
91    49    50    1
92    49    51    1
93    51    52    2
94    51    53    am
95    53    54    1
96    53    95    1
97    54    55    1
98    54    56    1
99    54    57    1
100   55    96    1
101   55    97    1
102   55    98    1
103   56    99    1
104   56    100   1
105   56    101   1
106   57    102   1
107   57    103   1
108   57    104   1
@<TRIPOS>SUBSTRUCTURE
1   ZINC000003936474 1     RESIDUE    1   A     ZIN   1
