@<TRIPOS>MOLECULE
ZINC000089630354
58    60    1     0     0
SMALL
USER_CHARGES
@<TRIPOS>ATOM
1      O1      0.7152   -2.1984   -0.2306 O.2      1 ZINC000089630354   -0.6000
2      C2      0.5146   -1.0039   -0.2926 C.2      1 ZINC000089630354    0.4500
3      C3      1.6766   -0.0445   -0.3060 C.3      1 ZINC000089630354   -0.1400
4      C4      2.9875   -0.8300   -0.2328 C.3      1 ZINC000089630354   -0.1000
5      C5      4.1673    0.1441   -0.2463 C.3      1 ZINC000089630354   -0.1200
6      C6      5.4782   -0.6415   -0.1731 C.3      1 ZINC000089630354   -0.1200
7      C7      6.6579    0.3326   -0.1867 C.3      1 ZINC000089630354   -0.1300
8      C8      7.9688   -0.4530   -0.1135 C.3      1 ZINC000089630354    0.1200
9      N9      9.0984    0.4797   -0.1265 N.am     1 ZINC000089630354   -0.7300
10     C10    10.3606    0.0104   -0.0696 C.2      1 ZINC000089630354    0.5700
11     O11    10.5616   -1.1872   -0.0074 O.2      1 ZINC000089630354   -0.5300
12     C12    11.4983    0.9498   -0.0826 C.ar     1 ZINC000089630354   -0.3000
13     C13    11.2874    2.3336   -0.1479 C.ar     1 ZINC000089630354    0.2300
14     N14    12.3316    3.1402   -0.1570 N.ar     1 ZINC000089630354   -0.5500
15     C15    13.5661    2.6572   -0.1055 C.ar     1 ZINC000089630354    0.5800
16     N16    14.6319    3.5373   -0.1168 N.pl3    1 ZINC000089630354   -0.4900
17     C17    15.9378    3.0564    0.0271 C.ar     1 ZINC000089630354    0.1500
18     C18    16.6663    3.3524    1.1721 C.ar     1 ZINC000089630354   -0.1100
19     C19    17.9551    2.8761    1.3110 C.ar     1 ZINC000089630354   -0.1100
20     C20    18.5207    2.1057    0.3115 C.ar     1 ZINC000089630354   -0.1100
21     C21    17.7983    1.8096   -0.8299 C.ar     1 ZINC000089630354   -0.1100
22     C22    16.5066    2.2772   -0.9722 C.ar     1 ZINC000089630354   -0.0900
23     C23    14.4048    4.9090   -0.2722 C.ar     1 ZINC000089630354    0.1500
24     C24    13.7645    5.6264    0.7302 C.ar     1 ZINC000089630354   -0.1000
25     C25    13.5418    6.9804    0.5737 C.ar     1 ZINC000089630354   -0.1100
26     C26    13.9551    7.6218   -0.5796 C.ar     1 ZINC000089630354   -0.1100
27     C27    14.5925    6.9105   -1.5797 C.ar     1 ZINC000089630354   -0.1100
28     C28    14.8242    5.5576   -1.4266 C.ar     1 ZINC000089630354   -0.1100
29     N29    13.8076    1.3543   -0.0430 N.ar     1 ZINC000089630354   -0.5500
30     C30    12.8178    0.4818   -0.0242 C.ar     1 ZINC000089630354    0.2500
31     N31    -0.7474   -0.5348   -0.3551 N.am     1 ZINC000089630354   -0.5400
32     O32    -1.8390   -1.4366   -0.3485 O.3      1 ZINC000089630354   -0.6900
33     H33     1.6544    0.5404   -1.2255 H        1 ZINC000089630354    0.0700
34     H34     1.6055    0.6244    0.5518 H        1 ZINC000089630354    0.0700
35     H35     3.0098   -1.4149    0.6868 H        1 ZINC000089630354    0.0700
36     H36     3.0587   -1.4988   -1.0905 H        1 ZINC000089630354    0.0700
37     H37     4.1450    0.7289   -1.1659 H        1 ZINC000089630354    0.0600
38     H38     4.0961    0.8129    0.6114 H        1 ZINC000089630354    0.0600
39     H39     5.5004   -1.2263    0.7464 H        1 ZINC000089630354    0.0700
40     H40     5.5493   -1.3103   -1.0309 H        1 ZINC000089630354    0.0700
41     H41     6.6357    0.9174   -1.1062 H        1 ZINC000089630354    0.0700
42     H42     6.5867    1.0014    0.6711 H        1 ZINC000089630354    0.0700
43     H43     7.9910   -1.0378    0.8061 H        1 ZINC000089630354    0.0700
44     H44     8.0400   -1.1218   -0.9712 H        1 ZINC000089630354    0.0700
45     H45     8.9380    1.4351   -0.1760 H        1 ZINC000089630354    0.4000
46     H46    10.2852    2.7338   -0.1905 H        1 ZINC000089630354    0.1700
47     H47    16.2254    3.9546    1.9528 H        1 ZINC000089630354    0.1200
48     H48    18.5221    3.1058    2.2010 H        1 ZINC000089630354    0.1300
49     H49    19.5289    1.7347    0.4224 H        1 ZINC000089630354    0.1300
50     H50    18.2430    1.2079   -1.6088 H        1 ZINC000089630354    0.1300
51     H51    15.9429    2.0453   -1.8637 H        1 ZINC000089630354    0.1200
52     H52    13.4408    5.1259    1.6308 H        1 ZINC000089630354    0.1200
53     H53    13.0440    7.5387    1.3526 H        1 ZINC000089630354    0.1300
54     H54    13.7794    8.6807   -0.6997 H        1 ZINC000089630354    0.1300
55     H55    14.9137    7.4143   -2.4793 H        1 ZINC000089630354    0.1300
56     H56    15.3223    5.0027   -2.2079 H        1 ZINC000089630354    0.1200
57     H57    13.0218   -0.5775    0.0271 H        1 ZINC000089630354    0.1800
58     H58    -0.9078    0.4205   -0.4047 H        1 ZINC000089630354    0.3600
@<TRIPOS>BOND
1     1     2     2
2     2     3     1
3     2     31    am
4     3     4     1
5     3     33    1
6     3     34    1
7     4     5     1
8     4     35    1
9     4     36    1
10    5     6     1
11    5     37    1
12    5     38    1
13    6     7     1
14    6     39    1
15    6     40    1
16    7     8     1
17    7     41    1
18    7     42    1
19    8     9     1
20    8     43    1
21    8     44    1
22    9     10    am
23    9     45    1
24    10    11    2
25    10    12    1
26    12    30    ar
27    12    13    ar
28    13    14    ar
29    13    46    1
30    14    15    ar
31    15    16    1
32    15    29    ar
33    16    17    1
34    16    23    1
35    17    22    ar
36    17    18    ar
37    18    19    ar
38    18    47    1
39    19    20    ar
40    19    48    1
41    20    21    ar
42    20    49    1
43    21    22    ar
44    21    50    1
45    22    51    1
46    23    28    ar
47    23    24    ar
48    24    25    ar
49    24    52    1
50    25    26    ar
51    25    53    1
52    26    27    ar
53    26    54    1
54    27    28    ar
55    27    55    1
56    28    56    1
57    29    30    ar
58    30    57    1
59    31    32    1
60    31    58    1
@<TRIPOS>SUBSTRUCTURE
1   ZINC000089630354 1     RESIDUE    1   A     ZIN   1
