@<TRIPOS>MOLECULE
ZINC000029485479
41    44    1     0     0
SMALL
USER_CHARGES
@<TRIPOS>ATOM
1      F1      0.0021   -0.0041    0.0020 F        1 ZINC000029485479   -0.1300
2      C2     -0.0162    1.3468    0.0094 C.ar     1 ZINC000029485479    0.1000
3      C3     -1.2312    2.0215    0.0305 C.ar     1 ZINC000029485479   -0.1200
4      C4     -1.2684    3.3984    0.0389 C.ar     1 ZINC000029485479   -0.0900
5      C5     -0.0842    4.1262    0.0258 C.ar     1 ZINC000029485479    0.0900
6      N6      0.1946    5.4780    0.0288 N.pl3    1 ZINC000029485479   -0.5700
7      C7      1.5431    5.6723    0.0070 C.2      1 ZINC000029485479    0.1000
8      C8      2.1748    4.4801   -0.0065 C.2      1 ZINC000029485479   -0.2300
9      C9      3.6727    4.3236   -0.0279 C.3      1 ZINC000029485479    0.0900
10     N10     4.2816    5.6010    0.3785 N.4      1 ZINC000029485479   -0.3900
11     H11     4.0818    5.7721    1.3526 H        1 ZINC000029485479    0.4300
12     C12     5.7360    5.5311    0.1844 C.3      1 ZINC000029485479   -0.0100
13     C13     6.3842    6.8087    0.7213 C.3      1 ZINC000029485479   -0.1000
14     C14     7.8762    6.7370    0.5222 C.ar     1 ZINC000029485479   -0.0600
15     C15     8.6967    6.1884    1.4960 C.ar     1 ZINC000029485479   -0.1700
16     C16    10.0606    6.1396    1.2783 C.ar     1 ZINC000029485479    0.1100
17     N17    10.5825    6.6074    0.1613 N.ar     1 ZINC000029485479   -0.4700
18     C18     9.8330    7.1358   -0.7863 C.ar     1 ZINC000029485479    0.1100
19     C19     8.4607    7.2129   -0.6416 C.ar     1 ZINC000029485479   -0.1700
20     C20     3.7367    6.6990   -0.4308 C.3      1 ZINC000029485479   -0.0100
21     C21     2.2904    6.9869   -0.0059 C.3      1 ZINC000029485479   -0.0800
22     C22     1.1489    3.4449    0.0042 C.ar     1 ZINC000029485479   -0.0500
23     C23     1.1697    2.0482    0.0019 C.ar     1 ZINC000029485479   -0.1200
24     H24    -2.1544    1.4611    0.0399 H        1 ZINC000029485479    0.1500
25     H25    -2.2179    3.9126    0.0553 H        1 ZINC000029485479    0.1400
26     H26    -0.4702    6.1842    0.0439 H        1 ZINC000029485479    0.4300
27     H27     3.9689    3.5389    0.6682 H        1 ZINC000029485479    0.1400
28     H28     3.9997    4.0662   -1.0353 H        1 ZINC000029485479    0.1400
29     H29     6.1331    4.6692    0.7206 H        1 ZINC000029485479    0.1400
30     H30     5.9563    5.4308   -0.8784 H        1 ZINC000029485479    0.1400
31     H31     5.9871    7.6706    0.1850 H        1 ZINC000029485479    0.1000
32     H32     6.1639    6.9090    1.7841 H        1 ZINC000029485479    0.1000
33     H33     8.2752    5.8043    2.4132 H        1 ZINC000029485479    0.1400
34     H34    10.7065    5.7138    2.0319 H        1 ZINC000029485479    0.1600
35     H35    10.2964    7.5090   -1.6876 H        1 ZINC000029485479    0.1600
36     H36     7.8521    7.6465   -1.4214 H        1 ZINC000029485479    0.1400
37     H37     4.3426    7.5931   -0.2839 H        1 ZINC000029485479    0.1400
38     H38     3.7560    6.4177   -1.4837 H        1 ZINC000029485479    0.1400
39     H39     1.8254    7.6692   -0.7175 H        1 ZINC000029485479    0.1300
40     H40     2.2792    7.4277    0.9909 H        1 ZINC000029485479    0.1100
41     H41     2.1118    1.5202   -0.0089 H        1 ZINC000029485479    0.1400
@<TRIPOS>BOND
1     1     2     1
2     2     23    ar
3     2     3     ar
4     3     4     ar
5     3     24    1
6     4     5     ar
7     4     25    1
8     5     22    ar
9     5     6     1
10    6     7     1
11    6     26    1
12    7     21    1
13    7     8     2
14    8     9     1
15    8     22    1
16    9     10    1
17    9     27    1
18    9     28    1
19    10    11    1
20    10    12    1
21    10    20    1
22    12    13    1
23    12    29    1
24    12    30    1
25    13    14    1
26    13    31    1
27    13    32    1
28    14    19    ar
29    14    15    ar
30    15    16    ar
31    15    33    1
32    16    17    ar
33    16    34    1
34    17    18    ar
35    18    19    ar
36    18    35    1
37    19    36    1
38    20    21    1
39    20    37    1
40    20    38    1
41    21    39    1
42    21    40    1
43    22    23    ar
44    23    41    1
@<TRIPOS>SUBSTRUCTURE
1   ZINC000029485479 1     RESIDUE    1   A     ZIN   1
