@<TRIPOS>MOLECULE
ZINC000005650422
  62   61    0    0    0
SMALL
USER_CHARGES
NO_NAME
@<TRIPOS>ATOM
    1 C1       -0.0187     1.5258     0.0104 C.3    1 <0>      -0.1900
    2 C2        0.0021    -0.0041     0.0020 C.3    1 <0>      -0.0100
    3 N3        0.6897    -0.4778    -1.2066 N.4    1 <0>      -0.5100
    4 H4        0.2017    -0.1436    -2.0240 H      1 <0>       0.4300
    5 H5        1.6363    -0.1286    -1.2138 H      1 <0>       0.4300
    6 C6        0.7096    -1.9467    -1.2147 C.3    1 <0>      -0.0100
    7 C7        1.4257    -2.4401    -2.4735 C.3    1 <0>      -0.1500
    8 C8        1.4465    -3.9699    -2.4819 C.3    1 <0>      -0.1500
    9 C9        2.1626    -4.4633    -3.7407 C.3    1 <0>      -0.0100
   10 N10       2.1825    -5.9322    -3.7488 N.4    1 <0>      -0.5100
   11 H11       2.6705    -6.2664    -2.9313 H      1 <0>       0.4300
   12 H12       1.2359    -6.2814    -3.7416 H      1 <0>       0.4300
   13 C13       2.8701    -6.4059    -4.9574 C.3    1 <0>      -0.0100
   14 C14       2.8909    -7.9358    -4.9658 C.3    1 <0>      -0.1500
   15 C15       3.6070    -8.4292    -6.2246 C.3    1 <0>      -0.1500
   16 C16       3.6278    -9.9590    -6.2330 C.3    1 <0>      -0.0100
   17 N17       4.3153   -10.4328    -7.4416 N.4    1 <0>      -0.5100
   18 H18       3.8273   -10.0985    -8.2591 H      1 <0>       0.4300
   19 H19       5.2619   -10.0835    -7.4488 H      1 <0>       0.4300
   20 C20       4.3353   -11.9016    -7.4497 C.3    1 <0>      -0.0100
   21 C21       5.0514   -12.3950    -8.7085 C.3    1 <0>      -0.1500
   22 C22       5.0722   -13.9249    -8.7169 C.3    1 <0>      -0.1500
   23 C23       5.7883   -14.4183    -9.9757 C.3    1 <0>      -0.0100
   24 N24       5.8082   -15.8871    -9.9838 N.4    1 <0>      -0.5100
   25 H25       6.2962   -16.2214    -9.1664 H      1 <0>       0.4300
   26 H26       4.8616   -16.2364    -9.9766 H      1 <0>       0.4300
   27 C27       6.4958   -16.3609   -11.1924 C.3    1 <0>      -0.0100
   28 C28       6.5166   -17.8907   -11.2008 C.3    1 <0>      -0.1900
   29 H29       1.0039     1.9031     0.0027 H      1 <0>       0.0800
   30 H30      -0.5459     1.8868    -0.8726 H      1 <0>       0.0800
   31 H31      -0.5289     1.8773     0.9072 H      1 <0>       0.1100
   32 H32       0.5293    -0.3651     0.8851 H      1 <0>       0.1300
   33 H33      -1.0205    -0.3814     0.0098 H      1 <0>       0.1300
   34 H34       1.2368    -2.3077    -0.3316 H      1 <0>       0.1400
   35 H35      -0.3130    -2.3239    -1.2069 H      1 <0>       0.1400
   36 H36       0.8985    -2.0790    -3.3565 H      1 <0>       0.1000
   37 H37       2.4483    -2.0628    -2.4812 H      1 <0>       0.1000
   38 H38       1.9737    -4.3310    -1.5988 H      1 <0>       0.1000
   39 H39       0.4239    -4.3472    -2.4742 H      1 <0>       0.1000
   40 H40       1.6354    -4.1023    -4.6238 H      1 <0>       0.1400
   41 H41       3.1852    -4.0860    -3.7484 H      1 <0>       0.1400
   42 H42       2.3429    -6.0448    -5.8404 H      1 <0>       0.1400
   43 H43       3.8927    -6.0286    -4.9651 H      1 <0>       0.1400
   44 H44       3.4181    -8.2968    -4.0827 H      1 <0>       0.1000
   45 H45       1.8683    -8.3130    -4.9581 H      1 <0>       0.1000
   46 H46       3.0798    -8.0681    -7.1077 H      1 <0>       0.1000
   47 H47       4.6296    -8.0519    -6.2323 H      1 <0>       0.1000
   48 H48       4.1549   -10.3201    -5.3500 H      1 <0>       0.1400
   49 H49       2.6052   -10.3363    -6.2253 H      1 <0>       0.1400
   50 H50       4.8625   -12.2627    -6.5666 H      1 <0>       0.1400
   51 H51       3.3127   -12.2789    -7.4420 H      1 <0>       0.1400
   52 H52       4.5242   -12.0339    -9.5916 H      1 <0>       0.1000
   53 H53       6.0740   -12.0177    -8.7163 H      1 <0>       0.1000
   54 H54       5.5993   -14.2859    -7.8339 H      1 <0>       0.1000
   55 H55       4.0496   -14.3021    -8.7092 H      1 <0>       0.1000
   56 H56       5.2611   -14.0572   -10.8588 H      1 <0>       0.1400
   57 H57       6.8109   -14.0410    -9.9835 H      1 <0>       0.1400
   58 H58       5.9686   -15.9998   -12.0755 H      1 <0>       0.1300
   59 H59       7.5184   -15.9836   -11.2002 H      1 <0>       0.1300
   60 H60       7.0437   -18.2518   -10.3178 H      1 <0>       0.0800
   61 H61       5.4940   -18.2680   -11.1931 H      1 <0>       0.0800
   62 H62       7.0267   -18.2422   -12.0976 H      1 <0>       0.1100
@<TRIPOS>BOND
   1    1    2 1
   2    1   29 1
   3    1   30 1
   4    1   31 1
   5    2    3 1
   6    2   32 1
   7    2   33 1
   8    3    4 1
   9    3    5 1
  10    3    6 1
  11    6    7 1
  12    6   34 1
  13    6   35 1
  14    7    8 1
  15    7   36 1
  16    7   37 1
  17    8    9 1
  18    8   38 1
  19    8   39 1
  20    9   10 1
  21    9   40 1
  22    9   41 1
  23   10   11 1
  24   10   12 1
  25   10   13 1
  26   13   14 1
  27   13   42 1
  28   13   43 1
  29   14   15 1
  30   14   44 1
  31   14   45 1
  32   15   16 1
  33   15   46 1
  34   15   47 1
  35   16   17 1
  36   16   48 1
  37   16   49 1
  38   17   18 1
  39   17   19 1
  40   17   20 1
  41   20   21 1
  42   20   50 1
  43   20   51 1
  44   21   22 1
  45   21   52 1
  46   21   53 1
  47   22   23 1
  48   22   54 1
  49   22   55 1
  50   23   24 1
  51   23   56 1
  52   23   57 1
  53   24   25 1
  54   24   26 1
  55   24   27 1
  56   27   28 1
  57   27   58 1
  58   27   59 1
  59   28   60 1
  60   28   61 1
  61   28   62 1
