@<TRIPOS>MOLECULE
ZINC000000093989
  30   32    0    0    0
SMALL
USER_CHARGES
NO_NAME
@<TRIPOS>ATOM
    1 N1       -0.0162     1.3436     0.0094 N.am   1 <0>      -0.8500
    2 C2        0.0021    -0.0041     0.0020 C.2    1 <0>       0.5200
    3 O3        1.0605    -0.5961    -0.0113 O.2    1 <0>      -0.5400
    4 C4       -1.2926    -0.7753     0.0102 C.3    1 <0>      -0.0500
    5 H5       -1.8781    -0.5166    -0.8720 H      1 <0>       0.1200
    6 C6       -2.0880    -0.4317     1.2743 C.3    1 <0>      -0.1100
    7 C7       -3.2725    -1.3929     1.4083 C.3    1 <0>      -0.1200
    8 C8       -2.7525    -2.7927     1.7561 C.3    1 <0>      -0.0500
    9 C9       -1.6511    -3.1491     0.7902 C.2    1 <0>      -0.1600
   10 C10      -1.0001    -2.2574     0.0082 C.2    1 <0>       0.0900
   11 N11      -0.0609    -2.9049    -0.7510 N.pl3  1 <0>      -0.5600
   12 C12      -0.0850    -4.2423    -0.4746 C.ar   1 <0>       0.1100
   13 C13       0.6576    -5.3107    -0.9718 C.ar   1 <0>      -0.1200
   14 C14       0.3719    -6.5666    -0.4651 C.ar   1 <0>      -0.0900
   15 C15      -0.6063    -6.7718     0.4952 C.ar   1 <0>      -0.0600
   16 Cl16     -0.8952    -8.3830     1.0733 Cl     1 <0>      -0.0800
   17 C17      -1.3591    -5.7291     1.0069 C.ar   1 <0>      -0.0500
   18 C18      -1.0890    -4.4531     0.5059 C.ar   1 <0>      -0.0900
   19 H19       0.8172     1.8399     0.0041 H      1 <0>       0.4100
   20 H20      -0.8627     1.8171     0.0160 H      1 <0>       0.4000
   21 H21      -1.4422    -0.5269     2.1472 H      1 <0>       0.0800
   22 H22      -2.4566     0.5918     1.2048 H      1 <0>       0.0800
   23 H23      -3.9362    -1.0443     2.1996 H      1 <0>       0.0800
   24 H24      -3.8183    -1.4313     0.4656 H      1 <0>       0.0700
   25 H25      -2.3621    -2.7958     2.7738 H      1 <0>       0.0700
   26 H26      -3.5632    -3.5162     1.6700 H      1 <0>       0.0800
   27 H27       0.5318    -2.4778    -1.3891 H      1 <0>       0.4200
   28 H28       1.4226    -5.1655    -1.7202 H      1 <0>       0.1400
   29 H29       0.9300    -7.4158    -0.8308 H      1 <0>       0.1300
   30 H30      -2.1201    -5.8942     1.7552 H      1 <0>       0.1400
@<TRIPOS>BOND
   1    1    2 am
   2    1   19 1
   3    1   20 1
   4    2    3 2
   5    2    4 1
   6    4    5 1
   7    4   10 1
   8    4    6 1
   9    6    7 1
  10    6   21 1
  11    6   22 1
  12    7    8 1
  13    7   23 1
  14    7   24 1
  15    8    9 1
  16    8   25 1
  17    8   26 1
  18    9   18 1
  19    9   10 2
  20   10   11 1
  21   11   12 1
  22   11   27 1
  23   12   18 ar
  24   12   13 ar
  25   13   14 ar
  26   13   28 1
  27   14   15 ar
  28   14   29 1
  29   15   16 1
  30   15   17 ar
  31   17   18 ar
  32   17   30 1
