@<TRIPOS>MOLECULE
ZINC000043195938
71    76    1     0     0
SMALL
USER_CHARGES
@<TRIPOS>ATOM
1      O1      0.0022   -0.0041    0.0233 O.2      1 ZINC000043195938   -0.5400
2      C2     -0.0143    1.2115    0.0239 C.2      1 ZINC000043195938    0.5600
3      O3      1.1439    1.9014    0.0170 O.3      1 ZINC000043195938   -0.4900
4      C4     -1.2968    1.9288    0.0261 C.2      1 ZINC000043195938   -0.3300
5      C5     -2.4888    1.2338    0.0332 C.2      1 ZINC000043195938    0.2500
6      N6     -3.6761    1.8540    0.0350 N.pl3    1 ZINC000043195938   -0.4500
7      C7     -4.8934    1.0390    0.0427 C.3      1 ZINC000043195938    0.0300
8      C8     -4.7488   -0.4498   -0.2792 C.3      1 ZINC000043195938   -0.1800
9      C9     -5.0397   -0.0019    1.1545 C.3      1 ZINC000043195938   -0.1800
10     C10    -3.8008    3.2275    0.0303 C.ar     1 ZINC000043195938    0.2000
11     C11    -5.0571    3.8215    0.0329 C.ar     1 ZINC000043195938   -0.1600
12     C12    -5.1661    5.2028    0.0286 C.ar     1 ZINC000043195938    0.1500
13     N13    -6.4261    5.7963    0.0317 N.3      1 ZINC000043195938   -0.4900
14     C14    -6.3200    7.2571   -0.0744 C.3      1 ZINC000043195938    0.0400
15     C15    -7.7184    7.8626   -0.2145 C.3      1 ZINC000043195938   -0.1100
16     C16    -8.5594    7.4807    1.0067 C.3      1 ZINC000043195938    0.1400
17     O17    -7.9653    8.0278    2.1857 O.3      1 ZINC000043195938   -0.5500
18     C18    -9.9768    8.0334    0.8447 C.3      1 ZINC000043195938    0.0300
19     O19   -10.7606    7.6763    1.9849 O.3      1 ZINC000043195938   -0.3100
20     C20   -12.0552    8.0935    1.9996 C.ar     1 ZINC000043195938    0.0800
21     C21   -12.5595    8.8254    0.9360 C.ar     1 ZINC000043195938   -0.1500
22     C22   -13.8745    9.2493    0.9498 C.ar     1 ZINC000043195938   -0.1200
23     C23   -14.6918    8.9425    2.0288 C.ar     1 ZINC000043195938    0.1800
24     N24   -16.0257    9.3722    2.0421 N.am     1 ZINC000043195938   -0.5700
25     C25   -16.9942    9.1221    3.1206 C.3      1 ZINC000043195938    0.0700
26     C26   -18.2821    9.8065    2.6233 C.3      1 ZINC000043195938    0.0700
27     H27   -18.5831   10.5987    3.3088 H        1 ZINC000043195938    0.1300
28     C28   -19.4068    8.7815    2.4635 C.3      1 ZINC000043195938    0.0700
29     O29   -20.6183    9.4541    2.1148 O.3      1 ZINC000043195938   -0.5600
30     O30   -17.9084   10.3645    1.3303 O.3      1 ZINC000043195938   -0.3000
31     C31   -16.6252   10.0828    1.0770 C.2      1 ZINC000043195938    0.6400
32     O32   -16.0574   10.4330    0.0614 O.2      1 ZINC000043195938   -0.5000
33     C33   -14.1878    8.2093    3.0949 C.ar     1 ZINC000043195938   -0.1500
34     C34   -12.8735    7.7810    3.0782 C.ar     1 ZINC000043195938    0.1000
35     F35   -12.3821    7.0672    4.1146 F        1 ZINC000043195938   -0.1300
36     C36    -8.6139    5.9548    1.1221 C.3      1 ZINC000043195938   -0.1400
37     C37    -7.1894    5.4046    1.2234 C.3      1 ZINC000043195938    0.0600
38     C38    -4.0222    6.0051    0.0217 C.ar     1 ZINC000043195938    0.0300
39     F39    -4.1446    7.3506    0.0175 F        1 ZINC000043195938   -0.1300
40     C40    -2.7805    5.4354    0.0195 C.ar     1 ZINC000043195938   -0.0400
41     C41    -2.6550    4.0442    0.0234 C.ar     1 ZINC000043195938   -0.1800
42     C42    -1.3306    3.4008    0.0270 C.2      1 ZINC000043195938    0.4300
43     O43    -0.3049    4.0594    0.0263 O.2      1 ZINC000043195938   -0.4500
44     H44     1.9619    1.3858    0.0116 H        1 ZINC000043195938    0.4100
45     H45    -2.4636    0.1541    0.0371 H        1 ZINC000043195938    0.1800
46     H46    -5.7983    1.5423   -0.2978 H        1 ZINC000043195938    0.1500
47     H47    -5.5587   -0.9262   -0.8318 H        1 ZINC000043195938    0.1200
48     H48    -3.7480   -0.8228   -0.4967 H        1 ZINC000043195938    0.1100
49     H49    -4.2302   -0.0802    1.8803 H        1 ZINC000043195938    0.1100
50     H50    -6.0409   -0.1836    1.5453 H        1 ZINC000043195938    0.1200
51     H51    -5.9460    3.2081    0.0379 H        1 ZINC000043195938    0.1500
52     H52    -5.8411    7.6525    0.8213 H        1 ZINC000043195938    0.0800
53     H53    -5.7231    7.5153   -0.9492 H        1 ZINC000043195938    0.1000
54     H54    -7.6404    8.9480   -0.2776 H        1 ZINC000043195938    0.0900
55     H55    -8.1927    7.4783   -1.1175 H        1 ZINC000043195938    0.0900
56     H56    -8.4468    7.8246    2.9993 H        1 ZINC000043195938    0.3800
57     H57    -9.9356    9.1192    0.7577 H        1 ZINC000043195938    0.0800
58     H58   -10.4299    7.6139   -0.0535 H        1 ZINC000043195938    0.0800
59     H59   -11.9240    9.0648    0.0962 H        1 ZINC000043195938    0.1500
60     H60   -14.2665    9.8198    0.1207 H        1 ZINC000043195938    0.1700
61     H61   -17.1549    8.0519    3.2504 H        1 ZINC000043195938    0.1100
62     H62   -16.6552    9.5752    4.0522 H        1 ZINC000043195938    0.1100
63     H63   -19.1446    8.0741    1.6768 H        1 ZINC000043195938    0.0600
64     H64   -19.5460    8.2455    3.4024 H        1 ZINC000043195938    0.0800
65     H65   -21.3757    8.8646    1.9972 H        1 ZINC000043195938    0.3900
66     H66   -14.8233    7.9703    3.9348 H        1 ZINC000043195938    0.1500
67     H67    -9.1755    5.6771    2.0140 H        1 ZINC000043195938    0.0900
68     H68    -9.1022    5.5404    0.2401 H        1 ZINC000043195938    0.0800
69     H69    -7.2241    4.3172    1.2913 H        1 ZINC000043195938    0.0800
70     H70    -6.7064    5.8086    2.1131 H        1 ZINC000043195938    0.0600
71     H71    -1.8986    6.0588    0.0149 H        1 ZINC000043195938    0.1600
@<TRIPOS>BOND
1     1     2     2
2     2     3     1
3     2     4     1
4     3     44    1
5     4     42    1
6     4     5     2
7     5     6     1
8     5     45    1
9     6     7     1
10    6     10    1
11    7     9     1
12    7     8     1
13    7     46    1
14    8     9     1
15    8     47    1
16    8     48    1
17    9     49    1
18    9     50    1
19    10    41    ar
20    10    11    ar
21    11    12    ar
22    11    51    1
23    12    13    1
24    12    38    ar
25    13    37    1
26    13    14    1
27    14    15    1
28    14    52    1
29    14    53    1
30    15    16    1
31    15    54    1
32    15    55    1
33    16    17    1
34    16    18    1
35    16    36    1
36    17    56    1
37    18    19    1
38    18    57    1
39    18    58    1
40    19    20    1
41    20    34    ar
42    20    21    ar
43    21    22    ar
44    21    59    1
45    22    23    ar
46    22    60    1
47    23    24    1
48    23    33    ar
49    24    31    am
50    24    25    1
51    25    26    1
52    25    61    1
53    25    62    1
54    26    27    1
55    26    28    1
56    26    30    1
57    28    29    1
58    28    63    1
59    28    64    1
60    29    65    1
61    30    31    1
62    31    32    2
63    33    34    ar
64    33    66    1
65    34    35    1
66    36    37    1
67    36    67    1
68    36    68    1
69    37    69    1
70    37    70    1
71    38    39    1
72    38    40    ar
73    40    41    ar
74    40    71    1
75    41    42    1
76    42    43    2
@<TRIPOS>SUBSTRUCTURE
1   ZINC000043195938 1     RESIDUE    1   A     ZIN   1
