@<TRIPOS>MOLECULE
ZINC000077311862
68    68    1     0     0
SMALL
USER_CHARGES
@<TRIPOS>ATOM
1      C1     -0.7787    1.5424   -1.9235 C.3      1 ZINC000077311862   -0.1700
2      C2     -0.7036    0.0404   -2.0203 C.2      1 ZINC000077311862    0.5200
3      O3     -1.2292   -0.5343   -2.9500 O.2      1 ZINC000077311862   -0.5400
4      N4     -0.0524   -0.6642   -1.0738 N.am     1 ZINC000077311862   -0.7100
5      C5     -0.0654   -2.1287   -1.1121 C.3      1 ZINC000077311862    0.1500
6      H6     -0.0028   -2.4657   -2.1468 H        1 ZINC000077311862    0.1200
7      C7     -1.3432   -2.6360   -0.4949 C.2      1 ZINC000077311862    0.5200
8      O8     -1.9846   -1.9210    0.2455 O.2      1 ZINC000077311862   -0.4900
9      N9     -1.7731   -3.8843   -0.7657 N.am     1 ZINC000077311862   -0.7200
10     C10    -3.0153   -4.3775   -0.1657 C.3      1 ZINC000077311862    0.1400
11     H11    -3.1220   -3.9684    0.8390 H        1 ZINC000077311862    0.1300
12     C12    -2.9772   -5.9071   -0.0943 C.3      1 ZINC000077311862    0.0900
13     H13    -2.8197   -6.3149   -1.0928 H        1 ZINC000077311862    0.1100
14     O14    -1.8944   -6.3258    0.7778 O.3      1 ZINC000077311862   -0.3400
15     C15    -1.3148   -7.5056    0.5062 C.2      1 ZINC000077311862    0.4500
16     C16    -0.1842   -8.0058    1.3680 C.3      1 ZINC000077311862   -0.1500
17     O17    -1.6994   -8.1666   -0.4292 O.2      1 ZINC000077311862   -0.4900
18     C18    -4.3111   -6.4147    0.4620 C.3      1 ZINC000077311862    0.0500
19     H19    -4.4451   -6.0468    1.4793 H        1 ZINC000077311862    0.1200
20     O20    -4.3138   -7.8667    0.4667 O.3      1 ZINC000077311862   -0.3300
21     C21    -5.0415   -8.4716    1.4187 C.2      1 ZINC000077311862    0.4500
22     C22    -5.0923   -9.9762    1.4863 C.3      1 ZINC000077311862   -0.1500
23     O23    -5.6559   -7.8097    2.2215 O.2      1 ZINC000077311862   -0.5000
24     C24    -5.4516   -5.9025   -0.4216 C.3      1 ZINC000077311862    0.0900
25     H25    -5.3392   -6.3036   -1.4289 H        1 ZINC000077311862    0.1000
26     C26    -6.7916   -6.3556    0.1614 C.3      1 ZINC000077311862    0.0800
27     O27    -7.8652   -5.9720   -0.7379 O.3      1 ZINC000077311862   -0.3500
28     C28    -9.1141   -6.2983   -0.3700 C.2      1 ZINC000077311862    0.4600
29     C29   -10.2795   -5.9329   -1.2530 C.3      1 ZINC000077311862   -0.1500
30     O30    -9.3041   -6.8850    0.6690 O.2      1 ZINC000077311862   -0.5100
31     O31    -5.4108   -4.4749   -0.4698 O.3      1 ZINC000077311862   -0.3600
32     C32    -4.2060   -3.9427   -1.0242 C.3      1 ZINC000077311862    0.2600
33     H33    -4.0764   -4.3176   -2.0395 H        1 ZINC000077311862    0.0800
34     O34    -4.2837   -2.4930   -1.0496 O.3      1 ZINC000077311862   -0.3100
35     C35    -5.2158   -1.9465   -1.8461 C.2      1 ZINC000077311862    0.4600
36     C36    -5.3556   -0.4481   -1.9243 C.3      1 ZINC000077311862   -0.1400
37     O37    -5.9426   -2.6561   -2.5004 O.2      1 ZINC000077311862   -0.4900
38     C38     1.1306   -2.6700   -0.3262 C.3      1 ZINC000077311862   -0.0700
39     C39     1.0393   -2.2023    1.1277 C.3      1 ZINC000077311862   -0.1500
40     C40     1.1206   -4.1993   -0.3716 C.3      1 ZINC000077311862   -0.1600
41     S41     2.6650   -2.0544   -1.0628 S.3      1 ZINC000077311862    0.1400
42     N42     3.7079   -2.7235   -0.1151 N.2      1 ZINC000077311862   -0.3700
43     O43     4.8988   -2.5407   -0.2940 O.2      1 ZINC000077311862    0.1100
44     H44    -1.6673    1.8262   -1.3595 H        1 ZINC000077311862    0.1000
45     H45     0.1094    1.9186   -1.4156 H        1 ZINC000077311862    0.0800
46     H46    -0.8326    1.9689   -2.9251 H        1 ZINC000077311862    0.1000
47     H47     0.4249   -0.2017   -0.3673 H        1 ZINC000077311862    0.4100
48     H48    -1.2601   -4.4562   -1.3579 H        1 ZINC000077311862    0.4000
49     H49     0.0210   -7.2803    2.1552 H        1 ZINC000077311862    0.0900
50     H50    -0.4636   -8.9592    1.8165 H        1 ZINC000077311862    0.1100
51     H51     0.7076   -8.1397    0.7558 H        1 ZINC000077311862    0.1100
52     H52    -4.2882  -10.3385    2.1269 H        1 ZINC000077311862    0.1100
53     H53    -6.0525  -10.2893    1.8963 H        1 ZINC000077311862    0.1100
54     H54    -4.9728  -10.3891    0.4846 H        1 ZINC000077311862    0.1000
55     H55    -6.7879   -7.4389    0.2816 H        1 ZINC000077311862    0.0900
56     H56    -6.9441   -5.8829    1.1317 H        1 ZINC000077311862    0.0900
57     H57    -9.9151   -5.4125   -2.1387 H        1 ZINC000077311862    0.0900
58     H58   -10.8050   -6.8390   -1.5545 H        1 ZINC000077311862    0.1100
59     H59   -10.9612   -5.2830   -0.7044 H        1 ZINC000077311862    0.1100
60     H60    -4.6204    0.0201   -1.2698 H        1 ZINC000077311862    0.0900
61     H61    -5.1892   -0.1207   -2.9505 H        1 ZINC000077311862    0.1100
62     H62    -6.3585   -0.1598   -1.6091 H        1 ZINC000077311862    0.1100
63     H63     0.0780   -2.5008    1.5457 H        1 ZINC000077311862    0.0900
64     H64     1.8439   -2.6560    1.7065 H        1 ZINC000077311862    0.0800
65     H65     1.1312   -1.1168    1.1666 H        1 ZINC000077311862    0.0700
66     H66     1.1856   -4.5325   -1.4074 H        1 ZINC000077311862    0.0800
67     H67     1.9727   -4.5849    0.1883 H        1 ZINC000077311862    0.0800
68     H68     0.1966   -4.5699    0.0720 H        1 ZINC000077311862    0.0900
@<TRIPOS>BOND
1     1     2     1
2     1     44    1
3     1     45    1
4     1     46    1
5     2     3     2
6     2     4     am
7     4     5     1
8     4     47    1
9     5     6     1
10    5     7     1
11    5     38    1
12    7     8     2
13    7     9     am
14    9     10    1
15    9     48    1
16    10    11    1
17    10    32    1
18    10    12    1
19    12    13    1
20    12    14    1
21    12    18    1
22    14    15    1
23    15    16    1
24    15    17    2
25    16    49    1
26    16    50    1
27    16    51    1
28    18    19    1
29    18    20    1
30    18    24    1
31    20    21    1
32    21    22    1
33    21    23    2
34    22    52    1
35    22    53    1
36    22    54    1
37    24    25    1
38    24    26    1
39    24    31    1
40    26    27    1
41    26    55    1
42    26    56    1
43    27    28    1
44    28    29    1
45    28    30    2
46    29    57    1
47    29    58    1
48    29    59    1
49    31    32    1
50    32    33    1
51    32    34    1
52    34    35    1
53    35    36    1
54    35    37    2
55    36    60    1
56    36    61    1
57    36    62    1
58    38    39    1
59    38    40    1
60    38    41    1
61    39    63    1
62    39    64    1
63    39    65    1
64    40    66    1
65    40    67    1
66    40    68    1
67    41    42    1
68    42    43    2
@<TRIPOS>SUBSTRUCTURE
1   ZINC000077311862 1     RESIDUE    1   A     ZIN   1
