@<TRIPOS>MOLECULE
ZINC000035077050
75    78    1     0     0
SMALL
USER_CHARGES
@<TRIPOS>ATOM
1      C1     -0.0187    1.5258    0.0104 C.3      1 ZINC000035077050   -0.1500
2      C2      0.0021   -0.0041    0.0020 C.3      1 ZINC000035077050   -0.1200
3      C3     -1.4333   -0.5336    0.0129 C.3      1 ZINC000035077050    0.0400
4      O4     -1.4139   -1.9625    0.0050 O.3      1 ZINC000035077050   -0.2500
5      C5     -2.6148   -2.5951    0.0131 C.ar     1 ZINC000035077050    0.2500
6      C6     -3.7891   -1.8590    0.0225 C.ar     1 ZINC000035077050   -0.2300
7      C7     -5.0108   -2.5042    0.0306 C.ar     1 ZINC000035077050    0.0400
8      C8     -5.0721   -3.8874    0.0296 C.ar     1 ZINC000035077050   -0.7300
9      S9     -6.6375   -4.6960    0.0401 S.o2     1 ZINC000035077050    2.6900
10     O10    -6.4165   -5.9911    0.5815 O.2      1 ZINC000035077050   -0.9300
11     O11    -7.5636   -3.7705    0.5923 O.2      1 ZINC000035077050   -0.9300
12     N12    -7.0846   -4.9193   -1.5388 N.am     1 ZINC000035077050   -1.0100
13     C13    -7.8626   -3.8976   -2.2563 C.3      1 ZINC000035077050    0.1000
14     C14    -7.1665   -3.6045   -3.5895 C.3      1 ZINC000035077050   -0.0200
15     N15    -6.9834   -4.8585   -4.3311 N.4      1 ZINC000035077050   -0.3800
16     H16    -7.8764   -5.3144   -4.4441 H        1 ZINC000035077050    0.4300
17     C17    -6.4147   -4.5648   -5.6533 C.3      1 ZINC000035077050   -0.0100
18     C18    -6.3392   -5.8540   -6.4737 C.3      1 ZINC000035077050    0.0400
19     O19    -7.6606   -6.3345   -6.7288 O.3      1 ZINC000035077050   -0.5800
20     C20    -6.0726   -5.7455   -3.5965 C.3      1 ZINC000035077050   -0.0300
21     C21    -6.7097   -6.1422   -2.2654 C.3      1 ZINC000035077050    0.1000
22     C22    -3.9133   -4.6348    0.0198 C.ar     1 ZINC000035077050    0.0300
23     C23    -2.6726   -3.9952    0.0061 C.ar     1 ZINC000035077050   -0.1000
24     C24    -1.4281   -4.7894   -0.0043 C.2      1 ZINC000035077050    0.3900
25     N25    -0.2736   -4.1659   -0.0118 N.2      1 ZINC000035077050   -0.4300
26     C26     0.8847   -4.8517   -0.0214 C.2      1 ZINC000035077050    0.1100
27     C27     0.8596   -6.2519   -0.0235 C.2      1 ZINC000035077050   -0.0900
28     C28    -0.3884   -6.9071   -0.0161 C.2      1 ZINC000035077050    0.5700
29     O29    -0.4536   -8.1249   -0.0176 O.2      1 ZINC000035077050   -0.5300
30     N30    -1.5107   -6.1549   -0.0003 N.am     1 ZINC000035077050   -0.6400
31     N31     2.1663   -6.6845   -0.0338 N.pl3    1 ZINC000035077050   -0.4000
32     C32     2.6015   -8.0833   -0.0397 C.3      1 ZINC000035077050    0.1000
33     C33     2.6226   -8.6048   -1.4780 C.3      1 ZINC000035077050   -0.1700
34     C34     2.9876   -5.5989   -0.0381 C.2      1 ZINC000035077050    0.0600
35     C35     2.2456   -4.4732   -0.0308 C.2      1 ZINC000035077050   -0.1400
36     C36     2.7742   -3.0620   -0.0328 C.3      1 ZINC000035077050   -0.0400
37     C37     2.8457   -2.5421    1.4044 C.3      1 ZINC000035077050   -0.1200
38     C38     3.3823   -1.1093    1.4023 C.3      1 ZINC000035077050   -0.1500
39     H39     1.0039    1.9031    0.0027 H        1 ZINC000035077050    0.0700
40     H40    -0.5459    1.8868   -0.8726 H        1 ZINC000035077050    0.0600
41     H41    -0.5289    1.8773    0.9072 H        1 ZINC000035077050    0.0600
42     H42     0.5123   -0.3556   -0.8948 H        1 ZINC000035077050    0.0800
43     H43     0.5293   -0.3651    0.8851 H        1 ZINC000035077050    0.0800
44     H44    -1.9435   -0.1821    0.9097 H        1 ZINC000035077050    0.0700
45     H45    -1.9605   -0.1726   -0.8702 H        1 ZINC000035077050    0.0700
46     H46    -3.7491   -0.7798    0.0237 H        1 ZINC000035077050    0.1500
47     H47    -5.9231   -1.9263    0.0383 H        1 ZINC000035077050    0.1500
48     H48    -8.8703   -4.2687   -2.4431 H        1 ZINC000035077050    0.1100
49     H49    -7.9093   -2.9867   -1.6595 H        1 ZINC000035077050    0.1400
50     H50    -7.7794   -2.9209   -4.1770 H        1 ZINC000035077050    0.1500
51     H51    -6.1944   -3.1493   -3.3996 H        1 ZINC000035077050    0.1400
52     H52    -7.0477   -3.8426   -6.1688 H        1 ZINC000035077050    0.1400
53     H53    -5.4135   -4.1507   -5.5343 H        1 ZINC000035077050    0.1400
54     H54    -5.8365   -5.6537   -7.4199 H        1 ZINC000035077050    0.1000
55     H55    -5.7801   -6.6065   -5.9175 H        1 ZINC000035077050    0.0700
56     H56    -7.6892   -7.1512   -7.2457 H        1 ZINC000035077050    0.4100
57     H57    -5.8795   -6.6397   -4.1891 H        1 ZINC000035077050    0.1400
58     H58    -5.1336   -5.2256   -3.4064 H        1 ZINC000035077050    0.1400
59     H59    -5.9963   -6.7169   -1.6747 H        1 ZINC000035077050    0.1400
60     H60    -7.6022   -6.7400   -2.4502 H        1 ZINC000035077050    0.1100
61     H61    -3.9656   -5.7135    0.0194 H        1 ZINC000035077050    0.1400
62     H62    -2.3798   -6.5855    0.0050 H        1 ZINC000035077050    0.4100
63     H63     3.6019   -8.1543    0.3872 H        1 ZINC000035077050    0.1000
64     H64     1.9100   -8.6815    0.5535 H        1 ZINC000035077050    0.1000
65     H65     2.9465   -9.6455   -1.4824 H        1 ZINC000035077050    0.0800
66     H66     1.6223   -8.5337   -1.9049 H        1 ZINC000035077050    0.0600
67     H67     3.3142   -8.0065   -2.0712 H        1 ZINC000035077050    0.0600
68     H68     4.0671   -5.6339   -0.0457 H        1 ZINC000035077050    0.1800
69     H69     3.7706   -3.0478   -0.4743 H        1 ZINC000035077050    0.0700
70     H70     2.1090   -2.4257   -0.6166 H        1 ZINC000035077050    0.0700
71     H71     1.8493   -2.5563    1.8459 H        1 ZINC000035077050    0.0600
72     H72     3.5109   -3.1784    1.9882 H        1 ZINC000035077050    0.0600
73     H73     4.3788   -1.0952    0.9608 H        1 ZINC000035077050    0.0500
74     H74     2.7172   -0.4730    0.8185 H        1 ZINC000035077050    0.0500
75     H75     3.4333   -0.7389    2.4262 H        1 ZINC000035077050    0.0500
@<TRIPOS>BOND
1     1     2     1
2     1     39    1
3     1     40    1
4     1     41    1
5     2     3     1
6     2     42    1
7     2     43    1
8     3     4     1
9     3     44    1
10    3     45    1
11    4     5     1
12    5     23    ar
13    5     6     ar
14    6     7     ar
15    6     46    1
16    7     8     ar
17    7     47    1
18    8     9     1
19    8     22    ar
20    9     10    2
21    9     11    2
22    9     12    am
23    12    21    1
24    12    13    1
25    13    14    1
26    13    48    1
27    13    49    1
28    14    15    1
29    14    50    1
30    14    51    1
31    15    16    1
32    15    17    1
33    15    20    1
34    17    18    1
35    17    52    1
36    17    53    1
37    18    19    1
38    18    54    1
39    18    55    1
40    19    56    1
41    20    21    1
42    20    57    1
43    20    58    1
44    21    59    1
45    21    60    1
46    22    23    ar
47    22    61    1
48    23    24    1
49    24    30    1
50    24    25    2
51    25    26    1
52    26    35    1
53    26    27    2
54    27    28    1
55    27    31    1
56    28    29    2
57    28    30    am
58    30    62    1
59    31    32    1
60    31    34    1
61    32    33    1
62    32    63    1
63    32    64    1
64    33    65    1
65    33    66    1
66    33    67    1
67    34    35    2
68    34    68    1
69    35    36    1
70    36    37    1
71    36    69    1
72    36    70    1
73    37    38    1
74    37    71    1
75    37    72    1
76    38    73    1
77    38    74    1
78    38    75    1
@<TRIPOS>SUBSTRUCTURE
1   ZINC000035077050 1     RESIDUE    1   A     ZIN   1
