@<TRIPOS>MOLECULE
ZINC000001654736
62    65    1     0     0
SMALL
USER_CHARGES
@<TRIPOS>ATOM
1      C1      4.6137    2.8112   -2.3255 C.1      1 ZINC000001654736   -0.1800
2      C2      4.1512    2.9618   -1.2570 C.1      1 ZINC000001654736   -0.2100
3      C3      3.5714    3.1506    0.0828 C.3      1 ZINC000001654736    0.2300
4      N4      2.2994    3.8684   -0.0323 N.pl3    1 ZINC000001654736   -0.6200
5      C5      2.2602    5.3222    0.1436 C.3      1 ZINC000001654736    0.1700
6      C6      1.8951    5.6460    1.5694 C.ar     1 ZINC000001654736   -0.1400
7      C7      1.7940    4.6319    2.4967 C.ar     1 ZINC000001654736    0.0000
8      C8      1.4566    4.9386    3.8129 C.ar     1 ZINC000001654736   -0.2100
9      C9      1.2219    6.2741    4.1871 C.ar     1 ZINC000001654736    0.1800
10     C10     1.3291    7.2820    3.2383 C.ar     1 ZINC000001654736   -0.1600
11     C11     1.6686    6.9642    1.9402 C.ar     1 ZINC000001654736   -0.0200
12     C12     1.7903    8.0593    0.9120 C.3      1 ZINC000001654736   -0.1200
13     N13     0.8892    6.5391    5.5007 N.pl3    1 ZINC000001654736   -0.6300
14     C14     0.7935    5.5400    6.3952 C.2      1 ZINC000001654736    0.4400
15     C15     0.4277    5.8858    7.8156 C.3      1 ZINC000001654736   -0.1200
16     N16     1.0013    4.2873    6.0980 N.2      1 ZINC000001654736   -0.5900
17     C17     1.3321    3.9002    4.8513 C.2      1 ZINC000001654736    0.5300
18     O18     1.5235    2.7252    4.5895 O.2      1 ZINC000001654736   -0.4700
19     C19     1.1294    3.1697   -0.3086 C.ar     1 ZINC000001654736    0.2500
20     C20     1.1688    1.7877   -0.4755 C.ar     1 ZINC000001654736   -0.2000
21     C21     0.0243    1.0942   -0.7479 C.ar     1 ZINC000001654736   -0.0100
22     C22    -1.1937    1.7707   -0.8655 C.ar     1 ZINC000001654736   -0.2000
23     C23    -2.4280    1.0234   -1.1654 C.2      1 ZINC000001654736    0.5600
24     O24    -3.4865    1.6134   -1.2673 O.2      1 ZINC000001654736   -0.5500
25     N25    -2.3837   -0.3140   -1.3269 N.am     1 ZINC000001654736   -0.6800
26     C26    -3.6107   -1.0568   -1.6251 C.3      1 ZINC000001654736    0.0800
27     H27    -4.2578   -0.4501   -2.2585 H        1 ZINC000001654736    0.0800
28     C28    -3.2566   -2.3553   -2.3528 C.3      1 ZINC000001654736   -0.0900
29     C29    -2.6421   -2.0254   -3.7145 C.3      1 ZINC000001654736    0.0000
30     C30    -2.2933   -3.3044   -4.4313 C.2      1 ZINC000001654736    0.0700
31     N31    -1.1406   -3.9550   -4.3707 N.2      1 ZINC000001654736   -0.3900
32     N32    -1.2423   -4.9989   -5.1206 N.2      1 ZINC000001654736   -0.2100
33     N33    -2.4140   -5.0194   -5.6541 N.2      1 ZINC000001654736   -0.2100
34     N34    -3.0784   -3.9918   -5.2480 N.pl3    1 ZINC000001654736   -0.3900
35     C35    -4.3268   -1.3808   -0.3393 C.2      1 ZINC000001654736    0.4900
36     O36    -3.8560   -1.0242    0.7273 O.co2    1 ZINC000001654736   -0.6900
37     O37    -5.3771   -1.9994   -0.3656 O.co2    1 ZINC000001654736   -0.7000
38     C38    -1.2383    3.1603   -0.6925 C.ar     1 ZINC000001654736    0.2000
39     F39    -2.4126    3.8197   -0.7996 F        1 ZINC000001654736   -0.1200
40     C40    -0.0774    3.8532   -0.4180 C.ar     1 ZINC000001654736   -0.2400
41     H41     5.0273    2.6766   -3.2811 H        1 ZINC000001654736    0.2200
42     H42     4.2603    3.7286    0.6987 H        1 ZINC000001654736    0.1000
43     H43     3.3994    2.1783    0.5446 H        1 ZINC000001654736    0.1000
44     H44     3.2397    5.7424   -0.0850 H        1 ZINC000001654736    0.0900
45     H45     1.5158    5.7496   -0.5282 H        1 ZINC000001654736    0.0900
46     H46     1.9747    3.6077    2.2054 H        1 ZINC000001654736    0.1500
47     H47     1.1507    8.3102    3.5164 H        1 ZINC000001654736    0.1400
48     H48     0.8503    8.1533    0.3683 H        1 ZINC000001654736    0.0800
49     H49     2.0177    9.0017    1.4102 H        1 ZINC000001654736    0.0700
50     H50     2.5910    7.8149    0.2140 H        1 ZINC000001654736    0.0700
51     H51     0.7231    7.4530    5.7802 H        1 ZINC000001654736    0.4200
52     H52     0.3911    4.9750    8.4134 H        1 ZINC000001654736    0.1100
53     H53     1.1759    6.5620    8.2292 H        1 ZINC000001654736    0.0900
54     H54    -0.5485    6.3704    7.8317 H        1 ZINC000001654736    0.1000
55     H55     2.1084    1.2622   -0.3895 H        1 ZINC000001654736    0.1300
56     H56     0.0607    0.0226   -0.8771 H        1 ZINC000001654736    0.1400
57     H57    -1.5394   -0.7846   -1.2456 H        1 ZINC000001654736    0.3900
58     H58    -2.5396   -2.9212   -1.7580 H        1 ZINC000001654736    0.0600
59     H59    -4.1592   -2.9494   -2.4958 H        1 ZINC000001654736    0.0800
60     H60    -3.3591   -1.4595   -4.3093 H        1 ZINC000001654736    0.0600
61     H61    -1.7395   -1.4314   -3.5715 H        1 ZINC000001654736    0.0600
62     H62    -0.1054    4.9250   -0.2878 H        1 ZINC000001654736    0.1300
@<TRIPOS>BOND
1     1     2     3
2     1     41    1
3     2     3     1
4     3     4     1
5     3     42    1
6     3     43    1
7     4     5     1
8     4     19    1
9     5     6     1
10    5     44    1
11    5     45    1
12    6     11    ar
13    6     7     ar
14    7     8     ar
15    7     46    1
16    8     17    1
17    8     9     ar
18    9     10    ar
19    9     13    1
20    10    11    ar
21    10    47    1
22    11    12    1
23    12    48    1
24    12    49    1
25    12    50    1
26    13    14    1
27    13    51    1
28    14    15    1
29    14    16    2
30    15    52    1
31    15    53    1
32    15    54    1
33    16    17    1
34    17    18    2
35    19    40    ar
36    19    20    ar
37    20    21    ar
38    20    55    1
39    21    22    ar
40    21    56    1
41    22    23    1
42    22    38    ar
43    23    24    2
44    23    25    am
45    25    26    1
46    25    57    1
47    26    27    1
48    26    28    1
49    26    35    1
50    28    29    1
51    28    58    1
52    28    59    1
53    29    30    1
54    29    60    1
55    29    61    1
56    30    34    1
57    30    31    2
58    31    32    1
59    32    33    2
60    33    34    1
61    35    36    ar
62    35    37    ar
63    38    39    1
64    38    40    ar
65    40    62    1
@<TRIPOS>SUBSTRUCTURE
1   ZINC000001654736 1     RESIDUE    1   A     ZIN   1
