@<TRIPOS>MOLECULE
ZINC000071606215
  51   53    0    0    0
SMALL
USER_CHARGES
NO_NAME
@<TRIPOS>ATOM
    1 C1       -0.0173     1.4248     0.0099 C.3    1 <0>       0.0200
    2 O2        0.0021    -0.0041     0.0020 O.3    1 <0>      -0.3100
    3 C3        0.6258    -0.6184     1.0415 C.ar   1 <0>       0.1500
    4 C4        1.2022     0.1384     2.0513 C.ar   1 <0>      -0.2000
    5 C5        1.8353    -0.4884     3.1070 C.ar   1 <0>      -0.0500
    6 C6        1.8951    -1.8688     3.1577 C.ar   1 <0>      -0.1600
    7 C7        2.5867    -2.5500     4.3104 C.3    1 <0>       0.1200
    8 C8        4.0526    -2.1139     4.3553 C.3    1 <0>      -0.1800
    9 C9        1.8984    -2.1608     5.6202 C.3    1 <0>      -0.1700
   10 N10       2.5144    -4.0065     4.1332 N.4    1 <0>      -0.5000
   11 H11       1.5477    -4.2941     4.1036 H      1 <0>       0.4300
   12 H12       2.9683    -4.2632     3.2694 H      1 <0>       0.4200
   13 C13       3.1886    -4.6705     5.2568 C.3    1 <0>      -0.0600
   14 C14       3.1133    -6.1875     5.0723 C.3    1 <0>       0.1600
   15 H15       3.6037    -6.4648     4.1392 H      1 <0>       0.1100
   16 O16       1.7442    -6.5948     5.0303 O.3    1 <0>      -0.5600
   17 C17       3.8049    -6.8687     6.2250 C.ar   1 <0>      -0.2600
   18 C18       3.0814    -7.2972     7.3011 C.ar   1 <0>      -0.0400
   19 C19       3.7065    -7.9260     8.3691 C.ar   1 <0>      -0.2600
   20 C20       5.0734    -8.1305     8.3637 C.ar   1 <0>       0.2700
   21 O21       5.6763    -8.7474     9.4147 O.3    1 <0>      -0.6900
   22 C22       5.8316    -7.7006     7.2733 C.ar   1 <0>       0.0600
   23 C23       5.1899    -7.0691     6.1930 C.ar   1 <0>      -0.0700
   24 C24       5.9933    -6.6216     5.0537 C.2    1 <0>      -0.0500
   25 C25       7.3323    -6.8332     5.0820 C.2    1 <0>      -0.2100
   26 C26       7.9278    -7.4724     6.1905 C.2    1 <0>       0.5100
   27 O27       9.1333    -7.6532     6.1954 O.2    1 <0>      -0.5700
   28 N28       7.1977    -7.8906     7.2393 N.am   1 <0>      -0.5900
   29 C29       1.3210    -2.6254     2.1528 C.ar   1 <0>      -0.0900
   30 C30       0.6822    -2.0034     1.0976 C.ar   1 <0>      -0.1300
   31 H31       1.0053     1.8021     0.0021 H      1 <0>       0.0600
   32 H32      -0.5445     1.7859    -0.8732 H      1 <0>       0.1100
   33 H33      -0.5275     1.7763     0.9067 H      1 <0>       0.0600
   34 H34       1.1564     1.2167     2.0118 H      1 <0>       0.1400
   35 H35       2.2842     0.1003     3.8934 H      1 <0>       0.1400
   36 H36       4.1062    -1.0332     4.4868 H      1 <0>       0.1000
   37 H37       4.5528    -2.6066     5.1891 H      1 <0>       0.0900
   38 H38       4.5429    -2.3912     3.4222 H      1 <0>       0.0800
   39 H39       0.8541    -2.4715     5.5882 H      1 <0>       0.0800
   40 H40       2.3987    -2.6535     6.4539 H      1 <0>       0.0900
   41 H41       1.9521    -1.0801     5.7516 H      1 <0>       0.1000
   42 H42       4.2329    -4.3598     5.2889 H      1 <0>       0.1400
   43 H43       2.6982    -4.3932     6.1900 H      1 <0>       0.1400
   44 H44       1.2451    -6.3795     5.8301 H      1 <0>       0.3800
   45 H45       2.0123    -7.1450     7.3215 H      1 <0>       0.1000
   46 H46       3.1193    -8.2583     9.2124 H      1 <0>       0.1100
   47 H47       5.5295    -6.1338     4.2091 H      1 <0>       0.1200
   48 H48       7.9454    -6.5117     4.2530 H      1 <0>       0.1400
   49 H49       7.6385    -8.3266     7.9853 H      1 <0>       0.4200
   50 H50       1.3687    -3.7035     2.1948 H      1 <0>       0.1200
   51 H51       0.2339    -2.5948     0.3129 H      1 <0>       0.1400
@<TRIPOS>BOND
   1    1    2 1
   2    1   31 1
   3    1   32 1
   4    1   33 1
   5    2    3 1
   6    3   30 ar
   7    3    4 ar
   8    4    5 ar
   9    4   34 1
  10    5    6 ar
  11    5   35 1
  12    6    7 1
  13    6   29 ar
  14    7    8 1
  15    7    9 1
  16    7   10 1
  17    8   36 1
  18    8   37 1
  19    8   38 1
  20    9   39 1
  21    9   40 1
  22    9   41 1
  23   10   11 1
  24   10   12 1
  25   10   13 1
  26   13   14 1
  27   13   42 1
  28   13   43 1
  29   14   15 1
  30   14   16 1
  31   14   17 1
  32   16   44 1
  33   17   23 ar
  34   17   18 ar
  35   18   19 ar
  36   18   45 1
  37   19   20 ar
  38   19   46 1
  39   20   21 1
  40   20   22 ar
  41   22   28 1
  42   22   23 ar
  43   23   24 1
  44   24   25 2
  45   24   47 1
  46   25   26 1
  47   25   48 1
  48   26   27 2
  49   26   28 am
  50   28   49 1
  51   29   30 ar
  52   29   50 1
  53   30   51 1
