@<TRIPOS>MOLECULE
ZINC000252670601
51    54    1     0     0
SMALL
USER_CHARGES
@<TRIPOS>ATOM
1      O1     -1.6976   -1.1361    0.2477 O.co2    1 ZINC000252670601   -0.6700
2      C2     -1.6909    0.0124    0.6568 C.2      1 ZINC000252670601    0.5200
3      O3     -0.7332    0.4302    1.2852 O.co2    1 ZINC000252670601   -0.7100
4      C4     -2.8637    0.9175    0.3804 C.3      1 ZINC000252670601   -0.1200
5      C5     -2.6371    1.6571   -0.9397 C.3      1 ZINC000252670601   -0.0500
6      C6     -2.4998    0.6570   -2.0586 C.ar     1 ZINC000252670601    0.1700
7      C7     -3.3196    0.7555   -3.1649 C.ar     1 ZINC000252670601   -0.2100
8      C8     -3.1887   -0.1688   -4.1930 C.ar     1 ZINC000252670601   -0.0700
9      C9     -2.2342   -1.1622   -4.0700 C.ar     1 ZINC000252670601   -0.2000
10     C10    -1.4420   -1.2014   -2.9270 C.ar     1 ZINC000252670601    0.3600
11     N11    -0.4779   -2.1952   -2.7900 N.pl3    1 ZINC000252670601   -0.6000
12     C12    -0.5231   -3.3218   -3.5988 C.2      1 ZINC000252670601    0.3200
13     N13    -1.4788   -3.6023   -4.4292 N.2      1 ZINC000252670601   -0.5400
14     C14    -1.3588   -4.7199   -5.1224 C.2      1 ZINC000252670601    0.0800
15     C15    -0.2503   -5.4157   -4.8656 C.2      1 ZINC000252670601   -0.3000
16     S16     0.6768   -4.5386   -3.6511 S.3      1 ZINC000252670601    0.1100
17     N17    -1.5938   -0.2983   -1.9706 N.ar     1 ZINC000252670601   -0.4400
18     C18    -4.1415    0.0816    0.2839 C.3      1 ZINC000252670601   -0.0800
19     C19    -5.3322    1.0005    0.0033 C.3      1 ZINC000252670601   -0.1100
20     C20    -5.4716    2.0159    1.1393 C.3      1 ZINC000252670601    0.0900
21     H21    -5.6330    1.4890    2.0797 H        1 ZINC000252670601    0.0700
22     O22    -6.5837    2.8741    0.8772 O.3      1 ZINC000252670601   -0.3000
23     C23    -7.1606    3.4812    1.9481 C.ar     1 ZINC000252670601    0.1200
24     C24    -6.5978    3.3484    3.2081 C.ar     1 ZINC000252670601   -0.1800
25     C25    -7.1852    3.9666    4.2959 C.ar     1 ZINC000252670601   -0.0700
26     C26    -8.3338    4.7172    4.1300 C.ar     1 ZINC000252670601   -0.1300
27     C27    -8.8996    4.8523    2.8742 C.ar     1 ZINC000252670601   -0.0400
28     Cl28  -10.3424    5.7958    2.6692 Cl       1 ZINC000252670601   -0.0500
29     C29    -8.3119    4.2404    1.7807 C.ar     1 ZINC000252670601    0.0700
30     F30    -8.8631    4.3721    0.5544 F        1 ZINC000252670601   -0.1200
31     C31    -4.1938    2.8518    1.2358 C.3      1 ZINC000252670601   -0.1500
32     C32    -3.0031    1.9329    1.5164 C.3      1 ZINC000252670601   -0.0800
33     H33    -3.4854    2.3117   -1.1396 H        1 ZINC000252670601    0.0700
34     H34    -1.7268    2.2526   -0.8709 H        1 ZINC000252670601    0.0800
35     H35    -4.0556    1.5432   -3.2300 H        1 ZINC000252670601    0.1200
36     H36    -3.8183   -0.1135   -5.0688 H        1 ZINC000252670601    0.1300
37     H37    -2.1057   -1.8975   -4.8505 H        1 ZINC000252670601    0.1600
38     H38     0.2258   -2.1005   -2.1292 H        1 ZINC000252670601    0.4300
39     H39    -2.0986   -5.0445   -5.8391 H        1 ZINC000252670601    0.1700
40     H40     0.0317   -6.3516   -5.3248 H        1 ZINC000252670601    0.1700
41     H41    -4.0421   -0.6418   -0.5254 H        1 ZINC000252670601    0.0700
42     H42    -4.3029   -0.4453    1.2243 H        1 ZINC000252670601    0.0500
43     H43    -5.1708    1.5274   -0.9372 H        1 ZINC000252670601    0.0700
44     H44    -6.2425    0.4049   -0.0655 H        1 ZINC000252670601    0.0600
45     H45    -5.7007    2.7617    3.3398 H        1 ZINC000252670601    0.1500
46     H46    -6.7461    3.8626    5.2772 H        1 ZINC000252670601    0.1400
47     H47    -8.7908    5.1988    4.9819 H        1 ZINC000252670601    0.1400
48     H48    -4.0324    3.3787    0.2953 H        1 ZINC000252670601    0.0700
49     H49    -4.2931    3.5752    2.0451 H        1 ZINC000252670601    0.0600
50     H50    -3.1645    1.4060    2.4569 H        1 ZINC000252670601    0.0600
51     H51    -2.0928    2.5285    1.5852 H        1 ZINC000252670601    0.0700
@<TRIPOS>BOND
1     1     2     ar
2     2     3     ar
3     2     4     1
4     4     32    1
5     4     5     1
6     4     18    1
7     5     6     1
8     5     33    1
9     5     34    1
10    6     17    ar
11    6     7     ar
12    7     8     ar
13    7     35    1
14    8     9     ar
15    8     36    1
16    9     10    ar
17    9     37    1
18    10    11    1
19    10    17    ar
20    11    12    1
21    11    38    1
22    12    16    1
23    12    13    2
24    13    14    1
25    14    15    2
26    14    39    1
27    15    16    1
28    15    40    1
29    18    19    1
30    18    41    1
31    18    42    1
32    19    20    1
33    19    43    1
34    19    44    1
35    20    21    1
36    20    22    1
37    20    31    1
38    22    23    1
39    23    29    ar
40    23    24    ar
41    24    25    ar
42    24    45    1
43    25    26    ar
44    25    46    1
45    26    27    ar
46    26    47    1
47    27    28    1
48    27    29    ar
49    29    30    1
50    31    32    1
51    31    48    1
52    31    49    1
53    32    50    1
54    32    51    1
@<TRIPOS>SUBSTRUCTURE
1   ZINC000252670601 1     RESIDUE    1   A     ZIN   1
