@<TRIPOS>MOLECULE
ZINC000003950327
56    58    1     0     0
SMALL
USER_CHARGES
@<TRIPOS>ATOM
1      C1      0.7967    5.6997   -0.9494 C.3      1 ZINC000003950327    0.0400
2      O2      0.6418    4.3350   -0.5547 O.3      1 ZINC000003950327   -0.3700
3      C3     -0.7171    3.9347   -0.3678 C.3      1 ZINC000003950327    0.0300
4      H4     -1.3606    4.5124   -1.0313 H        1 ZINC000003950327    0.0500
5      C5     -0.8589    2.4455   -0.6892 C.3      1 ZINC000003950327   -0.0600
6      C6     -0.5737    2.2178   -2.1513 C.ar     1 ZINC000003950327   -0.1000
7      C7     -1.6017    2.2839   -3.0735 C.ar     1 ZINC000003950327   -0.0800
8      C8     -1.3429    2.0756   -4.4144 C.ar     1 ZINC000003950327   -0.1500
9      C9     -0.0500    1.8002   -4.8354 C.ar     1 ZINC000003950327    0.1100
10     O10     0.2073    1.5953   -6.1540 O.3      1 ZINC000003950327   -0.3200
11     C11     1.5616    1.3166   -6.5151 C.3      1 ZINC000003950327    0.0700
12     C12     1.6549    1.1164   -8.0291 C.3      1 ZINC000003950327   -0.1200
13     C13     3.1049    0.8180   -8.4156 C.3      1 ZINC000003950327    0.0600
14     O14     3.1920    0.6309   -9.8297 O.3      1 ZINC000003950327   -0.3100
15     C15     4.4214    0.3556  -10.3413 C.ar     1 ZINC000003950327    0.1000
16     C16     5.5185    0.2620   -9.4979 C.ar     1 ZINC000003950327   -0.1700
17     C17     6.7674   -0.0172  -10.0176 C.ar     1 ZINC000003950327   -0.1500
18     C18     6.9243   -0.2046  -11.3831 C.ar     1 ZINC000003950327    0.0800
19     O19     8.1535   -0.4799  -11.8947 O.3      1 ZINC000003950327   -0.2600
20     C20     9.1984   -0.5703  -11.0308 C.ar     1 ZINC000003950327    0.0800
21     C21     9.5241   -1.7922  -10.4594 C.ar     1 ZINC000003950327   -0.1300
22     C22    10.5871   -1.8814   -9.5818 C.ar     1 ZINC000003950327   -0.1100
23     C23    11.3264   -0.7547   -9.2726 C.ar     1 ZINC000003950327   -0.1200
24     C24    11.0038    0.4642   -9.8403 C.ar     1 ZINC000003950327   -0.1100
25     C25     9.9453    0.5579  -10.7229 C.ar     1 ZINC000003950327   -0.1300
26     C26     5.8269   -0.1115  -12.2266 C.ar     1 ZINC000003950327   -0.1000
27     C27     4.5772    0.1626  -11.7061 C.ar     1 ZINC000003950327   -0.1100
28     C28     0.9799    1.7349   -3.9082 C.ar     1 ZINC000003950327   -0.2100
29     C29     0.7166    1.9487   -2.5690 C.ar     1 ZINC000003950327   -0.0600
30     C30    -1.1210    4.1804    1.0631 C.2      1 ZINC000003950327    0.4800
31     O31    -2.2737    3.9913    1.4123 O.co2    1 ZINC000003950327   -0.7000
32     O32    -0.2950    4.5683    1.8716 O.co2    1 ZINC000003950327   -0.6800
33     H33     1.8563    5.9249   -1.0705 H        1 ZINC000003950327    0.0700
34     H34     0.2797    5.8654   -1.8946 H        1 ZINC000003950327    0.0200
35     H35     0.3723    6.3496   -0.1842 H        1 ZINC000003950327    0.0400
36     H36    -0.1512    1.8751   -0.0878 H        1 ZINC000003950327    0.0700
37     H37    -1.8740    2.1199   -0.4620 H        1 ZINC000003950327    0.0900
38     H38    -2.6081    2.4983   -2.7453 H        1 ZINC000003950327    0.1300
39     H39    -2.1464    2.1266   -5.1343 H        1 ZINC000003950327    0.1300
40     H40     2.1958    2.1523   -6.2194 H        1 ZINC000003950327    0.0600
41     H41     1.8939    0.4110   -6.0077 H        1 ZINC000003950327    0.0600
42     H42     1.0207    0.2807   -8.3248 H        1 ZINC000003950327    0.0900
43     H43     1.3226    2.0220   -8.5365 H        1 ZINC000003950327    0.0900
44     H44     3.7391    1.6537   -8.1199 H        1 ZINC000003950327    0.0700
45     H45     3.4372   -0.0877   -7.9082 H        1 ZINC000003950327    0.0700
46     H46     5.3963    0.4079   -8.4348 H        1 ZINC000003950327    0.1300
47     H47     7.6218   -0.0893   -9.3609 H        1 ZINC000003950327    0.1300
48     H48     8.9467   -2.6725  -10.7003 H        1 ZINC000003950327    0.1300
49     H49    10.8407   -2.8321   -9.1365 H        1 ZINC000003950327    0.1300
50     H50    12.1572   -0.8266   -8.5862 H        1 ZINC000003950327    0.1300
51     H51    11.5825    1.3429   -9.5966 H        1 ZINC000003950327    0.1300
52     H52     9.6939    1.5100  -11.1663 H        1 ZINC000003950327    0.1300
53     H53     5.9489   -0.2573  -13.2897 H        1 ZINC000003950327    0.1400
54     H54     3.7228    0.2351  -12.3627 H        1 ZINC000003950327    0.1400
55     H55     1.9872    1.5203   -4.2335 H        1 ZINC000003950327    0.1200
56     H56     1.5181    1.8983   -1.8468 H        1 ZINC000003950327    0.1300
@<TRIPOS>BOND
1     1     2     1
2     1     33    1
3     1     34    1
4     1     35    1
5     2     3     1
6     3     4     1
7     3     5     1
8     3     30    1
9     5     6     1
10    5     36    1
11    5     37    1
12    6     29    ar
13    6     7     ar
14    7     8     ar
15    7     38    1
16    8     9     ar
17    8     39    1
18    9     10    1
19    9     28    ar
20    10    11    1
21    11    12    1
22    11    40    1
23    11    41    1
24    12    13    1
25    12    42    1
26    12    43    1
27    13    14    1
28    13    44    1
29    13    45    1
30    14    15    1
31    15    27    ar
32    15    16    ar
33    16    17    ar
34    16    46    1
35    17    18    ar
36    17    47    1
37    18    19    1
38    18    26    ar
39    19    20    1
40    20    25    ar
41    20    21    ar
42    21    22    ar
43    21    48    1
44    22    23    ar
45    22    49    1
46    23    24    ar
47    23    50    1
48    24    25    ar
49    24    51    1
50    25    52    1
51    26    27    ar
52    26    53    1
53    27    54    1
54    28    29    ar
55    28    55    1
56    29    56    1
57    30    31    ar
58    30    32    ar
@<TRIPOS>SUBSTRUCTURE
1   ZINC000003950327 1     RESIDUE    1   A     ZIN   1
