@<TRIPOS>MOLECULE
ZINC000095539256
105   111   1     0     0
SMALL
USER_CHARGES
@<TRIPOS>ATOM
1      C1     -2.6877   -2.5064   -4.9129 C.3      1 ZINC000095539256   -0.1700
2      C2     -2.2710   -3.8837   -4.3931 C.3      1 ZINC000095539256    0.1100
3      N3     -1.6806   -3.7443   -3.0596 N.am     1 ZINC000095539256   -0.7300
4      C4     -1.2380   -4.8339   -2.4013 C.2      1 ZINC000095539256    0.5200
5      O5     -1.3286   -5.9298   -2.9128 O.2      1 ZINC000095539256   -0.5000
6      C6     -0.6307   -4.6905   -1.0296 C.3      1 ZINC000095539256    0.0300
7      H7     -1.3252   -4.1846   -0.3589 H        1 ZINC000095539256    0.1200
8      O8     -0.2737   -5.9858   -0.4999 O.3      1 ZINC000095539256   -0.3300
9      C9      0.7074   -5.7200    0.5261 C.3      1 ZINC000095539256    0.3100
10     H10     0.2197   -5.3712    1.4363 H        1 ZINC000095539256    0.1300
11     N11     1.4969   -6.9232    0.8007 N.pl3    1 ZINC000095539256   -0.4700
12     C12     1.6974   -7.9671   -0.0500 C.2      1 ZINC000095539256    0.2800
13     N13     2.4497   -8.8669    0.5169 N.2      1 ZINC000095539256   -0.4600
14     C14     2.7792   -8.4599    1.7632 C.ar     1 ZINC000095539256   -0.0800
15     C15     3.5471   -9.0030    2.8103 C.ar     1 ZINC000095539256    0.5100
16     N16     4.1674  -10.2325    2.6689 N.pl3    1 ZINC000095539256   -0.6900
17     C17     4.9629  -10.7825    3.7694 C.3      1 ZINC000095539256    0.1400
18     C18     5.5339  -12.1407    3.3567 C.3      1 ZINC000095539256   -0.0200
19     C19     6.5037  -11.9531    2.2186 C.ar     1 ZINC000095539256   -0.0800
20     C20     6.3611  -12.6932    1.0599 C.ar     1 ZINC000095539256   -0.1100
21     C21     7.2508  -12.5211    0.0159 C.ar     1 ZINC000095539256   -0.1100
22     C22     8.2827  -11.6085    0.1306 C.ar     1 ZINC000095539256   -0.1200
23     C23     8.4248  -10.8677    1.2890 C.ar     1 ZINC000095539256   -0.1200
24     C24     7.5326  -11.0367    2.3313 C.ar     1 ZINC000095539256   -0.1100
25     C25     6.2488  -12.7621    4.5288 C.ar     1 ZINC000095539256   -0.0700
26     C26     7.2064  -12.0399    5.2162 C.ar     1 ZINC000095539256   -0.1100
27     C27     7.8622  -12.6099    6.2913 C.ar     1 ZINC000095539256   -0.1200
28     C28     7.5602  -13.9019    6.6792 C.ar     1 ZINC000095539256   -0.1200
29     C29     6.6021  -14.6237    5.9924 C.ar     1 ZINC000095539256   -0.1200
30     C30     5.9432  -14.0522    4.9199 C.ar     1 ZINC000095539256   -0.1100
31     N31     3.6636   -8.3104    3.9353 N.ar     1 ZINC000095539256   -0.5700
32     C32     3.0721   -7.1297    4.0791 C.ar     1 ZINC000095539256    0.3400
33     C33     3.2361   -6.3986    5.3589 C.2      1 ZINC000095539256    0.6000
34     O34     2.7043   -5.3171    5.5132 O.2      1 ZINC000095539256   -0.5000
35     N35     3.9751   -6.9339    6.3509 N.am     1 ZINC000095539256   -0.7100
36     C36     4.1371   -6.2117    7.6151 C.3      1 ZINC000095539256    0.1100
37     C37     5.0146   -7.0323    8.5624 C.3      1 ZINC000095539256    0.1300
38     N38     5.1766   -6.3101    9.8267 N.am     1 ZINC000095539256   -0.7400
39     C39     5.9156   -6.8454   10.8187 C.2      1 ZINC000095539256    0.7100
40     O40     6.4477   -7.9276   10.6642 O.2      1 ZINC000095539256   -0.5800
41     N41     6.0646   -6.1809   11.9817 N.am     1 ZINC000095539256   -0.7400
42     C42     6.8679   -6.7628   13.0600 C.3      1 ZINC000095539256    0.1600
43     C43     8.3425   -6.4094   12.8474 C.3      1 ZINC000095539256   -0.1300
44     C44     9.1683   -6.9678   14.0085 C.3      1 ZINC000095539256    0.0500
45     N45     8.6868   -6.3963   15.2726 N.3      1 ZINC000095539256   -0.4800
46     C46     9.4981   -6.7805   16.3340 C.ar     1 ZINC000095539256    0.3600
47     C47    10.5987   -7.5981   16.0995 C.ar     1 ZINC000095539256   -0.1800
48     C48    11.3979   -7.9724   17.1649 C.ar     1 ZINC000095539256    0.0300
49     C49    11.0681   -7.5147   18.4335 C.ar     1 ZINC000095539256   -0.1500
50     C50     9.9609   -6.7056   18.5938 C.ar     1 ZINC000095539256    0.1500
51     N51     9.2195   -6.3603   17.5585 N.ar     1 ZINC000095539256   -0.4700
52     H52     8.4470   -5.7906   17.6988 H        1 ZINC000095539256    0.4500
53     C53     7.2865   -6.7620   15.5214 C.3      1 ZINC000095539256    0.0500
54     C54     6.4045   -6.1974   14.4054 C.3      1 ZINC000095539256   -0.1300
55     N55     2.3418   -6.5825    3.1202 N.ar     1 ZINC000095539256   -0.4900
56     C56     2.1758   -7.2026    1.9613 C.ar     1 ZINC000095539256    0.3000
57     C57     1.6039   -4.6086   -0.0634 C.3      1 ZINC000095539256    0.0800
58     H58     2.4829   -5.0405   -0.5418 H        1 ZINC000095539256    0.0900
59     O59     1.9927   -3.6856    0.9559 O.3      1 ZINC000095539256   -0.5200
60     C60     0.7018   -3.9132   -1.1100 C.3      1 ZINC000095539256    0.0500
61     H61     1.1346   -4.0019   -2.1065 H        1 ZINC000095539256    0.0900
62     O62     0.5084   -2.5387   -0.7700 O.3      1 ZINC000095539256   -0.5300
63     H63    -1.8126   -1.8591   -4.9689 H        1 ZINC000095539256    0.0600
64     H64    -3.1270   -2.6101   -5.9051 H        1 ZINC000095539256    0.0800
65     H65    -3.4206   -2.0688   -4.2350 H        1 ZINC000095539256    0.0600
66     H66    -3.1461   -4.5311   -4.3371 H        1 ZINC000095539256    0.0700
67     H67    -1.5381   -4.3214   -5.0710 H        1 ZINC000095539256    0.0700
68     H68    -1.6081   -2.8678   -2.6505 H        1 ZINC000095539256    0.4000
69     H69     1.2918   -8.0388   -1.0483 H        1 ZINC000095539256    0.2300
70     H70     4.0753  -10.7298    1.8412 H        1 ZINC000095539256    0.4200
71     H71     5.7804  -10.1005    4.0030 H        1 ZINC000095539256    0.0800
72     H72     4.3304  -10.9062    4.6484 H        1 ZINC000095539256    0.0800
73     H73     4.7220  -12.7945    3.0382 H        1 ZINC000095539256    0.1000
74     H74     5.5549  -13.4062    0.9703 H        1 ZINC000095539256    0.1200
75     H75     7.1398  -13.0999   -0.8891 H        1 ZINC000095539256    0.1200
76     H76     8.9782  -11.4746   -0.6847 H        1 ZINC000095539256    0.1200
77     H77     9.2312  -10.1550    1.3787 H        1 ZINC000095539256    0.1200
78     H78     7.6435  -10.4579    3.2363 H        1 ZINC000095539256    0.1200
79     H79     7.4423  -11.0306    4.9131 H        1 ZINC000095539256    0.1200
80     H80     8.6108  -12.0460    6.8279 H        1 ZINC000095539256    0.1200
81     H81     8.0731  -14.3475    7.5188 H        1 ZINC000095539256    0.1200
82     H82     6.3664  -15.6332    6.2953 H        1 ZINC000095539256    0.1200
83     H83     5.1946  -14.6162    4.3833 H        1 ZINC000095539256    0.1200
84     H84     4.3996   -7.7973    6.2277 H        1 ZINC000095539256    0.4200
85     H85     4.6099   -5.2481    7.4251 H        1 ZINC000095539256    0.0800
86     H86     3.1597   -6.0532    8.0709 H        1 ZINC000095539256    0.0800
87     H87     4.5418   -7.9959    8.7525 H        1 ZINC000095539256    0.0800
88     H88     5.9920   -7.1907    8.1067 H        1 ZINC000095539256    0.0800
89     H89     4.7521   -5.4467    9.9499 H        1 ZINC000095539256    0.4000
90     H90     5.6401   -5.3175   12.1049 H        1 ZINC000095539256    0.4000
91     H91     6.7482   -7.8462   13.0594 H        1 ZINC000095539256    0.1000
92     H92     8.6899   -6.8457   11.9109 H        1 ZINC000095539256    0.1000
93     H93     8.4552   -5.3260   12.8086 H        1 ZINC000095539256    0.0800
94     H94     9.0662   -8.0526   14.0381 H        1 ZINC000095539256    0.0800
95     H95    10.2169   -6.7057   13.8675 H        1 ZINC000095539256    0.1100
96     H96    10.8260   -7.9364   15.0994 H        1 ZINC000095539256    0.1900
97     H97    12.2587   -8.6068   17.0133 H        1 ZINC000095539256    0.1800
98     H98    11.6713   -7.7890   19.2863 H        1 ZINC000095539256    0.1900
99     H99     9.7008   -6.3472   19.5789 H        1 ZINC000095539256    0.2100
100    H100    7.1932   -7.8477   15.5439 H        1 ZINC000095539256    0.0800
101    H101    6.9684   -6.3503   16.4792 H        1 ZINC000095539256    0.0900
102    H102    6.4867   -5.1106   14.3912 H        1 ZINC000095539256    0.0900
103    H103    5.3673   -6.4822   14.5821 H        1 ZINC000095539256    0.1000
104    H104    2.5572   -2.9665    0.6407 H        1 ZINC000095539256    0.3900
105    H105   -0.0501   -2.0543   -1.3933 H        1 ZINC000095539256    0.3800
@<TRIPOS>BOND
1     1     2     1
2     1     63    1
3     1     64    1
4     1     65    1
5     2     3     1
6     2     66    1
7     2     67    1
8     3     4     am
9     3     68    1
10    4     5     2
11    4     6     1
12    6     7     1
13    6     60    1
14    6     8     1
15    8     9     1
16    9     10    1
17    9     11    1
18    9     57    1
19    11    56    1
20    11    12    1
21    12    13    2
22    12    69    1
23    13    14    1
24    14    56    ar
25    14    15    ar
26    15    16    1
27    15    31    ar
28    16    17    1
29    16    70    1
30    17    18    1
31    17    71    1
32    17    72    1
33    18    19    1
34    18    25    1
35    18    73    1
36    19    24    ar
37    19    20    ar
38    20    21    ar
39    20    74    1
40    21    22    ar
41    21    75    1
42    22    23    ar
43    22    76    1
44    23    24    ar
45    23    77    1
46    24    78    1
47    25    30    ar
48    25    26    ar
49    26    27    ar
50    26    79    1
51    27    28    ar
52    27    80    1
53    28    29    ar
54    28    81    1
55    29    30    ar
56    29    82    1
57    30    83    1
58    31    32    ar
59    32    33    1
60    32    55    ar
61    33    34    2
62    33    35    am
63    35    36    1
64    35    84    1
65    36    37    1
66    36    85    1
67    36    86    1
68    37    38    1
69    37    87    1
70    37    88    1
71    38    39    am
72    38    89    1
73    39    40    2
74    39    41    am
75    41    42    1
76    41    90    1
77    42    54    1
78    42    43    1
79    42    91    1
80    43    44    1
81    43    92    1
82    43    93    1
83    44    45    1
84    44    94    1
85    44    95    1
86    45    46    1
87    45    53    1
88    46    51    ar
89    46    47    ar
90    47    48    ar
91    47    96    1
92    48    49    ar
93    48    97    1
94    49    50    ar
95    49    98    1
96    50    51    ar
97    50    99    1
98    51    52    1
99    53    54    1
100   53    100   1
101   53    101   1
102   54    102   1
103   54    103   1
104   55    56    ar
105   57    58    1
106   57    59    1
107   57    60    1
108   59    104   1
109   60    61    1
110   60    62    1
111   62    105   1
@<TRIPOS>SUBSTRUCTURE
1   ZINC000095539256 1     RESIDUE    1   A     ZIN   1
