@<TRIPOS>MOLECULE
ZINC000000602130
54    56    1     0     0
SMALL
USER_CHARGES
@<TRIPOS>ATOM
1      C1      0.3440    0.9344   -0.9757 C.3      1 ZINC000000602130    0.0400
2      O2      0.3291   -0.4765   -0.7500 O.3      1 ZINC000000602130   -0.2800
3      C3      1.0035   -1.2501   -1.6386 C.ar     1 ZINC000000602130    0.2400
4      N4      1.6406   -0.6923   -2.6542 N.ar     1 ZINC000000602130   -0.4800
5      C5      2.2983   -1.4488   -3.5198 C.ar     1 ZINC000000602130   -0.0300
6      C6      3.0233   -0.8096   -4.6761 C.3      1 ZINC000000602130   -0.0700
7      C7      2.3228   -2.8192   -3.3670 C.ar     1 ZINC000000602130    0.0700
8      N8      1.6879   -3.3887   -2.3539 N.ar     1 ZINC000000602130   -0.5400
9      C9      1.0317   -2.6408   -1.4798 C.ar     1 ZINC000000602130    0.4100
10     N10     0.3634   -3.2360   -0.4139 N.pl3    1 ZINC000000602130   -1.0400
11     S11     0.3877   -4.8823   -0.2368 S.o2     1 ZINC000000602130    2.6300
12     O12    -0.3327   -5.4152   -1.3397 O.2      1 ZINC000000602130   -1.0200
13     O13     1.7328   -5.2345    0.0563 O.2      1 ZINC000000602130   -0.9900
14     C14    -0.5522   -5.2658    1.2034 C.ar     1 ZINC000000602130   -0.6800
15     C15    -1.7760   -5.9026    1.0937 C.ar     1 ZINC000000602130    0.0100
16     C16    -2.4822   -6.1853    2.2545 C.ar     1 ZINC000000602130   -0.2100
17     C17    -1.9477   -5.8257    3.4778 C.ar     1 ZINC000000602130    0.1300
18     N18    -0.7802   -5.2197    3.5541 N.ar     1 ZINC000000602130   -0.4900
19     C19    -0.0711   -4.9373    2.4692 C.ar     1 ZINC000000602130    0.2900
20     C20     1.2386   -4.2537    2.6037 C.ar     1 ZINC000000602130   -0.0900
21     C21     1.4712   -3.0509    1.9395 C.ar     1 ZINC000000602130   -0.0800
22     C22     2.6915   -2.4193    2.0683 C.ar     1 ZINC000000602130   -0.1100
23     C23     3.6830   -2.9783    2.8544 C.ar     1 ZINC000000602130   -0.0400
24     C24     5.0136   -2.2841    2.9906 C.3      1 ZINC000000602130   -0.0500
25     C25     4.9677   -1.3222    4.1795 C.3      1 ZINC000000602130   -0.1300
26     C26     3.8703   -0.2809    3.9509 C.3      1 ZINC000000602130   -0.1200
27     C27     4.6682   -2.1063    5.4587 C.3      1 ZINC000000602130   -0.1200
28     C28     6.2984   -0.6280    4.3158 C.2      1 ZINC000000602130    0.5100
29     O29     7.1999   -0.8794    3.5344 O.co2    1 ZINC000000602130   -0.7000
30     O30     6.4734    0.1849    5.2074 O.co2    1 ZINC000000602130   -0.7000
31     C31     3.4575   -4.1718    3.5163 C.ar     1 ZINC000000602130   -0.1400
32     C32     2.2389   -4.8091    3.3993 C.ar     1 ZINC000000602130   -0.0700
33     H33     1.3726    1.2946   -0.9561 H        1 ZINC000000602130    0.0500
34     H34    -0.0985    1.1515   -1.9479 H        1 ZINC000000602130    0.0400
35     H35    -0.2306    1.4334   -0.1954 H        1 ZINC000000602130    0.0800
36     H36     4.0460   -0.5765   -4.3795 H        1 ZINC000000602130    0.0600
37     H37     3.0379   -1.4980   -5.5210 H        1 ZINC000000602130    0.0600
38     H38     2.5104    0.1081   -4.9639 H        1 ZINC000000602130    0.0600
39     H39     2.8613   -3.4302   -4.0762 H        1 ZINC000000602130    0.1400
40     H40    -2.1728   -6.1733    0.1264 H        1 ZINC000000602130    0.1500
41     H41    -3.4403   -6.6811    2.2028 H        1 ZINC000000602130    0.1300
42     H42    -2.4947   -6.0442    4.3830 H        1 ZINC000000602130    0.1600
43     H43     0.6980   -2.6139    1.3249 H        1 ZINC000000602130    0.1800
44     H44     2.8729   -1.4871    1.5540 H        1 ZINC000000602130    0.1200
45     H45     5.7954   -3.0260    3.1535 H        1 ZINC000000602130    0.0600
46     H46     5.2270   -1.7255    2.0793 H        1 ZINC000000602130    0.0700
47     H47     2.9079   -0.7829    3.8524 H        1 ZINC000000602130    0.0500
48     H48     3.8376    0.4044    4.7979 H        1 ZINC000000602130    0.0500
49     H49     4.0837    0.2778    3.0396 H        1 ZINC000000602130    0.0400
50     H50     5.4500   -2.8482    5.6216 H        1 ZINC000000602130    0.0400
51     H51     4.6355   -1.4211    6.3057 H        1 ZINC000000602130    0.0500
52     H52     3.7058   -2.6084    5.3602 H        1 ZINC000000602130    0.0500
53     H53     4.2351   -4.6037    4.1287 H        1 ZINC000000602130    0.1200
54     H54     2.0639   -5.7409    3.9166 H        1 ZINC000000602130    0.1100
@<TRIPOS>BOND
1     1     2     1
2     1     33    1
3     1     34    1
4     1     35    1
5     2     3     1
6     3     9     ar
7     3     4     ar
8     4     5     ar
9     5     6     1
10    5     7     ar
11    6     36    1
12    6     37    1
13    6     38    1
14    7     8     ar
15    7     39    1
16    8     9     ar
17    9     10    1
18    10    11    1
19    11    12    2
20    11    13    2
21    11    14    1
22    14    19    ar
23    14    15    ar
24    15    16    ar
25    15    40    1
26    16    17    ar
27    16    41    1
28    17    18    ar
29    17    42    1
30    18    19    ar
31    19    20    1
32    20    32    ar
33    20    21    ar
34    21    22    ar
35    21    43    1
36    22    23    ar
37    22    44    1
38    23    24    1
39    23    31    ar
40    24    25    1
41    24    45    1
42    24    46    1
43    25    26    1
44    25    27    1
45    25    28    1
46    26    47    1
47    26    48    1
48    26    49    1
49    27    50    1
50    27    51    1
51    27    52    1
52    28    29    ar
53    28    30    ar
54    31    32    ar
55    31    53    1
56    32    54    1
@<TRIPOS>SUBSTRUCTURE
1   ZINC000000602130 1     RESIDUE    1   A     ZIN   1
