@<TRIPOS>MOLECULE
ZINC000000158743
20    21    1     0     0
SMALL
USER_CHARGES
@<TRIPOS>ATOM
1      O1     -0.0173    1.4248    0.0099 O.3      1 ZINC000000158743   -0.5700
2      C2      0.0021   -0.0041    0.0020 C.3      1 ZINC000000158743    0.1500
3      C3     -1.4117   -0.5257    0.0127 C.2      1 ZINC000000158743   -0.1900
4      C4     -2.5343    0.2103    0.0215 C.2      1 ZINC000000158743    0.0800
5      N5     -3.6298   -0.6096    0.0297 N.pl3    1 ZINC000000158743   -0.6000
6      C6     -3.2286   -1.9268    0.0263 C.ar     1 ZINC000000158743    0.0900
7      C7     -3.9145   -3.1367    0.0316 C.ar     1 ZINC000000158743   -0.1300
8      C8     -3.2116   -4.3219    0.0262 C.ar     1 ZINC000000158743   -0.1000
9      C9     -1.8237   -4.3217    0.0156 C.ar     1 ZINC000000158743   -0.1400
10     C10    -1.1297   -3.1444    0.0103 C.ar     1 ZINC000000158743   -0.0700
11     C11    -1.8217   -1.9321    0.0091 C.ar     1 ZINC000000158743   -0.1000
12     H12     0.8606    1.8301    0.0037 H        1 ZINC000000158743    0.3800
13     H13     0.5123   -0.3556   -0.8948 H        1 ZINC000000158743    0.0500
14     H14     0.5293   -0.3651    0.8851 H        1 ZINC000000158743    0.0500
15     H15    -2.5679    1.2898    0.0224 H        1 ZINC000000158743    0.1800
16     H16    -4.5516   -0.3079    0.0369 H        1 ZINC000000158743    0.4200
17     H17    -4.9944   -3.1474    0.0402 H        1 ZINC000000158743    0.1200
18     H18    -3.7460   -5.2604    0.0307 H        1 ZINC000000158743    0.1300
19     H19    -1.2880   -5.2594    0.0119 H        1 ZINC000000158743    0.1200
20     H20    -0.0498   -3.1520    0.0020 H        1 ZINC000000158743    0.1200
@<TRIPOS>BOND
1     1     2     1
2     1     12    1
3     2     3     1
4     2     13    1
5     2     14    1
6     3     11    1
7     3     4     2
8     4     5     1
9     4     15    1
10    5     6     1
11    5     16    1
12    6     11    ar
13    6     7     ar
14    7     8     ar
15    7     17    1
16    8     9     ar
17    8     18    1
18    9     10    ar
19    9     19    1
20    10    11    ar
21    10    20    1
@<TRIPOS>SUBSTRUCTURE
1   ZINC000000158743 1     RESIDUE    1   A     ZIN   1
