@<TRIPOS>MOLECULE
ZINC000001494227
42    43    1     0     0
SMALL
USER_CHARGES
@<TRIPOS>ATOM
1      C1     -0.1459    1.8572    0.0848 C.3      1 ZINC000001494227   -0.1500
2      C2     -0.1203    0.3433   -0.1352 C.3      1 ZINC000001494227   -0.0500
3      C3      0.6845   -0.3211    0.9837 C.3      1 ZINC000001494227   -0.1400
4      C4     -1.5299   -0.1898   -0.1247 C.ar     1 ZINC000001494227   -0.0700
5      C5     -2.3225   -0.0238    0.9940 C.ar     1 ZINC000001494227   -0.1200
6      C6     -3.6203   -0.5146    1.0036 C.ar     1 ZINC000001494227    0.1300
7      O7     -4.4008   -0.3509    2.1047 O.3      1 ZINC000001494227   -0.2400
8      C8     -5.6660   -0.8479    2.0698 C.ar     1 ZINC000001494227    0.1000
9      C9     -6.7096   -0.0574    1.6085 C.ar     1 ZINC000001494227   -0.0700
10     Br10   -6.3715    1.7102    1.0279 Br       1 ZINC000001494227   -0.0200
11     C11    -7.9953   -0.5622    1.5730 C.ar     1 ZINC000001494227   -0.0700
12     C12    -8.2434   -1.8602    1.9989 C.ar     1 ZINC000001494227    0.1900
13     N13    -9.5468   -2.3724    1.9626 N.am     1 ZINC000001494227   -0.6900
14     C14   -10.3957   -1.9863    0.9897 C.2      1 ZINC000001494227    0.5100
15     O15   -10.0041   -1.2710    0.0918 O.2      1 ZINC000001494227   -0.4500
16     C16   -11.8315   -2.4432    1.0173 C.3      1 ZINC000001494227   -0.2100
17     C17   -12.5620   -1.8767   -0.1729 C.2      1 ZINC000001494227    0.4900
18     O18   -11.9714   -1.1677   -0.9698 O.co2    1 ZINC000001494227   -0.6500
19     O19   -13.7435   -2.1275   -0.3390 O.co2    1 ZINC000001494227   -0.7000
20     C20    -7.1993   -2.6507    2.4604 C.ar     1 ZINC000001494227   -0.1100
21     C21    -5.9129   -2.1474    2.4903 C.ar     1 ZINC000001494227   -0.0700
22     Br22   -4.4909   -3.2239    3.1188 Br       1 ZINC000001494227   -0.0200
23     C23    -4.1214   -1.1718   -0.1104 C.ar     1 ZINC000001494227   -0.1800
24     C24    -3.3283   -1.3377   -1.2292 C.ar     1 ZINC000001494227   -0.1000
25     C25    -2.0330   -0.8421   -1.2408 C.ar     1 ZINC000001494227    0.0700
26     O26    -1.2526   -1.0051   -2.3423 O.3      1 ZINC000001494227   -0.4900
27     H27     0.8736    2.2427    0.0772 H        1 ZINC000001494227    0.0600
28     H28    -0.7193    2.3305   -0.7122 H        1 ZINC000001494227    0.0600
29     H29    -0.6103    2.0768    1.0462 H        1 ZINC000001494227    0.0600
30     H30     0.3440    0.1236   -1.0965 H        1 ZINC000001494227    0.0900
31     H31     0.2201   -0.1014    1.9450 H        1 ZINC000001494227    0.0600
32     H32     0.7027   -1.3996    0.8270 H        1 ZINC000001494227    0.0600
33     H33     1.7040    0.0644    0.9761 H        1 ZINC000001494227    0.0600
34     H34    -1.9321    0.4877    1.8614 H        1 ZINC000001494227    0.1400
35     H35    -8.8073    0.0530    1.2144 H        1 ZINC000001494227    0.1600
36     H36    -9.8383   -3.0050    2.6378 H        1 ZINC000001494227    0.4100
37     H37   -11.8671   -3.5320    0.9810 H        1 ZINC000001494227    0.0900
38     H38   -12.3062   -2.0946    1.9345 H        1 ZINC000001494227    0.0900
39     H39    -7.3920   -3.6604    2.7917 H        1 ZINC000001494227    0.1500
40     H40    -5.1314   -1.5542   -0.1029 H        1 ZINC000001494227    0.1300
41     H41    -3.7184   -1.8495   -2.0966 H        1 ZINC000001494227    0.1300
42     H42    -1.3232   -0.2853   -2.9843 H        1 ZINC000001494227    0.3800
@<TRIPOS>BOND
1     1     2     1
2     1     27    1
3     1     28    1
4     1     29    1
5     2     3     1
6     2     4     1
7     2     30    1
8     3     31    1
9     3     32    1
10    3     33    1
11    4     25    ar
12    4     5     ar
13    5     6     ar
14    5     34    1
15    6     7     1
16    6     23    ar
17    7     8     1
18    8     21    ar
19    8     9     ar
20    9     10    1
21    9     11    ar
22    11    12    ar
23    11    35    1
24    12    13    1
25    12    20    ar
26    13    14    am
27    13    36    1
28    14    15    2
29    14    16    1
30    16    17    1
31    16    37    1
32    16    38    1
33    17    18    ar
34    17    19    ar
35    20    21    ar
36    20    39    1
37    21    22    1
38    23    24    ar
39    23    40    1
40    24    25    ar
41    24    41    1
42    25    26    1
43    26    42    1
@<TRIPOS>SUBSTRUCTURE
1   ZINC000001494227 1     RESIDUE    1   A     ZIN   1
