@<TRIPOS>MOLECULE
ZINC000001648272
20    19    1     0     0
SMALL
USER_CHARGES
@<TRIPOS>ATOM
1      C1     -0.0184    1.5028    0.0103 C.3      1 ZINC000001648272   -0.1500
2      C2      0.0021   -0.0041    0.0020 C.2      1 ZINC000001648272    0.4600
3      O3      1.0565   -0.5939   -0.0112 O.2      1 ZINC000001648272   -0.5100
4      O4     -1.1511   -0.6910    0.0093 O.3      1 ZINC000001648272   -0.3500
5      C5     -1.0555   -2.1398    0.0006 C.3      1 ZINC000001648272    0.0700
6      C6     -2.4612   -2.7438    0.0108 C.3      1 ZINC000001648272    0.0700
7      O7     -3.1461   -2.3966   -1.2215 O.3      1 ZINC000001648272   -0.3500
8      C8     -4.3995   -2.8528   -1.3714 C.2      1 ZINC000001648272    0.4600
9      C9     -5.1731   -2.5327   -2.6245 C.3      1 ZINC000001648272   -0.1500
10     O10    -4.9076   -3.5201   -0.5017 O.2      1 ZINC000001648272   -0.5100
11     H11     1.0042    1.8801    0.0026 H        1 ZINC000001648272    0.1000
12     H12    -0.5455    1.8639   -0.8728 H        1 ZINC000001648272    0.1000
13     H13    -0.5286    1.8543    0.9071 H        1 ZINC000001648272    0.1000
14     H14    -0.5273   -2.4637   -0.8962 H        1 ZINC000001648272    0.0800
15     H15    -0.5104   -2.4732    0.8837 H        1 ZINC000001648272    0.1000
16     H16    -2.3901   -3.8283    0.0939 H        1 ZINC000001648272    0.1000
17     H17    -3.0196   -2.3502    0.8601 H        1 ZINC000001648272    0.0800
18     H18    -4.5560   -1.9262   -3.2875 H        1 ZINC000001648272    0.0900
19     H19    -5.4466   -3.4592   -3.1293 H        1 ZINC000001648272    0.1100
20     H20    -6.0761   -1.9811   -2.3631 H        1 ZINC000001648272    0.1100
@<TRIPOS>BOND
1     1     2     1
2     1     11    1
3     1     12    1
4     1     13    1
5     2     3     2
6     2     4     1
7     4     5     1
8     5     6     1
9     5     14    1
10    5     15    1
11    6     7     1
12    6     16    1
13    6     17    1
14    7     8     1
15    8     9     1
16    8     10    2
17    9     18    1
18    9     19    1
19    9     20    1
@<TRIPOS>SUBSTRUCTURE
1   ZINC000001648272 1     RESIDUE    1   A     ZIN   1
