@<TRIPOS>MOLECULE
ZINC000003977757
  46   48    0    0    0
SMALL
USER_CHARGES
NO_NAME
@<TRIPOS>ATOM
    1 C1       -0.0187     1.5258     0.0104 C.3    1 <0>      -0.1500
    2 C2        0.0021    -0.0041     0.0020 C.3    1 <0>      -0.1400
    3 C3        0.7182    -0.4975    -1.2568 C.3    1 <0>       0.1100
    4 N4        0.7381    -1.9623    -1.2648 N.am   1 <0>      -0.5200
    5 C5        1.7862    -2.6311    -0.6753 C.2    1 <0>       0.2700
    6 C6        1.7960    -4.0207    -0.6881 C.2    1 <0>      -0.0900
    7 N7        2.9217    -4.4234    -0.0512 N.2    1 <0>      -0.4000
    8 C8        3.5864    -3.3756     0.3418 C.2    1 <0>       0.2400
    9 C9        4.8953    -3.4059     1.0881 C.3    1 <0>      -0.0100
   10 C10       5.7383    -2.1498     0.7555 C.3    1 <0>      -0.1200
   11 C11       6.6738    -2.0308     1.9842 C.3    1 <0>      -0.1200
   12 C12       5.7832    -2.4325     3.1780 C.3    1 <0>      -0.1300
   13 C13       4.6525    -3.3068     2.6083 C.3    1 <0>      -0.1200
   14 N14       2.9159    -2.2454    -0.0257 N.pl3  1 <0>      -0.5500
   15 C15       0.6818    -4.7170    -1.3335 C.2    1 <0>       0.5900
   16 O16       0.6451    -5.9333    -1.3700 O.2    1 <0>      -0.4800
   17 N17      -0.3050    -3.9794    -1.8871 N.am   1 <0>      -0.5500
   18 C18      -1.4314    -4.6526    -2.5385 C.3    1 <0>       0.1100
   19 C19      -2.5384    -4.9030    -1.5125 C.3    1 <0>      -0.1400
   20 C20      -3.7148    -5.6060    -2.1928 C.3    1 <0>      -0.1500
   21 C21      -0.2709    -2.6371    -1.8435 C.2    1 <0>       0.7100
   22 O22      -1.1794    -2.0103    -2.3536 O.2    1 <0>      -0.5300
   23 H23       1.0039     1.9031     0.0027 H      1 <0>       0.0600
   24 H24      -0.5459     1.8868    -0.8726 H      1 <0>       0.0600
   25 H25      -0.5289     1.8773     0.9072 H      1 <0>       0.0600
   26 H26       0.5293    -0.3651     0.8851 H      1 <0>       0.0600
   27 H27      -1.0205    -0.3814     0.0098 H      1 <0>       0.0800
   28 H28       0.1910    -0.1364    -2.1398 H      1 <0>       0.1100
   29 H29       1.7408    -0.1202    -1.2645 H      1 <0>       0.0800
   30 H30       5.4490    -4.3138     0.8486 H      1 <0>       0.1200
   31 H31       6.3157    -2.3025    -0.1563 H      1 <0>       0.0800
   32 H32       5.1016    -1.2694     0.6679 H      1 <0>       0.0600
   33 H33       7.5167    -2.7154     1.8896 H      1 <0>       0.0700
   34 H34       7.0250    -1.0052     2.0983 H      1 <0>       0.0700
   35 H35       6.3653    -3.0009     3.9035 H      1 <0>       0.0700
   36 H36       5.3659    -1.5423     3.6487 H      1 <0>       0.0700
   37 H37       3.6863    -2.8410     2.8025 H      1 <0>       0.0600
   38 H38       4.6858    -4.2995     3.0573 H      1 <0>       0.0800
   39 H39       3.1951    -1.3323     0.1453 H      1 <0>       0.4300
   40 H40      -1.8157    -4.0234    -3.3413 H      1 <0>       0.1000
   41 H41      -1.0965    -5.6042    -2.9513 H      1 <0>       0.1000
   42 H42      -2.1541    -5.5322    -0.7097 H      1 <0>       0.0700
   43 H43      -2.8733    -3.9514    -1.0997 H      1 <0>       0.0700
   44 H44      -4.5034    -5.7845    -1.4619 H      1 <0>       0.0600
   45 H45      -4.0991    -4.9768    -2.9957 H      1 <0>       0.0600
   46 H46      -3.3799    -6.5576    -2.6056 H      1 <0>       0.0600
@<TRIPOS>BOND
   1    1    2 1
   2    1   23 1
   3    1   24 1
   4    1   25 1
   5    2    3 1
   6    2   26 1
   7    2   27 1
   8    3    4 1
   9    3   28 1
  10    3   29 1
  11    4   21 am
  12    4    5 1
  13    5   14 1
  14    5    6 2
  15    6    7 1
  16    6   15 1
  17    7    8 2
  18    8    9 1
  19    8   14 1
  20    9   13 1
  21    9   10 1
  22    9   30 1
  23   10   11 1
  24   10   31 1
  25   10   32 1
  26   11   12 1
  27   11   33 1
  28   11   34 1
  29   12   13 1
  30   12   35 1
  31   12   36 1
  32   13   37 1
  33   13   38 1
  34   14   39 1
  35   15   16 2
  36   15   17 am
  37   17   18 1
  38   17   21 am
  39   18   19 1
  40   18   40 1
  41   18   41 1
  42   19   20 1
  43   19   42 1
  44   19   43 1
  45   20   44 1
  46   20   45 1
  47   20   46 1
  48   21   22 2
