@<TRIPOS>MOLECULE
ZINC000003776950
59    61    1     0     0
SMALL
USER_CHARGES
@<TRIPOS>ATOM
1      C1      0.2160    1.4705    0.1228 C.3      1 ZINC000003776950   -0.0100
2      N2      0.2694    0.0025    0.1308 N.4      1 ZINC000003776950   -0.1200
3      C3      1.1404   -0.4498    1.2239 C.3      1 ZINC000003776950   -0.0200
4      O4     -1.0777   -0.5334    0.3270 O.3      1 ZINC000003776950   -0.6500
5      C5      0.8045   -0.4750   -1.1512 C.3      1 ZINC000003776950    0.0100
6      C6      0.8602   -2.0039   -1.1429 C.3      1 ZINC000003776950    0.1200
7      N7      1.3938   -2.4802   -2.4214 N.pl3    1 ZINC000003776950   -0.7300
8      C8      1.5381   -3.8412   -2.6492 C.ar     1 ZINC000003776950    0.2100
9      C9      1.0530   -4.7630   -1.7179 C.ar     1 ZINC000003776950   -0.1300
10     C10     1.1917   -6.1136   -1.9342 C.ar     1 ZINC000003776950   -0.1400
11     C11     1.8203   -6.5869   -3.0888 C.ar     1 ZINC000003776950    0.2200
12     N12     1.9556   -7.9519   -3.2978 N.pl3    1 ZINC000003776950   -0.7400
13     C13     1.4092   -8.8998   -2.3235 C.3      1 ZINC000003776950    0.1200
14     C14     1.6919  -10.3296   -2.7891 C.3      1 ZINC000003776950    0.0100
15     N15     1.1440  -11.2800   -1.8122 N.4      1 ZINC000003776950   -0.1200
16     C16    -0.3068  -11.0809   -1.6959 C.3      1 ZINC000003776950   -0.0200
17     C17     1.4155  -12.6528   -2.2593 C.3      1 ZINC000003776950   -0.0100
18     O18     1.7727  -11.0579   -0.5101 O.3      1 ZINC000003776950   -0.6500
19     C19     2.3121   -5.6811   -4.0326 C.ar     1 ZINC000003776950   -0.1600
20     C20     2.1641   -4.2947   -3.8136 C.ar     1 ZINC000003776950   -0.1400
21     C21     2.6805   -3.3394   -4.8087 C.2      1 ZINC000003776950    0.4400
22     O22     2.7883   -2.1595   -4.5317 O.2      1 ZINC000003776950   -0.4500
23     C23     3.0658   -3.8306   -6.1450 C.ar     1 ZINC000003776950   -0.2800
24     C24     3.2839   -2.9377   -7.1950 C.ar     1 ZINC000003776950    0.3000
25     O25     3.1431   -1.6036   -6.9941 O.3      1 ZINC000003776950   -0.6700
26     C26     3.6474   -3.4210   -8.4506 C.ar     1 ZINC000003776950   -0.2100
27     C27     3.7938   -4.7737   -8.6638 C.ar     1 ZINC000003776950   -0.0900
28     C28     3.5798   -5.6808   -7.6277 C.ar     1 ZINC000003776950    0.0200
29     O29     3.7266   -7.0113   -7.8470 O.3      1 ZINC000003776950   -0.4900
30     C30     3.2147   -5.2159   -6.3636 C.ar     1 ZINC000003776950   -0.0900
31     C31     2.9775   -6.1595   -5.2566 C.2      1 ZINC000003776950    0.4500
32     O32     3.3311   -7.3200   -5.3502 O.2      1 ZINC000003776950   -0.4700
33     H33     1.2196    1.8699   -0.0234 H        1 ZINC000003776950    0.0800
34     H34    -0.4303    1.8062   -0.6883 H        1 ZINC000003776950    0.1000
35     H35    -0.1811    1.8249    1.0740 H        1 ZINC000003776950    0.1000
36     H36     0.7433   -0.0955    2.1751 H        1 ZINC000003776950    0.1000
37     H37     1.1800   -1.5390    1.2298 H        1 ZINC000003776950    0.1000
38     H38     2.1440   -0.0505    1.0777 H        1 ZINC000003776950    0.0800
39     H39     0.1582   -0.1394   -1.9623 H        1 ZINC000003776950    0.1100
40     H40     1.8081   -0.0757   -1.2974 H        1 ZINC000003776950    0.1000
41     H41     1.5064   -2.3396   -0.3318 H        1 ZINC000003776950    0.0600
42     H42    -0.1435   -2.4033   -0.9967 H        1 ZINC000003776950    0.0800
43     H43     1.6462   -1.8440   -3.1088 H        1 ZINC000003776950    0.4200
44     H44     0.5655   -4.4116   -0.8205 H        1 ZINC000003776950    0.1300
45     H45     0.8118   -6.8145   -1.2056 H        1 ZINC000003776950    0.1300
46     H46     2.4120   -8.2785   -4.0889 H        1 ZINC000003776950    0.4100
47     H47     1.8776   -8.7343   -1.3534 H        1 ZINC000003776950    0.0900
48     H48     0.3327   -8.7520   -2.2372 H        1 ZINC000003776950    0.0600
49     H49     1.2235  -10.4951   -3.7593 H        1 ZINC000003776950    0.0900
50     H50     2.7684  -10.4773   -2.8755 H        1 ZINC000003776950    0.1100
51     H51    -0.7752  -11.2464   -2.6661 H        1 ZINC000003776950    0.0800
52     H52    -0.7133  -11.7862   -0.9710 H        1 ZINC000003776950    0.1000
53     H53    -0.5082  -10.0623   -1.3642 H        1 ZINC000003776950    0.1000
54     H54     2.4920  -12.8006   -2.3456 H        1 ZINC000003776950    0.1000
55     H55     1.0090  -13.3581   -1.5344 H        1 ZINC000003776950    0.1000
56     H56     0.9471  -12.8183   -3.2294 H        1 ZINC000003776950    0.0800
57     H57     3.8158   -2.7293   -9.2627 H        1 ZINC000003776950    0.1100
58     H58     4.0765   -5.1344   -9.6417 H        1 ZINC000003776950    0.1100
59     H59     4.6214   -7.3403   -7.6848 H        1 ZINC000003776950    0.3700
@<TRIPOS>BOND
1     1     2     1
2     1     33    1
3     1     34    1
4     1     35    1
5     2     3     1
6     2     4     1
7     2     5     1
8     3     36    1
9     3     37    1
10    3     38    1
11    5     6     1
12    5     39    1
13    5     40    1
14    6     7     1
15    6     41    1
16    6     42    1
17    7     8     1
18    7     43    1
19    8     20    ar
20    8     9     ar
21    9     10    ar
22    9     44    1
23    10    11    ar
24    10    45    1
25    11    12    1
26    11    19    ar
27    12    13    1
28    12    46    1
29    13    14    1
30    13    47    1
31    13    48    1
32    14    15    1
33    14    49    1
34    14    50    1
35    15    16    1
36    15    17    1
37    15    18    1
38    16    51    1
39    16    52    1
40    16    53    1
41    17    54    1
42    17    55    1
43    17    56    1
44    19    31    1
45    19    20    ar
46    20    21    1
47    21    22    2
48    21    23    1
49    23    30    ar
50    23    24    ar
51    24    25    1
52    24    26    ar
53    26    27    ar
54    26    57    1
55    27    28    ar
56    27    58    1
57    28    29    1
58    28    30    ar
59    29    59    1
60    30    31    1
61    31    32    2
@<TRIPOS>SUBSTRUCTURE
1   ZINC000003776950 1     RESIDUE    1   A     ZIN   1
