@<TRIPOS>MOLECULE
ZINC000095079936
  42   45    0    0    0
SMALL
USER_CHARGES
NO_NAME
@<TRIPOS>ATOM
    1 C1       -0.0184     1.5028     0.0103 C.3    1 <0>      -0.0900
    2 C2        0.0021    -0.0041     0.0020 C.2    1 <0>       0.0900
    3 C3        0.0079    -0.7942    -1.0955 C.2    1 <0>      -0.2600
    4 C4        0.0279    -2.1305    -0.6642 C.2    1 <0>       0.3000
    5 N5        0.0400    -3.2614    -1.4901 N.pl3  1 <0>      -0.6000
    6 C6        0.0323    -3.1141    -2.8612 C.ar   1 <0>       0.4800
    7 C7        0.0383    -4.2443    -3.7145 C.ar   1 <0>      -0.1900
    8 C8        0.0516    -5.5521    -3.2172 C.ar   1 <0>      -0.0700
    9 C9        0.0565    -6.6019    -4.0880 C.ar   1 <0>      -0.1300
   10 C10       0.0484    -6.3895    -5.4637 C.ar   1 <0>      -0.0700
   11 C11       0.0353    -5.1279    -5.9799 C.ar   1 <0>      -0.1100
   12 C12       0.0299    -4.0260    -5.1139 C.ar   1 <0>       0.1900
   13 N13       0.0166    -2.7646    -5.5692 N.ar   1 <0>      -0.5300
   14 C14       0.0116    -1.7549    -4.7313 C.ar   1 <0>       0.3400
   15 C15      -0.0040    -0.3557    -5.2909 C.3    1 <0>       0.2300
   16 H16       0.2594     0.3527    -4.5055 H      1 <0>       0.1300
   17 O17       0.9426    -0.2586    -6.3571 O.3    1 <0>      -0.5400
   18 C18      -1.3819    -0.0384    -5.8121 C.ar   1 <0>      -0.1300
   19 C19      -1.7766    -0.5074    -7.0513 C.ar   1 <0>      -0.0600
   20 C20      -3.0400    -0.2171    -7.5303 C.ar   1 <0>      -0.1500
   21 C21      -3.9107     0.5434    -6.7684 C.ar   1 <0>       0.1100
   22 F22      -5.1462     0.8275    -7.2354 F      1 <0>      -0.1400
   23 C23      -3.5145     1.0122    -5.5273 C.ar   1 <0>      -0.1600
   24 C24      -2.2523     0.7166    -5.0483 C.ar   1 <0>      -0.0700
   25 N25       0.0135    -1.9096    -3.4172 N.ar   1 <0>      -0.5600
   26 N26       0.0339    -2.1341     0.6482 N.2    1 <0>      -0.3200
   27 N27       0.0237    -0.8044     1.0886 N.pl3  1 <0>      -0.4700
   28 H28       1.0042     1.8801     0.0026 H      1 <0>       0.0800
   29 H29      -0.5455     1.8639    -0.8728 H      1 <0>       0.0900
   30 H30      -0.5286     1.8543     0.9071 H      1 <0>       0.0700
   31 H31      -0.0017    -0.4573    -2.1215 H      1 <0>       0.1800
   32 H32       0.0538    -4.1484    -1.0977 H      1 <0>       0.4300
   33 H33       0.0583    -5.7290    -2.1518 H      1 <0>       0.1300
   34 H34       0.0671    -7.6116    -3.7049 H      1 <0>       0.1300
   35 H35       0.0529    -7.2375    -6.1325 H      1 <0>       0.1400
   36 H36       0.0292    -4.9785    -7.0495 H      1 <0>       0.1400
   37 H37       0.7698    -0.8621    -7.0927 H      1 <0>       0.3900
   38 H38      -1.0972    -1.1006    -7.6454 H      1 <0>       0.1400
   39 H39      -3.3478    -0.5829    -8.4986 H      1 <0>       0.1400
   40 H40      -4.1928     1.6058    -4.9323 H      1 <0>       0.1400
   41 H41      -1.9432     1.0818    -4.0801 H      1 <0>       0.1400
   42 H42       0.0257    -0.5103     2.0129 H      1 <0>       0.4400
@<TRIPOS>BOND
   1    1    2 1
   2    1   28 1
   3    1   29 1
   4    1   30 1
   5    2   27 1
   6    2    3 2
   7    3    4 1
   8    3   31 1
   9    4    5 1
  10    4   26 2
  11    5    6 1
  12    5   32 1
  13    6   25 ar
  14    6    7 ar
  15    7   12 ar
  16    7    8 ar
  17    8    9 ar
  18    8   33 1
  19    9   10 ar
  20    9   34 1
  21   10   11 ar
  22   10   35 1
  23   11   12 ar
  24   11   36 1
  25   12   13 ar
  26   13   14 ar
  27   14   15 1
  28   14   25 ar
  29   15   16 1
  30   15   17 1
  31   15   18 1
  32   17   37 1
  33   18   24 ar
  34   18   19 ar
  35   19   20 ar
  36   19   38 1
  37   20   21 ar
  38   20   39 1
  39   21   22 1
  40   21   23 ar
  41   23   24 ar
  42   23   40 1
  43   24   41 1
  44   26   27 1
  45   27   42 1
