@<TRIPOS>MOLECULE
ZINC000043206319
43    45    1     0     0
SMALL
USER_CHARGES
@<TRIPOS>ATOM
1      O1      0.0021   -0.0041    0.0020 O.2      1 ZINC000043206319   -0.5100
2      C2     -0.0144    1.2086    0.0087 C.2      1 ZINC000043206319    0.5300
3      N3      1.1435    1.8983    0.0013 N.am     1 ZINC000043206319   -0.7300
4      C4      2.4220    1.1832   -0.0147 C.3      1 ZINC000043206319    0.1400
5      C5      2.7986    0.8398   -1.4588 C.3      1 ZINC000043206319   -0.1700
6      C6      4.1715    0.1642   -1.4753 C.3      1 ZINC000043206319    0.0000
7      N7      5.1751    1.0735   -0.9093 N.4      1 ZINC000043206319   -0.5100
8      H8      6.0872    0.6463   -0.9706 H        1 ZINC000043206319    0.4300
9      H9      5.1745    1.9386   -1.4285 H        1 ZINC000043206319    0.4300
10     C10     4.8597    1.3502    0.4973 C.3      1 ZINC000043206319    0.0000
11     C11     3.5133    2.0715    0.5896 C.3      1 ZINC000043206319   -0.1600
12     C12    -1.3296    1.9443    0.0189 C.3      1 ZINC000043206319    0.1600
13     H13    -1.4352    2.5868   -0.8552 H        1 ZINC000043206319    0.1300
14     C14    -1.5423    2.7341    1.3485 C.3      1 ZINC000043206319   -0.1300
15     C15    -1.9395    1.7913    2.4753 C.3      1 ZINC000043206319   -0.1200
16     C16    -3.0165    0.7467    2.1825 C.3      1 ZINC000043206319    0.1100
17     H17    -3.3281    0.1893    3.0658 H        1 ZINC000043206319    0.1300
18     C18    -2.4094   -0.1574    1.0366 C.3      1 ZINC000043206319    0.0900
19     N19    -2.4630    1.0301    0.1621 N.am     1 ZINC000043206319   -0.6500
20     C20    -3.7558    1.3439    0.0905 C.2      1 ZINC000043206319    0.7400
21     O21    -4.4295    1.5646   -0.8973 O.2      1 ZINC000043206319   -0.4700
22     N22    -4.1505    1.3612    1.4351 N.am     1 ZINC000043206319   -0.4700
23     O23    -5.3718    1.8558    1.9536 O.3      1 ZINC000043206319   -0.5500
24     S24    -6.4798    0.8150    2.0274 S.o2     1 ZINC000043206319    2.7400
25     O25    -7.7248    1.5410    2.2248 O.co2    1 ZINC000043206319   -1.0600
26     O26    -6.4628    0.0940    0.7641 O.co2    1 ZINC000043206319   -1.0700
27     O27    -6.1680   -0.0505    3.1542 O.co2    1 ZINC000043206319   -1.0800
28     H28     1.1304    2.8682    0.0067 H        1 ZINC000043206319    0.4100
29     H29     2.3341    0.2663    0.5681 H        1 ZINC000043206319    0.1100
30     H30     2.0545    0.1624   -1.8778 H        1 ZINC000043206319    0.1200
31     H31     2.8354    1.7533   -2.0524 H        1 ZINC000043206319    0.0900
32     H32     4.1336   -0.7492   -0.8817 H        1 ZINC000043206319    0.1300
33     H33     4.4426   -0.0818   -2.5020 H        1 ZINC000043206319    0.1400
34     H34     4.8071    0.4115    1.0488 H        1 ZINC000043206319    0.1300
35     H35     5.6389    1.9798    0.9268 H        1 ZINC000043206319    0.1400
36     H36     3.5649    3.0105    0.0386 H        1 ZINC000043206319    0.1000
37     H37     3.2800    2.2744    1.6348 H        1 ZINC000043206319    0.1200
38     H38    -0.6164    3.2433    1.6158 H        1 ZINC000043206319    0.0700
39     H39    -2.3297    3.4739    1.2048 H        1 ZINC000043206319    0.0900
40     H40    -1.0427    1.2633    2.7995 H        1 ZINC000043206319    0.0700
41     H41    -2.2837    2.3990    3.3122 H        1 ZINC000043206319    0.0800
42     H42    -1.3957   -0.5006    1.2435 H        1 ZINC000043206319    0.1300
43     H43    -3.0729   -0.9617    0.7187 H        1 ZINC000043206319    0.1100
@<TRIPOS>BOND
1     1     2     2
2     2     3     am
3     2     12    1
4     3     4     1
5     3     28    1
6     4     11    1
7     4     5     1
8     4     29    1
9     5     6     1
10    5     30    1
11    5     31    1
12    6     7     1
13    6     32    1
14    6     33    1
15    7     8     1
16    7     9     1
17    7     10    1
18    10    11    1
19    10    34    1
20    10    35    1
21    11    36    1
22    11    37    1
23    12    13    1
24    12    19    1
25    12    14    1
26    14    15    1
27    14    38    1
28    14    39    1
29    15    16    1
30    15    40    1
31    15    41    1
32    16    17    1
33    16    22    1
34    16    18    1
35    18    19    1
36    18    42    1
37    18    43    1
38    19    20    am
39    20    21    2
40    20    22    am
41    22    23    1
42    23    24    1
43    24    25    ar
44    24    26    ar
45    24    27    ar
@<TRIPOS>SUBSTRUCTURE
1   ZINC000043206319 1     RESIDUE    1   A     ZIN   1
