@<TRIPOS>MOLECULE
ZINC000003936307
82    86    1     0     0
SMALL
USER_CHARGES
@<TRIPOS>ATOM
1      C1      2.5186    0.4166   -2.0027 C.3      1 ZINC000003936307   -0.1500
2      C2      2.2373   -1.0466   -1.6551 C.3      1 ZINC000003936307   -0.1100
3      C3      0.7486   -1.3403   -1.8513 C.3      1 ZINC000003936307   -0.1300
4      C4      0.4673   -2.8035   -1.5037 C.3      1 ZINC000003936307    0.2100
5      H5      1.1190   -3.4487   -2.0930 H        1 ZINC000003936307    0.1100
6      N6      0.7213   -3.0242   -0.0779 N.am     1 ZINC000003936307   -0.7200
7      C7      1.9699   -3.2973    0.3498 C.2      1 ZINC000003936307    0.7200
8      O8      2.8852   -3.3603   -0.4474 O.2      1 ZINC000003936307   -0.5400
9      N9      2.2036   -3.5004    1.6615 N.am     1 ZINC000003936307   -0.6100
10     C10     1.4384   -3.5082    2.7689 C.2      1 ZINC000003936307    0.5300
11     O11     0.2510   -3.3263    2.9328 O.2      1 ZINC000003936307   -0.4600
12     C12     2.5500   -3.8186    3.7359 C.3      1 ZINC000003936307   -0.0800
13     C13     2.8679   -2.6880    4.7165 C.3      1 ZINC000003936307   -0.0900
14     C14     1.6768   -2.4751    5.6530 C.3      1 ZINC000003936307   -0.1600
15     C15     2.4407   -5.1903    4.4046 C.3      1 ZINC000003936307   -0.1000
16     C16     3.6392   -5.4028    5.3316 C.3      1 ZINC000003936307   -0.1500
17     C17     3.3913   -3.8083    2.4594 C.3      1 ZINC000003936307    0.3000
18     H18     3.8253   -4.7807    2.2265 H        1 ZINC000003936307    0.1200
19     O19     4.3612   -2.7591    2.4369 O.3      1 ZINC000003936307   -0.2900
20     C20     5.2875   -2.7975    1.4459 C.ar     1 ZINC000003936307    0.1500
21     C21     5.2583   -3.8241    0.5093 C.ar     1 ZINC000003936307   -0.1600
22     C22     6.1964   -3.8666   -0.4979 C.ar     1 ZINC000003936307   -0.0200
23     C23     7.1783   -2.8756   -0.5778 C.ar     1 ZINC000003936307   -0.1800
24     C24     8.1855   -2.9171   -1.6560 C.2      1 ZINC000003936307    0.5800
25     O25     7.8521   -3.2082   -2.7884 O.2      1 ZINC000003936307   -0.5000
26     N26     9.4747   -2.6322   -1.3852 N.am     1 ZINC000003936307   -0.6300
27     C27     9.9230   -2.3952   -0.0043 C.3      1 ZINC000003936307    0.0800
28     C28    11.1511   -3.2712    0.2647 C.3      1 ZINC000003936307   -0.0200
29     N29    12.1720   -3.0084   -0.7575 N.4      1 ZINC000003936307   -0.3900
30     H30    12.3860   -2.0225   -0.7716 H        1 ZINC000003936307    0.4300
31     C31    13.3886   -3.7673   -0.4384 C.3      1 ZINC000003936307   -0.0500
32     C32    11.6755   -3.4186   -2.0771 C.3      1 ZINC000003936307   -0.0200
33     C33    10.4746   -2.5555   -2.4615 C.3      1 ZINC000003936307    0.0900
34     C34     7.2039   -1.8450    0.3655 C.ar     1 ZINC000003936307   -0.0700
35     C35     6.2593   -1.8069    1.3667 C.ar     1 ZINC000003936307   -0.1400
36     C36    -0.9719   -3.1256   -1.8133 C.ar     1 ZINC000003936307   -0.0900
37     C37    -1.9673   -2.7541   -0.9294 C.ar     1 ZINC000003936307   -0.1000
38     C38    -3.2894   -3.0474   -1.2090 C.ar     1 ZINC000003936307   -0.0900
39     C39    -3.6192   -3.7153   -2.3767 C.ar     1 ZINC000003936307    0.0400
40     O40    -4.8222   -4.1182   -2.8802 O.3      1 ZINC000003936307   -0.3100
41     C41    -4.5868   -4.3786   -4.2766 C.3      1 ZINC000003936307    0.2100
42     O42    -3.1907   -4.7272   -4.3290 O.3      1 ZINC000003936307   -0.3100
43     C43    -2.6159   -4.0899   -3.2676 C.ar     1 ZINC000003936307    0.0400
44     C44    -1.2944   -3.7873   -2.9839 C.ar     1 ZINC000003936307   -0.0900
45     H45     3.5791    0.6259   -1.8629 H        1 ZINC000003936307    0.0500
46     H46     2.2454    0.6023   -3.0414 H        1 ZINC000003936307    0.0500
47     H47     1.9316    1.0641   -1.3513 H        1 ZINC000003936307    0.0500
48     H48     2.8243   -1.6941   -2.3065 H        1 ZINC000003936307    0.0700
49     H49     2.5105   -1.2323   -0.6164 H        1 ZINC000003936307    0.0600
50     H50     0.1616   -0.6928   -1.1999 H        1 ZINC000003936307    0.0700
51     H51     0.4754   -1.1546   -2.8900 H        1 ZINC000003936307    0.0800
52     H52    -0.0091   -2.9739    0.5584 H        1 ZINC000003936307    0.4100
53     H53     3.7482   -2.9522    5.3026 H        1 ZINC000003936307    0.0900
54     H54     3.0627   -1.7701    4.1620 H        1 ZINC000003936307    0.0800
55     H55     1.5197   -3.3729    6.2509 H        1 ZINC000003936307    0.0600
56     H56     1.8790   -1.6306    6.3118 H        1 ZINC000003936307    0.0700
57     H57     0.7832   -2.2703    5.0634 H        1 ZINC000003936307    0.0600
58     H58     1.5193   -5.2393    4.9849 H        1 ZINC000003936307    0.0900
59     H59     2.4303   -5.9674    3.6402 H        1 ZINC000003936307    0.0800
60     H60     3.5952   -6.4047    5.7586 H        1 ZINC000003936307    0.0700
61     H61     4.5625   -5.2902    4.7633 H        1 ZINC000003936307    0.0600
62     H62     3.6137   -4.6647    6.1333 H        1 ZINC000003936307    0.0700
63     H63     4.4991   -4.5897    0.5717 H        1 ZINC000003936307    0.1400
64     H64     6.1735   -4.6650   -1.2249 H        1 ZINC000003936307    0.1300
65     H65    10.1879   -1.3452    0.1197 H        1 ZINC000003936307    0.1000
66     H66     9.1255   -2.6594    0.6901 H        1 ZINC000003936307    0.1400
67     H67    11.5549   -3.0382    1.2500 H        1 ZINC000003936307    0.1500
68     H68    10.8630   -4.3218    0.2290 H        1 ZINC000003936307    0.1300
69     H69    13.1580   -4.8325   -0.4196 H        1 ZINC000003936307    0.1200
70     H70    14.1473   -3.5731   -1.1965 H        1 ZINC000003936307    0.1300
71     H71    13.7633   -3.4594    0.5378 H        1 ZINC000003936307    0.1300
72     H72    12.4658   -3.2943   -2.8175 H        1 ZINC000003936307    0.1500
73     H73    11.3716   -4.4648   -2.0420 H        1 ZINC000003936307    0.1300
74     H74    10.0422   -2.9232   -3.3921 H        1 ZINC000003936307    0.1400
75     H75    10.7923   -1.5203   -2.5857 H        1 ZINC000003936307    0.1000
76     H76     7.9612   -1.0772    0.3071 H        1 ZINC000003936307    0.1300
77     H77     6.2782   -1.0105    2.0960 H        1 ZINC000003936307    0.1400
78     H78    -1.7119   -2.2338   -0.0180 H        1 ZINC000003936307    0.1400
79     H79    -4.0651   -2.7557   -0.5165 H        1 ZINC000003936307    0.1400
80     H80    -5.2022   -5.2100   -4.6202 H        1 ZINC000003936307    0.1400
81     H81    -4.7811   -3.4858   -4.8708 H        1 ZINC000003936307    0.0900
82     H82    -0.5151   -4.0712   -3.6757 H        1 ZINC000003936307    0.1400
@<TRIPOS>BOND
1     1     2     1
2     1     45    1
3     1     46    1
4     1     47    1
5     2     3     1
6     2     48    1
7     2     49    1
8     3     4     1
9     3     50    1
10    3     51    1
11    4     5     1
12    4     6     1
13    4     36    1
14    6     7     am
15    6     52    1
16    7     8     2
17    7     9     am
18    9     17    1
19    9     10    am
20    10    11    2
21    10    12    1
22    12    13    1
23    12    15    1
24    12    17    1
25    13    14    1
26    13    53    1
27    13    54    1
28    14    55    1
29    14    56    1
30    14    57    1
31    15    16    1
32    15    58    1
33    15    59    1
34    16    60    1
35    16    61    1
36    16    62    1
37    17    18    1
38    17    19    1
39    19    20    1
40    20    35    ar
41    20    21    ar
42    21    22    ar
43    21    63    1
44    22    23    ar
45    22    64    1
46    23    24    1
47    23    34    ar
48    24    25    2
49    24    26    am
50    26    33    1
51    26    27    1
52    27    28    1
53    27    65    1
54    27    66    1
55    28    29    1
56    28    67    1
57    28    68    1
58    29    30    1
59    29    31    1
60    29    32    1
61    31    69    1
62    31    70    1
63    31    71    1
64    32    33    1
65    32    72    1
66    32    73    1
67    33    74    1
68    33    75    1
69    34    35    ar
70    34    76    1
71    35    77    1
72    36    44    ar
73    36    37    ar
74    37    38    ar
75    37    78    1
76    38    39    ar
77    38    79    1
78    39    43    ar
79    39    40    1
80    40    41    1
81    41    42    1
82    41    80    1
83    41    81    1
84    42    43    1
85    43    44    ar
86    44    82    1
@<TRIPOS>SUBSTRUCTURE
1   ZINC000003936307 1     RESIDUE    1   A     ZIN   1
