@<TRIPOS>MOLECULE
ZINC000011525576
  29   30    0    0    0
SMALL
USER_CHARGES
NO_NAME
@<TRIPOS>ATOM
    1 O1        0.0021    -0.0041     0.0020 O.2    1 <0>      -0.5200
    2 C2       -0.0144     1.2136     0.0087 C.2    1 <0>       0.5500
    3 C3       -1.2461     1.9113     0.0302 C.2    1 <0>      -0.2900
    4 C4       -1.2363     3.2615     0.0376 C.2    1 <0>       0.1800
    5 N5       -0.0428     3.9305     0.0245 N.am   1 <0>      -0.5300
    6 C6       -0.0320     5.3955     0.0326 C.3    1 <0>       0.3200
    7 H7       -1.0507     5.7739    -0.0526 H      1 <0>       0.1300
    8 O8        0.7641     5.8845    -1.0598 O.3    1 <0>      -0.3400
    9 C9        1.4039     7.0964    -0.6056 C.3    1 <0>       0.0600
   10 H10       0.7048     7.9323    -0.6311 H      1 <0>       0.0900
   11 C11       2.6397     7.4037    -1.4538 C.3    1 <0>       0.0800
   12 O12       2.2356     7.7168    -2.7883 O.3    1 <0>      -0.5600
   13 C13       1.8078     6.7670     0.8541 C.3    1 <0>       0.0500
   14 H14       1.8964     7.6767     1.4479 H      1 <0>       0.0900
   15 O15       3.0236     6.0170     0.8899 O.3    1 <0>      -0.5200
   16 C16       0.6098     5.9075     1.3366 C.3    1 <0>       0.0700
   17 H17       0.9595     5.0720     1.9430 H      1 <0>       0.0900
   18 O18      -0.3145     6.7082     2.0761 O.3    1 <0>      -0.5500
   19 C19       1.1209     3.2557     0.0046 C.2    1 <0>       0.6900
   20 O20       2.1700     3.8702    -0.0065 O.2    1 <0>      -0.4900
   21 N21       1.1403     1.9098     0.0014 N.am   1 <0>      -0.6600
   22 H22      -2.1811     1.3708     0.0400 H      1 <0>       0.1800
   23 H23      -2.1661     3.8107     0.0536 H      1 <0>       0.1800
   24 H24       3.1716     8.2537    -1.0264 H      1 <0>       0.0600
   25 H25       3.2963     6.5338    -1.4677 H      1 <0>       0.0700
   26 H26       2.9695     7.9227    -3.3833 H      1 <0>       0.3800
   27 H27       3.7839     6.4823     0.5149 H      1 <0>       0.3800
   28 H28       0.0590     7.1023     2.8763 H      1 <0>       0.3900
   29 H29       1.9882     1.4389    -0.0127 H      1 <0>       0.4300
@<TRIPOS>BOND
   1    1    2 2
   2    2   21 am
   3    2    3 1
   4    3    4 2
   5    3   22 1
   6    4    5 1
   7    4   23 1
   8    5    6 1
   9    5   19 am
  10    6    7 1
  11    6   16 1
  12    6    8 1
  13    8    9 1
  14    9   10 1
  15    9   11 1
  16    9   13 1
  17   11   12 1
  18   11   24 1
  19   11   25 1
  20   12   26 1
  21   13   14 1
  22   13   15 1
  23   13   16 1
  24   15   27 1
  25   16   17 1
  26   16   18 1
  27   18   28 1
  28   19   20 2
  29   19   21 am
  30   21   29 1
