@<TRIPOS>MOLECULE
ZINC000000131414
29    31    1     0     0
SMALL
USER_CHARGES
@<TRIPOS>ATOM
1      N1     -0.0116    1.0048    0.0076 N.4      1 ZINC000000131414   -0.6400
2      H2      0.0021   -0.0041    0.0020 H        1 ZINC000000131414    0.4300
3      H3      0.9350    1.3541    0.0004 H        1 ZINC000000131414    0.4400
4      H4     -0.4996    1.3391   -0.8099 H        1 ZINC000000131414    0.4400
5      C5     -0.6992    1.4786    1.2162 C.3      1 ZINC000000131414    0.1200
6      H6     -1.7222    1.1025    1.2262 H        1 ZINC000000131414    0.1500
7      C7     -0.7142    3.0110    1.2322 C.3      1 ZINC000000131414   -0.1400
8      C8     -1.2005    3.5017    2.5989 C.3      1 ZINC000000131414   -0.1200
9      C9     -0.1294    3.2042    3.6548 C.3      1 ZINC000000131414   -0.0700
10     C10     0.2871    1.7613    3.5225 C.2      1 ZINC000000131414   -0.0700
11     C11     0.0338    0.9870    2.4422 C.2      1 ZINC000000131414   -0.0300
12     N12     0.5439   -0.2691    2.6419 N.pl3    1 ZINC000000131414   -0.5900
13     C13     1.1429   -0.3355    3.8675 C.ar     1 ZINC000000131414    0.1300
14     C14     1.7963   -1.3713    4.5311 C.ar     1 ZINC000000131414   -0.1300
15     C15     2.2979   -1.0948    5.7911 C.ar     1 ZINC000000131414   -0.0500
16     C16     2.1655    0.1514    6.3828 C.ar     1 ZINC000000131414   -0.1100
17     Br17    2.8862    0.4295    8.1088 Br       1 ZINC000000131414   -0.0300
18     C18     1.5214    1.1983    5.7470 C.ar     1 ZINC000000131414   -0.0200
19     C19     1.0046    0.9396    4.4750 C.ar     1 ZINC000000131414   -0.1200
20     H20     0.2926    3.3862    1.0485 H        1 ZINC000000131414    0.0900
21     H21    -1.3856    3.3760    0.4550 H        1 ZINC000000131414    0.1000
22     H22    -1.3812    4.5758    2.5565 H        1 ZINC000000131414    0.1000
23     H23    -2.1243    2.9869    2.8627 H        1 ZINC000000131414    0.0800
24     H24     0.7334    3.8505    3.4933 H        1 ZINC000000131414    0.0900
25     H25    -0.5385    3.3773    4.6501 H        1 ZINC000000131414    0.0900
26     H26     0.4877   -1.0012    2.0081 H        1 ZINC000000131414    0.4100
27     H27     1.9063   -2.3474    4.0823 H        1 ZINC000000131414    0.1400
28     H28     2.8098   -1.8771    6.3319 H        1 ZINC000000131414    0.1400
29     H29     1.4210    2.1676    6.2125 H        1 ZINC000000131414    0.1500
@<TRIPOS>BOND
1     1     2     1
2     1     3     1
3     1     4     1
4     1     5     1
5     5     6     1
6     5     11    1
7     5     7     1
8     7     8     1
9     7     20    1
10    7     21    1
11    8     9     1
12    8     22    1
13    8     23    1
14    9     10    1
15    9     24    1
16    9     25    1
17    10    19    1
18    10    11    2
19    11    12    1
20    12    13    1
21    12    26    1
22    13    19    ar
23    13    14    ar
24    14    15    ar
25    14    27    1
26    15    16    ar
27    15    28    1
28    16    17    1
29    16    18    ar
30    18    19    ar
31    18    29    1
@<TRIPOS>SUBSTRUCTURE
1   ZINC000000131414 1     RESIDUE    1   A     ZIN   1
