@<TRIPOS>MOLECULE
ZINC000003820040
  62   66    0    0    0
SMALL
USER_CHARGES
NO_NAME
@<TRIPOS>ATOM
    1 C1       -0.0812    -0.3307     2.4820 C.3    1 <0>      -0.1000
    2 C2       -0.0677    -0.8140     1.0547 C.2    1 <0>       0.1300
    3 C3       -0.0316    -2.1043     0.6513 C.2    1 <0>      -0.2900
    4 C4       -0.0314    -2.1169    -0.7529 C.2    1 <0>       0.3400
    5 N5        0.0001    -3.2573    -1.5655 N.pl3  1 <0>      -0.6100
    6 C6       -0.1110    -3.1311    -2.9423 C.ar   1 <0>       0.4600
    7 C7       -0.1317    -1.8722    -3.5355 C.ar   1 <0>      -0.3400
    8 C8       -0.2446    -1.7941    -4.9209 C.ar   1 <0>       0.4600
    9 N9       -0.2689    -0.5618    -5.5552 N.pl3  1 <0>      -0.6200
   10 C10      -0.6088    -0.4521    -6.9823 C.3    1 <0>       0.1000
   11 C11      -1.6937     0.6180    -7.1424 C.3    1 <0>      -0.0200
   12 N12      -1.2371     1.8720    -6.5301 N.4    1 <0>      -0.3800
   13 H13      -0.3540     2.1415    -6.9370 H      1 <0>       0.4300
   14 C14      -2.2301     2.9258    -6.7776 C.3    1 <0>      -0.0500
   15 C15      -1.0718     1.6905    -5.0824 C.3    1 <0>      -0.0200
   16 C16       0.0385     0.6741    -4.8189 C.3    1 <0>       0.1000
   17 N17      -0.3285    -2.9182    -5.6283 N.ar   1 <0>      -0.5800
   18 C18      -0.3056    -4.1002    -5.0295 C.ar   1 <0>       0.3600
   19 S19      -0.4189    -5.5605    -6.0088 S.3    1 <0>       0.1200
   20 C20      -0.1907    -6.7839    -4.7614 C.ar   1 <0>      -0.1600
   21 C21      -1.2935    -7.3776    -4.1605 C.ar   1 <0>      -0.0300
   22 C22      -1.1144    -8.3363    -3.1837 C.ar   1 <0>      -0.1600
   23 C23       0.1681    -8.7070    -2.8013 C.ar   1 <0>       0.1900
   24 N24       0.3496    -9.6801    -1.8097 N.am   1 <0>      -0.6700
   25 C25       1.3878    -9.5862    -0.9554 C.2    1 <0>       0.5500
   26 O26       2.1054    -8.6086    -0.9780 O.2    1 <0>      -0.5100
   27 C27       1.6571   -10.6959     0.0280 C.3    1 <0>      -0.2000
   28 C28       2.9198   -11.5342    -0.1811 C.3    1 <0>      -0.1500
   29 C29       2.8504   -10.5300     0.9711 C.3    1 <0>      -0.1400
   30 C30       1.2708    -8.1136    -3.4018 C.ar   1 <0>      -0.1300
   31 C31       1.0922    -7.1590    -4.3828 C.ar   1 <0>      -0.0300
   32 N32      -0.1936    -4.2125    -3.7142 N.ar   1 <0>      -0.5800
   33 N33      -0.0662    -0.8733    -1.1706 N.2    1 <0>      -0.3400
   34 N34      -0.0955    -0.0361    -0.0479 N.pl3  1 <0>      -0.4700
   35 H35      -1.1115    -0.2477     2.8279 H      1 <0>       0.0900
   36 H36       0.4572    -1.0398     3.1108 H      1 <0>       0.0900
   37 H37       0.4011     0.6451     2.5397 H      1 <0>       0.0800
   38 H38      -0.0070    -2.9712     1.2950 H      1 <0>       0.1600
   39 H39       0.0996    -4.1353    -1.1654 H      1 <0>       0.4300
   40 H40      -0.0622    -0.9770    -2.9353 H      1 <0>       0.1900
   41 H41       0.2767    -0.1636    -7.5486 H      1 <0>       0.0900
   42 H42      -0.9828    -1.4098    -7.3444 H      1 <0>       0.1400
   43 H43      -1.8897     0.7812    -8.2021 H      1 <0>       0.1400
   44 H44      -2.6078     0.2852    -6.6507 H      1 <0>       0.1300
   45 H45      -3.1855     2.6344    -6.3413 H      1 <0>       0.1200
   46 H46      -1.8923     3.8573    -6.3236 H      1 <0>       0.1200
   47 H47      -2.3495     3.0675    -7.8518 H      1 <0>       0.1300
   48 H48      -0.8094     2.6441    -4.6242 H      1 <0>       0.1400
   49 H49      -2.0047     1.3253    -4.6530 H      1 <0>       0.1300
   50 H50       0.0948     0.4618    -3.7513 H      1 <0>       0.1300
   51 H51       0.9910     1.0738    -5.1666 H      1 <0>       0.0900
   52 H52      -2.2910    -7.0888    -4.4573 H      1 <0>       0.1300
   53 H53      -1.9718    -8.7979    -2.7165 H      1 <0>       0.1300
   54 H54      -0.2719   -10.4214    -1.7381 H      1 <0>       0.4200
   55 H55       0.7746   -11.2033     0.4176 H      1 <0>       0.1300
   56 H56       2.8681   -12.5935     0.0707 H      1 <0>       0.1100
   57 H57       3.5557   -11.2831    -1.0300 H      1 <0>       0.1000
   58 H58       3.4407    -9.6182     0.8802 H      1 <0>       0.1100
   59 H59       2.7531   -10.9285     1.9809 H      1 <0>       0.1100
   60 H60       2.2681    -8.4021    -3.1043 H      1 <0>       0.1400
   61 H61       1.9498    -6.6979    -4.8500 H      1 <0>       0.1300
   62 H62      -0.1240     0.9334    -0.0607 H      1 <0>       0.4400
@<TRIPOS>BOND
   1    1    2 1
   2    1   35 1
   3    1   36 1
   4    1   37 1
   5    2   34 1
   6    2    3 2
   7    3    4 1
   8    3   38 1
   9    4    5 1
  10    4   33 2
  11    5    6 1
  12    5   39 1
  13    6   32 ar
  14    6    7 ar
  15    7    8 ar
  16    7   40 1
  17    8    9 1
  18    8   17 ar
  19    9   16 1
  20    9   10 1
  21   10   11 1
  22   10   41 1
  23   10   42 1
  24   11   12 1
  25   11   43 1
  26   11   44 1
  27   12   13 1
  28   12   14 1
  29   12   15 1
  30   14   45 1
  31   14   46 1
  32   14   47 1
  33   15   16 1
  34   15   48 1
  35   15   49 1
  36   16   50 1
  37   16   51 1
  38   17   18 ar
  39   18   19 1
  40   18   32 ar
  41   19   20 1
  42   20   31 ar
  43   20   21 ar
  44   21   22 ar
  45   21   52 1
  46   22   23 ar
  47   22   53 1
  48   23   24 1
  49   23   30 ar
  50   24   25 am
  51   24   54 1
  52   25   26 2
  53   25   27 1
  54   27   29 1
  55   27   28 1
  56   27   55 1
  57   28   29 1
  58   28   56 1
  59   28   57 1
  60   29   58 1
  61   29   59 1
  62   30   31 ar
  63   30   60 1
  64   31   61 1
  65   33   34 1
  66   34   62 1
