@<TRIPOS>MOLECULE
ZINC000000593140
  44   45    0    0    0
SMALL
USER_CHARGES
NO_NAME
@<TRIPOS>ATOM
    1 C1        0.3103     0.6005     1.6033 C.3    1 <0>      -0.1500
    2 S2       -0.0019     0.0068    -0.0822 S.3    1 <0>      -0.0800
    3 C3       -1.7119    -0.4162    -0.0430 C.ar   1 <0>      -0.0700
    4 C4       -2.4449    -0.2404     1.1241 C.ar   1 <0>      -0.1200
    5 C5       -3.7849    -0.5722     1.1538 C.ar   1 <0>      -0.0800
    6 C6       -4.3993    -1.0811     0.0187 C.ar   1 <0>       0.0400
    7 O7       -5.7191    -1.4072     0.0488 O.3    1 <0>      -0.2500
    8 C8       -6.0544    -2.7200    -0.0539 C.ar   1 <0>       0.2000
    9 C9       -5.0644    -3.6920    -0.0549 C.ar   1 <0>      -0.2100
   10 C10      -5.4079    -5.0261    -0.1594 C.ar   1 <0>       0.0500
   11 C11      -6.7368    -5.3928    -0.2634 C.ar   1 <0>      -0.7100
   12 S12      -7.1716    -7.0951    -0.3966 S.o2   1 <0>       2.7000
   13 N13      -7.3886    -7.6675     1.1421 N.am   1 <0>      -1.2500
   14 O14      -8.4462    -7.1359    -1.0234 O.2    1 <0>      -0.9600
   15 O15      -6.0288    -7.7617    -0.9152 O.2    1 <0>      -0.9500
   16 C16      -7.7256    -4.4259    -0.2627 C.ar   1 <0>       0.0500
   17 C17      -7.3880    -3.0912    -0.1522 C.ar   1 <0>      -0.2100
   18 C18      -8.4660    -2.0382    -0.1509 C.3    1 <0>       0.0500
   19 N19      -8.5622    -1.4343    -1.4866 N.4    1 <0>      -0.3900
   20 H20      -7.6574    -1.0834    -1.7630 H      1 <0>       0.4300
   21 C21      -9.0100    -2.4477    -2.4511 C.3    1 <0>      -0.0600
   22 C22      -9.5278    -0.3276    -1.4552 C.3    1 <0>      -0.0500
   23 C23      -3.6682    -1.2571    -1.1473 C.ar   1 <0>      -0.1100
   24 C24      -2.3295    -0.9204    -1.1807 C.ar   1 <0>      -0.0800
   25 H25       1.3556     0.8950     1.6969 H      1 <0>       0.1200
   26 H26      -0.3289     1.4588     1.8104 H      1 <0>       0.0900
   27 H27       0.0919    -0.1955     2.3151 H      1 <0>       0.0900
   28 H28      -1.9667     0.1554     2.0079 H      1 <0>       0.1400
   29 H29      -4.3548    -0.4360     2.0610 H      1 <0>       0.1400
   30 H30      -4.0260    -3.4060     0.0256 H      1 <0>       0.1500
   31 H31      -4.6377    -5.7831    -0.1603 H      1 <0>       0.1600
   32 H32      -8.0167    -8.3879     1.3075 H      1 <0>       0.4300
   33 H33      -6.8875    -7.2823     1.8780 H      1 <0>       0.4200
   34 H34      -8.7630    -4.7150    -0.3444 H      1 <0>       0.1600
   35 H35      -9.4203    -2.4955     0.1106 H      1 <0>       0.1400
   36 H36      -8.2202    -1.2674     0.5795 H      1 <0>       0.1400
   37 H37      -9.9874    -2.8267    -2.1525 H      1 <0>       0.1300
   38 H38      -9.0813    -1.9996    -3.4422 H      1 <0>       0.1300
   39 H39      -8.2935    -3.2688    -2.4744 H      1 <0>       0.1200
   40 H40      -9.1955     0.4243    -0.7395 H      1 <0>       0.1200
   41 H41      -9.5991     0.1205    -2.4463 H      1 <0>       0.1300
   42 H42     -10.5052    -0.7066    -1.1566 H      1 <0>       0.1200
   43 H43      -4.1474    -1.6532    -2.0304 H      1 <0>       0.1400
   44 H44      -1.7607    -1.0571    -2.0885 H      1 <0>       0.1400
@<TRIPOS>BOND
   1    1    2 1
   2    1   25 1
   3    1   26 1
   4    1   27 1
   5    2    3 1
   6    3   24 ar
   7    3    4 ar
   8    4    5 ar
   9    4   28 1
  10    5    6 ar
  11    5   29 1
  12    6    7 1
  13    6   23 ar
  14    7    8 1
  15    8   17 ar
  16    8    9 ar
  17    9   10 ar
  18    9   30 1
  19   10   11 ar
  20   10   31 1
  21   11   12 1
  22   11   16 ar
  23   12   13 am
  24   12   14 2
  25   12   15 2
  26   13   32 1
  27   13   33 1
  28   16   17 ar
  29   16   34 1
  30   17   18 1
  31   18   19 1
  32   18   35 1
  33   18   36 1
  34   19   20 1
  35   19   21 1
  36   19   22 1
  37   21   37 1
  38   21   38 1
  39   21   39 1
  40   22   40 1
  41   22   41 1
  42   22   42 1
  43   23   24 ar
  44   23   43 1
  45   24   44 1
