@<TRIPOS>MOLECULE
ZINC000000003827
30    33    1     0     0
SMALL
USER_CHARGES
@<TRIPOS>ATOM
1      N1     -0.0168    1.3908    0.0097 N.pl3    1 ZINC000000003827   -0.8700
2      C2      0.0021   -0.0041    0.0020 C.ar     1 ZINC000000003827    0.2300
3      C3     -1.1929   -0.7160    0.0039 C.ar     1 ZINC000000003827   -0.1900
4      C4     -1.1845   -2.0931   -0.0032 C.ar     1 ZINC000000003827   -0.0200
5      C5      0.0332   -2.7834   -0.0127 C.ar     1 ZINC000000003827    0.0400
6      N6      0.0566   -4.1401   -0.0201 N.2      1 ZINC000000003827   -0.4700
7      C7      1.1413   -4.8660   -0.0296 C.2      1 ZINC000000003827    0.3900
8      C8      1.3080   -6.3360   -0.0384 C.ar     1 ZINC000000003827   -0.0300
9      C9      0.4181   -7.4021   -0.0397 C.ar     1 ZINC000000003827   -0.0600
10     C10     0.9020   -8.6978   -0.0491 C.ar     1 ZINC000000003827   -0.0900
11     C11     2.2654   -8.9382   -0.0569 C.ar     1 ZINC000000003827   -0.1100
12     C12     3.1648   -7.8881   -0.0554 C.ar     1 ZINC000000003827   -0.0400
13     C13     2.6961   -6.5790   -0.0468 C.ar     1 ZINC000000003827   -0.1500
14     C14     3.3517   -5.2606   -0.0425 C.2      1 ZINC000000003827    0.5800
15     O15     4.5522   -5.0686   -0.0464 O.2      1 ZINC000000003827   -0.4900
16     N16     2.4067   -4.3028   -0.0331 N.am     1 ZINC000000003827   -0.5900
17     C17     2.5269   -2.8321   -0.0255 C.3      1 ZINC000000003827    0.1600
18     C18     1.2301   -2.0552   -0.0149 C.ar     1 ZINC000000003827   -0.0700
19     C19     1.2182   -0.6845   -0.0132 C.ar     1 ZINC000000003827   -0.1800
20     H20     0.8165    1.8872    0.0044 H        1 ZINC000000003827    0.4000
21     H21    -0.8634    1.8644    0.0163 H        1 ZINC000000003827    0.4000
22     H22    -2.1335   -0.1853    0.0112 H        1 ZINC000000003827    0.1300
23     H23    -2.1160   -2.6396   -0.0010 H        1 ZINC000000003827    0.1400
24     H24    -0.6465   -7.2204   -0.0329 H        1 ZINC000000003827    0.1400
25     H25     0.2113   -9.5281   -0.0501 H        1 ZINC000000003827    0.1400
26     H26     2.6297   -9.9549   -0.0639 H        1 ZINC000000003827    0.1400
27     H27     4.2269   -8.0837   -0.0608 H        1 ZINC000000003827    0.1400
28     H28     3.1019   -2.5434    0.8543 H        1 ZINC000000003827    0.0900
29     H29     3.0942   -2.5338   -0.9072 H        1 ZINC000000003827    0.0900
30     H30     2.1475   -0.1342   -0.0192 H        1 ZINC000000003827    0.1300
@<TRIPOS>BOND
1     1     2     1
2     1     20    1
3     1     21    1
4     2     19    ar
5     2     3     ar
6     3     4     ar
7     3     22    1
8     4     5     ar
9     4     23    1
10    5     18    ar
11    5     6     1
12    6     7     2
13    7     16    1
14    7     8     1
15    8     13    ar
16    8     9     ar
17    9     10    ar
18    9     24    1
19    10    11    ar
20    10    25    1
21    11    12    ar
22    11    26    1
23    12    13    ar
24    12    27    1
25    13    14    1
26    14    15    2
27    14    16    am
28    16    17    1
29    17    18    1
30    17    28    1
31    17    29    1
32    18    19    ar
33    19    30    1
@<TRIPOS>SUBSTRUCTURE
1   ZINC000000003827 1     RESIDUE    1   A     ZIN   1
