@<TRIPOS>MOLECULE
ZINC000001084291
  17   17    0    0    0
SMALL
USER_CHARGES
NO_NAME
@<TRIPOS>ATOM
    1 C1       -0.0184     1.5028     0.0103 C.3    1 <0>      -0.1900
    2 C2        0.0021    -0.0041     0.0020 C.2    1 <0>       0.3500
    3 O3        0.0202    -0.6134     1.0444 O.2    1 <0>      -0.4300
    4 C4       -0.0002    -0.7505    -1.3071 C.3    1 <0>       0.0700
    5 N5        0.0219    -2.1921    -1.0474 N.pl3  1 <0>      -0.1100
    6 N6        1.0822    -2.9118    -0.9194 N.2    1 <0>      -0.0100
    7 N7        0.7297    -4.1328    -0.6980 N.2    1 <0>      -0.2000
    8 C8       -0.6030    -4.1666    -0.6893 C.2    1 <0>       0.2100
    9 N9       -1.4532    -5.3585    -0.4714 N.pl3  1 <0>       0.0600
   10 O10      -0.9394    -6.4454    -0.2757 O.2    1 <0>      -0.0800
   11 O11      -2.6664    -5.2525    -0.4879 O.2    1 <0>      -0.0900
   12 N12      -1.0166    -2.9419    -0.9049 N.2    1 <0>      -0.2100
   13 H13       1.0042     1.8801     0.0026 H      1 <0>       0.1100
   14 H14      -0.5455     1.8639    -0.8728 H      1 <0>       0.1000
   15 H15      -0.5286     1.8543     0.9071 H      1 <0>       0.1000
   16 H16      -0.8991    -0.4962    -1.8688 H      1 <0>       0.1600
   17 H17       0.8807    -0.4720    -1.8857 H      1 <0>       0.1700
@<TRIPOS>BOND
   1    1    2 1
   2    1   13 1
   3    1   14 1
   4    1   15 1
   5    2    3 2
   6    2    4 1
   7    4    5 1
   8    4   16 1
   9    4   17 1
  10    5   12 1
  11    5    6 1
  12    6    7 2
  13    7    8 1
  14    8    9 1
  15    8   12 2
  16    9   10 2
  17    9   11 2
