@<TRIPOS>MOLECULE
ZINC000031262090
73    74    1     0     0
SMALL
USER_CHARGES
@<TRIPOS>ATOM
1      C1      0.9027    1.0428   -0.0360 C.3      1 ZINC000031262090   -0.1200
2      C2      0.7384   -0.4531   -0.1171 C.2      1 ZINC000031262090   -0.1300
3      C3      0.9325   -1.3002    1.1141 C.3      1 ZINC000031262090   -0.1200
4      C4      0.4267   -1.0169   -1.2577 C.2      1 ZINC000031262090   -0.1700
5      C5      0.3647   -0.1891   -2.5154 C.3      1 ZINC000031262090   -0.0900
6      C6      1.2701   -0.8110   -3.5804 C.3      1 ZINC000031262090   -0.0800
7      C7      1.2081    0.0169   -4.8382 C.2      1 ZINC000031262090   -0.1300
8      C8      0.1090   -0.2186   -5.8418 C.3      1 ZINC000031262090   -0.1200
9      C9      2.1098    0.9413   -5.0590 C.2      1 ZINC000031262090   -0.1600
10     C10     1.9730    1.8588   -6.2466 C.3      1 ZINC000031262090   -0.0900
11     C11     2.0202    3.3136   -5.7752 C.3      1 ZINC000031262090   -0.0800
12     C12     1.8835    4.2312   -6.9628 C.2      1 ZINC000031262090   -0.1300
13     C13     3.0997    4.6047   -7.7704 C.3      1 ZINC000031262090   -0.1200
14     C14     0.7073    4.7041   -7.2931 C.2      1 ZINC000031262090   -0.1600
15     C15     0.5510    5.5281   -8.5452 C.3      1 ZINC000031262090   -0.0900
16     C16    -0.5345    4.9112   -9.4295 C.3      1 ZINC000031262090   -0.0800
17     C17    -0.6908    5.7352  -10.6816 C.2      1 ZINC000031262090   -0.1100
18     C18    -1.5853    6.9480  -10.6787 C.3      1 ZINC000031262090   -0.1300
19     C19    -0.0491    5.3972  -11.7725 C.2      1 ZINC000031262090   -0.1700
20     C20    -0.1041    6.2891  -12.9860 C.3      1 ZINC000031262090   -0.0600
21     C21     1.2958    6.6724  -13.3915 C.2      1 ZINC000031262090   -0.1100
22     C22     1.9314    5.9673  -14.3397 C.2      1 ZINC000031262090   -0.1200
23     C23     1.2404    4.7976  -14.9919 C.3      1 ZINC000031262090   -0.1200
24     C24     3.3037    6.3300  -14.7490 C.2      1 ZINC000031262090    0.4200
25     O25     3.7867    5.8631  -15.7612 O.2      1 ZINC000031262090   -0.4200
26     C26     4.0829    7.2690  -13.9120 C.ar     1 ZINC000031262090   -0.1300
27     C27     5.4501    7.4288  -14.0915 C.ar     1 ZINC000031262090   -0.0700
28     C28     6.1491    8.3183  -13.2886 C.ar     1 ZINC000031262090   -0.1000
29     C29     5.4947    9.0448  -12.3130 C.ar     1 ZINC000031262090   -0.1000
30     C30     4.1288    8.8954  -12.1217 C.ar     1 ZINC000031262090   -0.0700
31     C31     3.4160    8.0090  -12.9175 C.ar     1 ZINC000031262090   -0.1200
32     C32     1.9565    7.8257  -12.7466 C.2      1 ZINC000031262090    0.4200
33     O33     1.3121    8.6116  -12.0811 O.2      1 ZINC000031262090   -0.4200
34     H34     1.0701    1.3342    1.0008 H        1 ZINC000031262090    0.0600
35     H35     1.7562    1.3478   -0.6416 H        1 ZINC000031262090    0.0700
36     H36     0.0007    1.5281   -0.4088 H        1 ZINC000031262090    0.0700
37     H37     1.1852   -0.6602    1.9594 H        1 ZINC000031262090    0.0600
38     H38     0.0121   -1.8422    1.3311 H        1 ZINC000031262090    0.0600
39     H39     1.7408   -2.0111    0.9422 H        1 ZINC000031262090    0.0700
40     H40     0.2142   -2.0751   -1.2967 H        1 ZINC000031262090    0.1100
41     H41    -0.6614   -0.1614   -2.8820 H        1 ZINC000031262090    0.0700
42     H42     0.7010    0.8251   -2.2998 H        1 ZINC000031262090    0.0700
43     H43     2.2963   -0.8386   -3.2139 H        1 ZINC000031262090    0.0700
44     H44     0.9339   -1.8251   -3.7961 H        1 ZINC000031262090    0.0700
45     H45    -0.4861   -1.0784   -5.5340 H        1 ZINC000031262090    0.0600
46     H46    -0.5286    0.6638   -5.8962 H        1 ZINC000031262090    0.0700
47     H47     0.5466   -0.4116   -6.8213 H        1 ZINC000031262090    0.0600
48     H48     2.9511    1.0458   -4.3899 H        1 ZINC000031262090    0.1100
49     H49     2.7911    1.6759   -6.9432 H        1 ZINC000031262090    0.0700
50     H50     1.0222    1.6690   -6.7448 H        1 ZINC000031262090    0.0700
51     H51     1.2021    3.4966   -5.0786 H        1 ZINC000031262090    0.0700
52     H52     2.9710    3.5034   -5.2770 H        1 ZINC000031262090    0.0700
53     H53     3.9691    4.0715   -7.3858 H        1 ZINC000031262090    0.0600
54     H54     2.9400    4.3341   -8.8141 H        1 ZINC000031262090    0.0600
55     H55     3.2698    5.6788   -7.6955 H        1 ZINC000031262090    0.0700
56     H56    -0.1503    4.5034   -6.6682 H        1 ZINC000031262090    0.1100
57     H57     0.2666    6.5457   -8.2773 H        1 ZINC000031262090    0.0700
58     H58     1.4957    5.5460   -9.0886 H        1 ZINC000031262090    0.0700
59     H59    -0.2501    3.8936   -9.6974 H        1 ZINC000031262090    0.0700
60     H60    -1.4792    4.8933   -8.8861 H        1 ZINC000031262090    0.0700
61     H61    -1.9790    7.1067   -9.6747 H        1 ZINC000031262090    0.0600
62     H62    -1.0124    7.8227  -10.9867 H        1 ZINC000031262090    0.0800
63     H63    -2.4113    6.7919  -11.3725 H        1 ZINC000031262090    0.0700
64     H64     0.5193    4.4794  -11.8022 H        1 ZINC000031262090    0.1100
65     H65    -0.5872    5.7576  -13.8059 H        1 ZINC000031262090    0.0900
66     H66    -0.6732    7.1884  -12.7505 H        1 ZINC000031262090    0.1000
67     H67     0.6937    5.1420  -15.8698 H        1 ZINC000031262090    0.0900
68     H68     1.9830    4.0588  -15.2931 H        1 ZINC000031262090    0.0800
69     H69     0.5447    4.3461  -14.2846 H        1 ZINC000031262090    0.0800
70     H70     5.9672    6.8631  -14.8524 H        1 ZINC000031262090    0.1400
71     H71     7.2129    8.4433  -13.4270 H        1 ZINC000031262090    0.1400
72     H72     6.0504    9.7339  -11.6944 H        1 ZINC000031262090    0.1400
73     H73     3.6225    9.4658  -11.3571 H        1 ZINC000031262090    0.1400
@<TRIPOS>BOND
1     1     2     1
2     1     34    1
3     1     35    1
4     1     36    1
5     2     3     1
6     2     4     2
7     3     37    1
8     3     38    1
9     3     39    1
10    4     5     1
11    4     40    1
12    5     6     1
13    5     41    1
14    5     42    1
15    6     7     1
16    6     43    1
17    6     44    1
18    7     8     1
19    7     9     2
20    8     45    1
21    8     46    1
22    8     47    1
23    9     10    1
24    9     48    1
25    10    11    1
26    10    49    1
27    10    50    1
28    11    12    1
29    11    51    1
30    11    52    1
31    12    13    1
32    12    14    2
33    13    53    1
34    13    54    1
35    13    55    1
36    14    15    1
37    14    56    1
38    15    16    1
39    15    57    1
40    15    58    1
41    16    17    1
42    16    59    1
43    16    60    1
44    17    18    1
45    17    19    2
46    18    61    1
47    18    62    1
48    18    63    1
49    19    20    1
50    19    64    1
51    20    21    1
52    20    65    1
53    20    66    1
54    21    32    1
55    21    22    2
56    22    23    1
57    22    24    1
58    23    67    1
59    23    68    1
60    23    69    1
61    24    25    2
62    24    26    1
63    26    31    ar
64    26    27    ar
65    27    28    ar
66    27    70    1
67    28    29    ar
68    28    71    1
69    29    30    ar
70    29    72    1
71    30    31    ar
72    30    73    1
73    31    32    1
74    32    33    2
@<TRIPOS>SUBSTRUCTURE
1   ZINC000031262090 1     RESIDUE    1   A     ZIN   1
