@<TRIPOS>MOLECULE
ZINC000009232419
67    71    1     0     0
SMALL
USER_CHARGES
@<TRIPOS>ATOM
1      C1     -0.0973    1.5171    0.6974 C.3      1 ZINC000009232419    0.0200
2      O2     -0.0417    0.0937    0.5833 O.3      1 ZINC000009232419   -0.2800
3      C3     -1.2021   -0.5841    0.7640 C.ar     1 ZINC000009232419    0.1600
4      C4     -2.3793    0.1049    1.0411 C.ar     1 ZINC000009232419   -0.2000
5      C5     -3.5626   -0.5808    1.2269 C.ar     1 ZINC000009232419   -0.0800
6      C6     -3.5975   -1.9633    1.1402 C.ar     1 ZINC000009232419   -0.1100
7      C7     -2.4339   -2.6710    0.8632 C.ar     1 ZINC000009232419   -0.0800
8      C8     -1.2240   -1.9778    0.6674 C.ar     1 ZINC000009232419   -0.1400
9      C9      0.0108   -2.7300    0.3727 C.2      1 ZINC000009232419    0.4300
10     O10     1.0958   -2.1857    0.4480 O.2      1 ZINC000009232419   -0.4200
11     C11    -0.0866   -4.1501   -0.0137 C.ar     1 ZINC000009232419   -0.2900
12     C12     1.0004   -4.8140   -0.5744 C.ar     1 ZINC000009232419    0.3200
13     O13     2.1666   -4.1502   -0.7706 O.3      1 ZINC000009232419   -0.6300
14     C14     0.8984   -6.1645   -0.9376 C.ar     1 ZINC000009232419   -0.1800
15     C15    -0.2773   -6.8432   -0.7407 C.ar     1 ZINC000009232419   -0.0200
16     C16    -0.4453   -8.2967   -1.1024 C.3      1 ZINC000009232419   -0.0900
17     C17     0.6478   -8.7405   -2.0719 C.3      1 ZINC000009232419    0.1000
18     O18     0.5999  -10.1593   -2.2350 O.3      1 ZINC000009232419   -0.5400
19     C19     0.4468   -8.0688   -3.4059 C.2      1 ZINC000009232419    0.3200
20     C20     0.9916   -8.7042   -4.6591 C.3      1 ZINC000009232419   -0.2000
21     O21    -0.1508   -7.0214   -3.4706 O.2      1 ZINC000009232419   -0.4100
22     C22     2.0053   -8.3331   -1.4865 C.3      1 ZINC000009232419   -0.1200
23     C23     2.1164   -6.8113   -1.5456 C.3      1 ZINC000009232419    0.1700
24     H24     2.2080   -6.4981   -2.5856 H        1 ZINC000009232419    0.0700
25     O25     3.2783   -6.3958   -0.8249 O.3      1 ZINC000009232419   -0.3100
26     C26     4.4547   -6.2911   -1.6293 C.3      1 ZINC000009232419    0.2700
27     H27     4.5872   -7.2098   -2.2008 H        1 ZINC000009232419    0.0500
28     C28     5.6720   -6.0709   -0.7274 C.3      1 ZINC000009232419   -0.1700
29     C29     6.9196   -5.8997   -1.5996 C.3      1 ZINC000009232419    0.0400
30     H30     7.0980   -6.8147   -2.1644 H        1 ZINC000009232419    0.1500
31     N31     8.0806   -5.6148   -0.7459 N.4      1 ZINC000009232419   -0.6300
32     H32     8.2221   -6.3804   -0.1041 H        1 ZINC000009232419    0.4300
33     H33     8.9017   -5.5023   -1.3214 H        1 ZINC000009232419    0.4300
34     H34     7.9155   -4.7661   -0.2258 H        1 ZINC000009232419    0.4400
35     C35     6.6957   -4.7347   -2.5687 C.3      1 ZINC000009232419    0.0600
36     H36     7.5566   -4.6409   -3.2306 H        1 ZINC000009232419    0.0900
37     O37     6.5279   -3.5237   -1.8289 O.3      1 ZINC000009232419   -0.5600
38     C38     5.4389   -5.0066   -3.3995 C.3      1 ZINC000009232419    0.0700
39     H39     5.5843   -5.9084   -3.9942 H        1 ZINC000009232419    0.0700
40     C40     5.1746   -3.8199   -4.3283 C.3      1 ZINC000009232419   -0.1500
41     O41     4.3219   -5.1868   -2.5265 O.3      1 ZINC000009232419   -0.3400
42     C42    -1.3825   -6.1877   -0.1803 C.ar     1 ZINC000009232419    0.0200
43     O43    -2.5424   -6.8645    0.0086 O.3      1 ZINC000009232419   -0.4800
44     C44    -1.2974   -4.8468    0.1842 C.ar     1 ZINC000009232419   -0.0900
45     C45    -2.4557   -4.1469    0.7661 C.2      1 ZINC000009232419    0.4400
46     O46    -3.4171   -4.7746    1.1661 O.2      1 ZINC000009232419   -0.4400
47     H47     0.8960    1.9340    0.5310 H        1 ZINC000009232419    0.1000
48     H48    -0.7875    1.9145   -0.0467 H        1 ZINC000009232419    0.0500
49     H49    -0.4427    1.7884    1.6950 H        1 ZINC000009232419    0.0500
50     H50    -2.3667    1.1825    1.1114 H        1 ZINC000009232419    0.1300
51     H51    -4.4693   -0.0350    1.4422 H        1 ZINC000009232419    0.1300
52     H52    -4.5284   -2.4906    1.2880 H        1 ZINC000009232419    0.1400
53     H53    -0.3892   -8.9009   -0.1969 H        1 ZINC000009232419    0.0900
54     H54    -1.4196   -8.4403   -1.5694 H        1 ZINC000009232419    0.0800
55     H55    -0.2397  -10.4868   -2.5856 H        1 ZINC000009232419    0.3800
56     H56     1.4956   -9.6364   -4.4042 H        1 ZINC000009232419    0.0900
57     H57     0.1721   -8.9107   -5.3475 H        1 ZINC000009232419    0.0900
58     H58     1.7010   -8.0251   -5.1319 H        1 ZINC000009232419    0.0900
59     H59     2.0737   -8.6664   -0.4510 H        1 ZINC000009232419    0.0900
60     H60     2.8074   -8.7829   -2.0715 H        1 ZINC000009232419    0.0700
61     H61     5.5222   -5.1743   -0.1260 H        1 ZINC000009232419    0.1200
62     H62     5.8008   -6.9326   -0.0726 H        1 ZINC000009232419    0.1000
63     H63     6.3815   -2.7430   -2.3805 H        1 ZINC000009232419    0.4100
64     H64     6.0645   -3.6207   -4.9255 H        1 ZINC000009232419    0.0700
65     H65     4.3392   -4.0539   -4.9881 H        1 ZINC000009232419    0.0800
66     H66     4.9320   -2.9396   -3.7330 H        1 ZINC000009232419    0.0800
67     H67    -2.6094   -7.2970    0.8709 H        1 ZINC000009232419    0.3700
@<TRIPOS>BOND
1     1     2     1
2     1     47    1
3     1     48    1
4     1     49    1
5     2     3     1
6     3     8     ar
7     3     4     ar
8     4     5     ar
9     4     50    1
10    5     6     ar
11    5     51    1
12    6     7     ar
13    6     52    1
14    7     45    1
15    7     8     ar
16    8     9     1
17    9     10    2
18    9     11    1
19    11    44    ar
20    11    12    ar
21    12    13    1
22    12    14    ar
23    14    23    1
24    14    15    ar
25    15    16    1
26    15    42    ar
27    16    17    1
28    16    53    1
29    16    54    1
30    17    18    1
31    17    19    1
32    17    22    1
33    18    55    1
34    19    20    1
35    19    21    2
36    20    56    1
37    20    57    1
38    20    58    1
39    22    23    1
40    22    59    1
41    22    60    1
42    23    24    1
43    23    25    1
44    25    26    1
45    26    27    1
46    26    41    1
47    26    28    1
48    28    29    1
49    28    61    1
50    28    62    1
51    29    30    1
52    29    31    1
53    29    35    1
54    31    32    1
55    31    33    1
56    31    34    1
57    35    36    1
58    35    37    1
59    35    38    1
60    37    63    1
61    38    39    1
62    38    40    1
63    38    41    1
64    40    64    1
65    40    65    1
66    40    66    1
67    42    43    1
68    42    44    ar
69    43    67    1
70    44    45    1
71    45    46    2
@<TRIPOS>SUBSTRUCTURE
1   ZINC000009232419 1     RESIDUE    1   A     ZIN   1
