@<TRIPOS>MOLECULE
ZINC000002570829
45    46    1     0     0
SMALL
USER_CHARGES
@<TRIPOS>ATOM
1      C1     -0.0187    1.5258    0.0104 C.3      1 ZINC000002570829   -0.1500
2      C2      0.0021   -0.0041    0.0020 C.3      1 ZINC000002570829    0.0600
3      O3      0.6817   -0.4723   -1.1926 O.3      1 ZINC000002570829   -0.3500
4      C4      0.7862   -1.8009   -1.3531 C.2      1 ZINC000002570829    0.4900
5      O5      0.3251   -2.5478   -0.5228 O.2      1 ZINC000002570829   -0.4800
6      C6      1.4787   -2.3609   -2.5688 C.3      1 ZINC000002570829    0.0100
7      C7      1.0811   -3.7849   -2.9623 C.3      1 ZINC000002570829   -0.0800
8      C8     -0.4004   -4.0056   -2.6498 C.3      1 ZINC000002570829   -0.1400
9      C9     -0.7980   -5.4296   -3.0433 C.3      1 ZINC000002570829   -0.1100
10     C10    -2.2794   -5.6502   -2.7308 C.3      1 ZINC000002570829   -0.1200
11     C11    -2.6771   -7.0743   -3.1243 C.3      1 ZINC000002570829   -0.1200
12     C12    -4.1585   -7.2949   -2.8118 C.3      1 ZINC000002570829    0.0600
13     O13    -4.5299   -8.6250   -3.1793 O.3      1 ZINC000002570829   -0.3100
14     C14    -5.8227   -8.9860   -2.9655 C.ar     1 ZINC000002570829    0.1400
15     C15    -6.7164   -8.0768   -2.4187 C.ar     1 ZINC000002570829   -0.2000
16     C16    -8.0299   -8.4456   -2.2021 C.ar     1 ZINC000002570829   -0.0700
17     C17    -8.4543   -9.7211   -2.5299 C.ar     1 ZINC000002570829   -0.0700
18     Cl18  -10.1054  -10.1824   -2.2562 Cl       1 ZINC000002570829   -0.0700
19     C19    -7.5646  -10.6293   -3.0758 C.ar     1 ZINC000002570829   -0.0700
20     C20    -6.2516  -10.2624   -3.2992 C.ar     1 ZINC000002570829   -0.1400
21     C21     2.9210   -1.9237   -2.8323 C.3      1 ZINC000002570829    0.0100
22     O22     1.8233   -1.4522   -3.6164 O.3      1 ZINC000002570829   -0.3200
23     H23     1.0039    1.9031    0.0027 H        1 ZINC000002570829    0.0700
24     H24    -0.5459    1.8868   -0.8726 H        1 ZINC000002570829    0.0700
25     H25    -0.5289    1.8773    0.9072 H        1 ZINC000002570829    0.0800
26     H26     0.5293   -0.3651    0.8851 H        1 ZINC000002570829    0.0700
27     H27    -1.0205   -0.3814    0.0098 H        1 ZINC000002570829    0.0700
28     H28     1.2527   -3.9284   -4.0291 H        1 ZINC000002570829    0.0900
29     H29     1.6816   -4.4988   -2.3984 H        1 ZINC000002570829    0.0900
30     H30    -0.5719   -3.8621   -1.5830 H        1 ZINC000002570829    0.1000
31     H31    -1.0009   -3.2917   -3.2136 H        1 ZINC000002570829    0.0600
32     H32    -0.6264   -5.5731   -4.1101 H        1 ZINC000002570829    0.0600
33     H33    -0.1975   -6.1435   -2.4794 H        1 ZINC000002570829    0.0700
34     H34    -2.4510   -5.5067   -1.6640 H        1 ZINC000002570829    0.0700
35     H35    -2.8799   -4.9364   -3.2946 H        1 ZINC000002570829    0.0700
36     H36    -2.5055   -7.2178   -4.1911 H        1 ZINC000002570829    0.0800
37     H37    -2.0766   -7.7881   -2.5604 H        1 ZINC000002570829    0.0800
38     H38    -4.3301   -7.1514   -1.7450 H        1 ZINC000002570829    0.0600
39     H39    -4.7590   -6.5811   -3.3756 H        1 ZINC000002570829    0.0600
40     H40    -6.3853   -7.0813   -2.1621 H        1 ZINC000002570829    0.1400
41     H41    -8.7260   -7.7380   -1.7764 H        1 ZINC000002570829    0.1400
42     H42    -7.8978  -11.6243   -3.3313 H        1 ZINC000002570829    0.1400
43     H43    -5.5574  -10.9715   -3.7253 H        1 ZINC000002570829    0.1400
44     H44     3.3778   -1.2284   -2.1280 H        1 ZINC000002570829    0.1200
45     H45     3.5962   -2.6482   -3.2876 H        1 ZINC000002570829    0.1300
@<TRIPOS>BOND
1     1     2     1
2     1     23    1
3     1     24    1
4     1     25    1
5     2     3     1
6     2     26    1
7     2     27    1
8     3     4     1
9     4     5     2
10    4     6     1
11    6     22    1
12    6     7     1
13    6     21    1
14    7     8     1
15    7     28    1
16    7     29    1
17    8     9     1
18    8     30    1
19    8     31    1
20    9     10    1
21    9     32    1
22    9     33    1
23    10    11    1
24    10    34    1
25    10    35    1
26    11    12    1
27    11    36    1
28    11    37    1
29    12    13    1
30    12    38    1
31    12    39    1
32    13    14    1
33    14    20    ar
34    14    15    ar
35    15    16    ar
36    15    40    1
37    16    17    ar
38    16    41    1
39    17    18    1
40    17    19    ar
41    19    20    ar
42    19    42    1
43    20    43    1
44    21    22    1
45    21    44    1
46    21    45    1
@<TRIPOS>SUBSTRUCTURE
1   ZINC000002570829 1     RESIDUE    1   A     ZIN   1
