@<TRIPOS>MOLECULE
ZINC000095644391
49    52    1     0     0
SMALL
USER_CHARGES
@<TRIPOS>ATOM
1      C1      0.7080    1.6185    0.3895 C.3      1 ZINC000095644391    0.0300
2      O2      0.6790    0.1898    0.3836 O.3      1 ZINC000095644391   -0.3200
3      C3      1.1869   -0.4332   -0.7124 C.ar     1 ZINC000095644391    0.1000
4      C4      1.7091    0.3309   -1.7600 C.ar     1 ZINC000095644391   -0.1800
5      C5      2.2248   -0.2636   -2.8695 C.ar     1 ZINC000095644391   -0.0700
6      C6      2.2347   -1.6658   -2.9683 C.ar     1 ZINC000095644391   -0.0400
7      C7      2.7603   -2.3115   -4.1000 C.ar     1 ZINC000095644391   -0.1500
8      C8      2.7544   -3.6755   -4.1627 C.ar     1 ZINC000095644391    0.1400
9      O9      3.2632   -4.2986   -5.2582 O.3      1 ZINC000095644391   -0.2700
10     C10     3.2294   -5.7272   -5.2663 C.3      1 ZINC000095644391    0.1000
11     C11     3.8408   -6.2444   -6.5700 C.3      1 ZINC000095644391   -0.1700
12     C12     3.2932   -5.5516   -7.7912 C.2      1 ZINC000095644391    0.5100
13     O13     3.2630   -4.3337   -7.8390 O.co2    1 ZINC000095644391   -0.6600
14     O14     2.8803   -6.2090   -8.7313 O.co2    1 ZINC000095644391   -0.6900
15     C15     5.3775   -6.3331   -6.5416 C.3      1 ZINC000095644391    0.1400
16     N16     5.1887   -7.7137   -6.0555 N.am     1 ZINC000095644391   -0.6400
17     C17     5.9352   -8.5702   -5.3306 C.2      1 ZINC000095644391    0.5700
18     O18     7.0544   -8.2527   -4.9780 O.2      1 ZINC000095644391   -0.5500
19     C19     5.3934   -9.8949   -4.9647 C.ar     1 ZINC000095644391   -0.1300
20     C20     4.1838  -10.3319   -5.5087 C.ar     1 ZINC000095644391   -0.0700
21     C21     3.6827  -11.5688   -5.1638 C.ar     1 ZINC000095644391   -0.1600
22     C22     4.3773  -12.3785   -4.2780 C.ar     1 ZINC000095644391    0.1200
23     F23     3.8818  -13.5900   -3.9433 F        1 ZINC000095644391   -0.1400
24     C24     5.5788  -11.9495   -3.7349 C.ar     1 ZINC000095644391   -0.1600
25     C25     6.0919  -10.7171   -4.0779 C.ar     1 ZINC000095644391   -0.0300
26     C26     3.8541   -7.7797   -6.6821 C.3      1 ZINC000095644391    0.1200
27     C27     2.2323   -4.4399   -3.1146 C.ar     1 ZINC000095644391   -0.1800
28     C28     1.7163   -3.8456   -2.0056 C.ar     1 ZINC000095644391   -0.0800
29     C29     1.7055   -2.4429   -1.9071 C.ar     1 ZINC000095644391   -0.0500
30     C30     1.1854   -1.7977   -0.7732 C.ar     1 ZINC000095644391   -0.1400
31     H31     1.7396    1.9613    0.3096 H        1 ZINC000095644391    0.0500
32     H32     0.1328    1.9971   -0.4554 H        1 ZINC000095644391    0.0500
33     H33     0.2738    1.9869    1.3190 H        1 ZINC000095644391    0.1000
34     H34     1.7027    1.4085   -1.6876 H        1 ZINC000095644391    0.1300
35     H35     2.6246    0.3393   -3.6715 H        1 ZINC000095644391    0.1300
36     H36     3.1664   -1.7321   -4.9160 H        1 ZINC000095644391    0.1400
37     H37     3.8010   -6.1089   -4.4204 H        1 ZINC000095644391    0.0500
38     H38     2.1965   -6.0666   -5.1897 H        1 ZINC000095644391    0.0600
39     H39     5.8393   -6.2736   -7.5271 H        1 ZINC000095644391    0.0900
40     H40     5.8424   -5.6701   -5.8119 H        1 ZINC000095644391    0.0800
41     H41     3.6416   -9.7017   -6.1982 H        1 ZINC000095644391    0.1600
42     H42     2.7473  -11.9078   -5.5839 H        1 ZINC000095644391    0.1400
43     H43     6.1157  -12.5841   -3.0455 H        1 ZINC000095644391    0.1400
44     H44     7.0280  -10.3840   -3.6545 H        1 ZINC000095644391    0.1500
45     H45     3.1027   -8.2718   -6.0645 H        1 ZINC000095644391    0.0800
46     H46     3.8684   -8.1452   -7.7089 H        1 ZINC000095644391    0.1100
47     H47     2.2386   -5.5174   -3.1871 H        1 ZINC000095644391    0.1300
48     H48     1.3160   -4.4485   -1.2039 H        1 ZINC000095644391    0.1300
49     H49     0.7839   -2.3773    0.0448 H        1 ZINC000095644391    0.1300
@<TRIPOS>BOND
1     1     2     1
2     1     31    1
3     1     32    1
4     1     33    1
5     2     3     1
6     3     30    ar
7     3     4     ar
8     4     5     ar
9     4     34    1
10    5     6     ar
11    5     35    1
12    6     29    ar
13    6     7     ar
14    7     8     ar
15    7     36    1
16    8     9     1
17    8     27    ar
18    9     10    1
19    10    11    1
20    10    37    1
21    10    38    1
22    11    26    1
23    11    12    1
24    11    15    1
25    12    13    ar
26    12    14    ar
27    15    16    1
28    15    39    1
29    15    40    1
30    16    17    am
31    16    26    1
32    17    18    2
33    17    19    1
34    19    25    ar
35    19    20    ar
36    20    21    ar
37    20    41    1
38    21    22    ar
39    21    42    1
40    22    23    1
41    22    24    ar
42    24    25    ar
43    24    43    1
44    25    44    1
45    26    45    1
46    26    46    1
47    27    28    ar
48    27    47    1
49    28    29    ar
50    28    48    1
51    29    30    ar
52    30    49    1
@<TRIPOS>SUBSTRUCTURE
1   ZINC000095644391 1     RESIDUE    1   A     ZIN   1
