@<TRIPOS>MOLECULE
ZINC000034285235
46    50    1     0     0
SMALL
USER_CHARGES
@<TRIPOS>ATOM
1      C1     -0.0173    1.4248    0.0099 C.3      1 ZINC000034285235    0.0200
2      O2      0.0021   -0.0041    0.0020 O.3      1 ZINC000034285235   -0.3100
3      C3     -1.1997   -0.6371    0.0101 C.ar     1 ZINC000034285235    0.1600
4      C4     -2.3772    0.1161    0.0196 C.ar     1 ZINC000034285235   -0.2000
5      C5     -3.5937   -0.4938    0.0283 C.ar     1 ZINC000034285235   -0.0300
6      C6     -3.6725   -1.8942    0.0272 C.ar     1 ZINC000034285235   -0.1500
7      C7     -2.4859   -2.6674    0.0171 C.ar     1 ZINC000034285235    0.2000
8      C8     -1.2438   -2.0129    0.0031 C.ar     1 ZINC000034285235   -0.1500
9      N9     -2.5591   -4.0037    0.0156 N.ar     1 ZINC000034285235   -0.5000
10     C10    -3.7126   -4.6296    0.0233 C.ar     1 ZINC000034285235    0.1800
11     C11    -4.9191   -3.9414    0.0330 C.ar     1 ZINC000034285235   -0.2900
12     C12    -4.9201   -2.5579    0.0355 C.ar     1 ZINC000034285235    0.2100
13     O13    -6.0825   -1.8601    0.0453 O.3      1 ZINC000034285235   -0.3000
14     C14    -7.2940   -2.6178    0.0528 C.3      1 ZINC000034285235    0.1500
15     C15    -8.4733   -1.6796    0.0632 C.2      1 ZINC000034285235    0.1900
16     N16    -9.0669   -1.1958    1.1258 N.2      1 ZINC000034285235   -0.2200
17     N17   -10.0393   -0.4260    0.7808 N.2      1 ZINC000034285235   -0.2400
18     C18   -10.1137   -0.3812   -0.5394 C.2      1 ZINC000034285235    0.1500
19     C19   -10.9618    0.2836   -1.4453 C.2      1 ZINC000034285235    0.0000
20     C20   -10.7679    0.1148   -2.7799 C.2      1 ZINC000034285235   -0.1500
21     C21    -9.7276   -0.7179   -3.2441 C.2      1 ZINC000034285235    0.2200
22     C22    -9.5257   -0.8944   -4.7033 C.ar     1 ZINC000034285235   -0.0600
23     C23   -10.3559   -0.2364   -5.6087 C.ar     1 ZINC000034285235   -0.0800
24     C24   -10.1636   -0.4043   -6.9651 C.ar     1 ZINC000034285235   -0.1200
25     C25    -9.1494   -1.2241   -7.4262 C.ar     1 ZINC000034285235   -0.0900
26     C26    -8.3227   -1.8800   -6.5319 C.ar     1 ZINC000034285235   -0.1200
27     C27    -8.5017   -1.7142   -5.1735 C.ar     1 ZINC000034285235   -0.0700
28     N28    -8.9348   -1.3388   -2.3989 N.2      1 ZINC000034285235   -0.2500
29     N29    -9.1052   -1.1813   -1.0220 N.pl3    1 ZINC000034285235   -0.2800
30     H30     1.0053    1.8021    0.0021 H        1 ZINC000034285235    0.1000
31     H31    -0.5445    1.7859   -0.8732 H        1 ZINC000034285235    0.0600
32     H32    -0.5275    1.7763    0.9067 H        1 ZINC000034285235    0.0600
33     H33    -2.3209    1.1947    0.0205 H        1 ZINC000034285235    0.1400
34     H34    -4.4964    0.0991    0.0364 H        1 ZINC000034285235    0.1400
35     H35    -0.3282   -2.5857   -0.0047 H        1 ZINC000034285235    0.1500
36     H36    -3.7240   -5.7095    0.0218 H        1 ZINC000034285235    0.1600
37     H37    -5.8528   -4.4842    0.0385 H        1 ZINC000034285235    0.1400
38     H38    -7.3361   -3.2445   -0.8380 H        1 ZINC000034285235    0.1000
39     H39    -7.3231   -3.2477    0.9419 H        1 ZINC000034285235    0.1100
40     H40   -11.7566    0.9194   -1.0843 H        1 ZINC000034285235    0.1800
41     H41   -11.4112    0.6185   -3.4861 H        1 ZINC000034285235    0.1700
42     H42   -11.1485    0.4033   -5.2498 H        1 ZINC000034285235    0.1300
43     H43   -10.8065    0.1051   -7.6677 H        1 ZINC000034285235    0.1300
44     H44    -9.0028   -1.3529   -8.4884 H        1 ZINC000034285235    0.1300
45     H45    -7.5326   -2.5192   -6.8974 H        1 ZINC000034285235    0.1300
46     H46    -7.8554   -2.2265   -4.4761 H        1 ZINC000034285235    0.1300
@<TRIPOS>BOND
1     1     2     1
2     1     30    1
3     1     31    1
4     1     32    1
5     2     3     1
6     3     8     ar
7     3     4     ar
8     4     5     ar
9     4     33    1
10    5     6     ar
11    5     34    1
12    6     12    ar
13    6     7     ar
14    7     8     ar
15    7     9     ar
16    8     35    1
17    9     10    ar
18    10    11    ar
19    10    36    1
20    11    12    ar
21    11    37    1
22    12    13    1
23    13    14    1
24    14    15    1
25    14    38    1
26    14    39    1
27    15    29    1
28    15    16    2
29    16    17    1
30    17    18    2
31    18    29    1
32    18    19    1
33    19    20    2
34    19    40    1
35    20    21    1
36    20    41    1
37    21    22    1
38    21    28    2
39    22    27    ar
40    22    23    ar
41    23    24    ar
42    23    42    1
43    24    25    ar
44    24    43    1
45    25    26    ar
46    25    44    1
47    26    27    ar
48    26    45    1
49    27    46    1
50    28    29    1
@<TRIPOS>SUBSTRUCTURE
1   ZINC000034285235 1     RESIDUE    1   A     ZIN   1
