@<TRIPOS>MOLECULE
ZINC000016697102
68    71    1     0     0
SMALL
USER_CHARGES
@<TRIPOS>ATOM
1      C1     -1.2232   -0.2904   -0.1964 C.3      1 ZINC000016697102   -0.1900
2      C2     -1.1296   -1.7903   -0.4836 C.3      1 ZINC000016697102   -0.0200
3      N3     -0.3815   -2.0046   -1.7295 N.4      1 ZINC000016697102   -0.3800
4      H4     -0.8060   -1.4703   -2.4728 H        1 ZINC000016697102    0.4300
5      C5      1.0096   -1.5694   -1.5465 C.3      1 ZINC000016697102   -0.0100
6      C6      1.7512   -1.6569   -2.8818 C.3      1 ZINC000016697102    0.0400
7      O7      1.1387   -0.7759   -3.8256 O.3      1 ZINC000016697102   -0.5800
8      C8     -0.4065   -3.4318   -2.0764 C.3      1 ZINC000016697102   -0.0100
9      C9     -1.8430   -3.8557   -2.3888 C.3      1 ZINC000016697102   -0.1500
10     C10    -1.8690   -5.3422   -2.7501 C.3      1 ZINC000016697102    0.0600
11     O11    -3.2107   -5.7381   -3.0419 O.3      1 ZINC000016697102   -0.3100
12     C12    -3.4097   -7.0372   -3.3834 C.ar     1 ZINC000016697102    0.1700
13     C13    -2.3225   -7.9138   -3.4289 C.ar     1 ZINC000016697102   -0.2100
14     C14    -2.4940   -9.2220   -3.7684 C.ar     1 ZINC000016697102   -0.0200
15     C15    -3.7741   -9.6971   -4.0758 C.ar     1 ZINC000016697102   -0.2200
16     C16    -4.8833   -8.8161   -4.0321 C.ar     1 ZINC000016697102    0.2300
17     C17    -4.6833   -7.4778   -3.6760 C.ar     1 ZINC000016697102   -0.1500
18     N18    -6.1006   -9.2963   -4.3307 N.ar     1 ZINC000016697102   -0.5500
19     C19    -6.2564  -10.5577   -4.6562 C.ar     1 ZINC000016697102    0.3600
20     N20    -5.2511  -11.4165   -4.7102 N.ar     1 ZINC000016697102   -0.5800
21     C21    -4.0071  -11.0465   -4.4340 C.ar     1 ZINC000016697102    0.4900
22     N22    -2.9687  -11.9525   -4.4948 N.pl3    1 ZINC000016697102   -0.6000
23     C23    -3.2203  -13.2831   -4.8518 C.2      1 ZINC000016697102    0.3000
24     N24    -2.3264  -14.2398   -4.9406 N.2      1 ZINC000016697102   -0.3100
25     N25    -2.9825  -15.4164   -5.3241 N.pl3    1 ZINC000016697102   -0.4600
26     C26    -4.2957  -15.1370   -5.4625 C.2      1 ZINC000016697102    0.1100
27     C27    -5.3727  -16.1118   -5.8636 C.3      1 ZINC000016697102   -0.0800
28     C28    -6.0285  -16.6721   -4.6279 C.2      1 ZINC000016697102    0.5100
29     O29    -5.6579  -16.3150   -3.5296 O.2      1 ZINC000016697102   -0.5000
30     N30    -7.0270  -17.5700   -4.7431 N.am     1 ZINC000016697102   -0.6700
31     C31    -7.7063  -18.0112   -3.6022 C.ar     1 ZINC000016697102    0.1700
32     C32    -8.1614  -19.3210   -3.5267 C.ar     1 ZINC000016697102   -0.1500
33     C33    -8.8319  -19.7550   -2.3995 C.ar     1 ZINC000016697102   -0.0700
34     C34    -9.0511  -18.8870   -1.3464 C.ar     1 ZINC000016697102   -0.1700
35     C35    -8.5992  -17.5794   -1.4177 C.ar     1 ZINC000016697102    0.1200
36     F36    -8.8149  -16.7332   -0.3869 F        1 ZINC000016697102   -0.1400
37     C37    -7.9215  -17.1418   -2.5412 C.ar     1 ZINC000016697102   -0.1600
38     C38    -4.4743  -13.8284   -5.1716 C.2      1 ZINC000016697102   -0.2400
39     H39    -0.2263    0.1053   -0.0023 H        1 ZINC000016697102    0.0800
40     H40    -1.6545    0.2184   -1.0586 H        1 ZINC000016697102    0.0800
41     H41    -1.8555   -0.1263    0.6761 H        1 ZINC000016697102    0.1100
42     H42    -0.6148   -2.2863    0.3392 H        1 ZINC000016697102    0.1300
43     H43    -2.1328   -2.2038   -0.5865 H        1 ZINC000016697102    0.1300
44     H44     1.0241   -0.5396   -1.1896 H        1 ZINC000016697102    0.1400
45     H45     1.4988   -2.2140   -0.8162 H        1 ZINC000016697102    0.1400
46     H46     2.7926   -1.3687   -2.7386 H        1 ZINC000016697102    0.1000
47     H47     1.7055   -2.6794   -3.2566 H        1 ZINC000016697102    0.0700
48     H48     1.5089   -0.8353   -4.7169 H        1 ZINC000016697102    0.4100
49     H49     0.2215   -3.6043   -2.9505 H        1 ZINC000016697102    0.1300
50     H50    -0.0295   -4.0163   -1.2371 H        1 ZINC000016697102    0.1300
51     H51    -2.4710   -3.6832   -1.5148 H        1 ZINC000016697102    0.1000
52     H52    -2.2199   -3.2712   -3.2281 H        1 ZINC000016697102    0.1000
53     H53    -1.2410   -5.5147   -3.6242 H        1 ZINC000016697102    0.0800
54     H54    -1.4921   -5.9267   -1.9108 H        1 ZINC000016697102    0.0800
55     H55    -1.3337   -7.5496   -3.1922 H        1 ZINC000016697102    0.1300
56     H56    -1.6456   -9.8895   -3.8007 H        1 ZINC000016697102    0.1300
57     H57    -5.5182   -6.7938   -3.6381 H        1 ZINC000016697102    0.1500
58     H58    -7.2497  -10.9110   -4.8902 H        1 ZINC000016697102    0.2000
59     H59    -2.0642  -11.6679   -4.2902 H        1 ZINC000016697102    0.4300
60     H60    -2.5659  -16.2809   -5.4657 H        1 ZINC000016697102    0.4400
61     H61    -6.1191  -15.5992   -6.4704 H        1 ZINC000016697102    0.1300
62     H62    -4.9309  -16.9242   -6.4406 H        1 ZINC000016697102    0.1100
63     H63    -7.2747  -17.9104   -5.6170 H        1 ZINC000016697102    0.4200
64     H64    -7.9914  -20.0002   -4.3491 H        1 ZINC000016697102    0.1300
65     H65    -9.1856  -20.7737   -2.3413 H        1 ZINC000016697102    0.1400
66     H66    -9.5759  -19.2288   -0.4665 H        1 ZINC000016697102    0.1400
67     H67    -7.5691  -16.1225   -2.5973 H        1 ZINC000016697102    0.1500
68     H68    -5.4136  -13.2956   -5.1891 H        1 ZINC000016697102    0.1900
@<TRIPOS>BOND
1     1     2     1
2     1     39    1
3     1     40    1
4     1     41    1
5     2     3     1
6     2     42    1
7     2     43    1
8     3     4     1
9     3     5     1
10    3     8     1
11    5     6     1
12    5     44    1
13    5     45    1
14    6     7     1
15    6     46    1
16    6     47    1
17    7     48    1
18    8     9     1
19    8     49    1
20    8     50    1
21    9     10    1
22    9     51    1
23    9     52    1
24    10    11    1
25    10    53    1
26    10    54    1
27    11    12    1
28    12    17    ar
29    12    13    ar
30    13    14    ar
31    13    55    1
32    14    15    ar
33    14    56    1
34    15    21    ar
35    15    16    ar
36    16    17    ar
37    16    18    ar
38    17    57    1
39    18    19    ar
40    19    20    ar
41    19    58    1
42    20    21    ar
43    21    22    1
44    22    23    1
45    22    59    1
46    23    38    1
47    23    24    2
48    24    25    1
49    25    26    1
50    25    60    1
51    26    27    1
52    26    38    2
53    27    28    1
54    27    61    1
55    27    62    1
56    28    29    2
57    28    30    am
58    30    31    1
59    30    63    1
60    31    37    ar
61    31    32    ar
62    32    33    ar
63    32    64    1
64    33    34    ar
65    33    65    1
66    34    35    ar
67    34    66    1
68    35    36    1
69    35    37    ar
70    37    67    1
71    38    68    1
@<TRIPOS>SUBSTRUCTURE
1   ZINC000016697102 1     RESIDUE    1   A     ZIN   1
