@<TRIPOS>MOLECULE
ZINC000001571800
  24   25    0    0    0
SMALL
USER_CHARGES
NO_NAME
@<TRIPOS>ATOM
    1 Cl1      -0.0135     0.0309     0.4813 Cl     1 <0>      -0.0100
    2 C2       -0.0282     1.7469     0.2188 C.ar   1 <0>       0.1800
    3 C3       -1.2288     2.4055     0.0224 C.ar   1 <0>       0.0000
    4 N4       -1.2448     3.7124    -0.1784 N.ar   1 <0>      -0.3800
    5 C5       -0.1150     4.3938    -0.1917 C.ar   1 <0>      -0.0100
    6 C6        1.0963     3.7348     0.0062 C.ar   1 <0>       0.3800
    7 N7        2.2885     4.4493    -0.0072 N.pl3  1 <0>      -0.6000
    8 C8        3.5846     3.7547    -0.0351 C.3    1 <0>       0.1200
    9 C9        4.4626     4.3171     1.0878 C.3    1 <0>       0.0400
   10 N10       4.5383     5.7786     0.9604 N.3    1 <0>      -0.6900
   11 C11       3.2164     6.3973     1.1276 C.3    1 <0>       0.0400
   12 C12       2.2872     5.9201     0.0001 C.3    1 <0>       0.1200
   13 N13       1.1086     2.4242     0.2123 N.ar   1 <0>      -0.5000
   14 H14      -2.1554     1.8508     0.0326 H      1 <0>       0.1800
   15 H15      -0.1292     5.4611    -0.3561 H      1 <0>       0.1700
   16 H16       3.4311     2.6867     0.1202 H      1 <0>       0.1000
   17 H17       4.0689     3.9217    -0.9972 H      1 <0>       0.0700
   18 H18       4.0284     4.0582     2.0534 H      1 <0>       0.0400
   19 H19       5.4641     3.8932     1.0135 H      1 <0>       0.0900
   20 H20       5.2034     6.1646     1.6137 H      1 <0>       0.3500
   21 H21       2.7995     6.1094     2.0927 H      1 <0>       0.0400
   22 H22       3.3141     7.4819     1.0821 H      1 <0>       0.0900
   23 H23       2.6487     6.2972    -0.9565 H      1 <0>       0.0800
   24 H24       1.2755     6.2829     0.1813 H      1 <0>       0.0900
@<TRIPOS>BOND
   1    1    2 1
   2    2   13 ar
   3    2    3 ar
   4    3    4 ar
   5    3   14 1
   6    4    5 ar
   7    5    6 ar
   8    5   15 1
   9    6    7 1
  10    6   13 ar
  11    7   12 1
  12    7    8 1
  13    8    9 1
  14    8   16 1
  15    8   17 1
  16    9   10 1
  17    9   18 1
  18    9   19 1
  19   10   11 1
  20   10   20 1
  21   11   12 1
  22   11   21 1
  23   11   22 1
  24   12   23 1
  25   12   24 1
