@<TRIPOS>MOLECULE
ZINC000027323296
  39   41    0    0    0
SMALL
USER_CHARGES
NO_NAME
@<TRIPOS>ATOM
    1 O1        0.0021    -0.0041     0.0020 O.2    1 <0>      -0.5800
    2 C2       -0.0144     1.2117     0.0087 C.2    1 <0>       0.7300
    3 N3        1.1435     1.9014     0.0014 N.am   1 <0>      -0.7400
    4 C4        2.4220     1.1862    -0.0147 C.3    1 <0>       0.1600
    5 C5        2.7986     0.8429    -1.4588 C.3    1 <0>      -0.1700
    6 C6        4.1714     0.1672    -1.4753 C.3    1 <0>       0.0000
    7 N7        5.1751     1.0766    -0.9093 N.4    1 <0>      -0.5100
    8 H8        6.0871     0.6493    -0.9706 H      1 <0>       0.4300
    9 H9        5.1745     1.9417    -1.4285 H      1 <0>       0.4300
   10 C10       4.8596     1.3533     0.4973 C.3    1 <0>       0.0000
   11 C11       3.5133     2.0745     0.5896 C.3    1 <0>      -0.1600
   12 N12      -1.1906     1.8696     0.0179 N.am   1 <0>      -0.6100
   13 C13      -1.3901     3.3372     0.0203 C.3    1 <0>       0.0900
   14 C14      -2.5945     3.5307     0.9759 C.3    1 <0>      -0.1400
   15 C15      -3.4911     2.3139     0.6443 C.3    1 <0>       0.1200
   16 H16      -4.0994     1.9620     1.4776 H      1 <0>       0.1300
   17 C17      -2.5388     1.2745     0.0210 C.3    1 <0>       0.1000
   18 H18      -2.6015     0.2588     0.4114 H      1 <0>       0.1500
   19 C19      -3.3543     1.5606    -1.2097 C.2    1 <0>       0.5400
   20 O20      -3.2839     1.1333    -2.3426 O.2    1 <0>      -0.4700
   21 N21      -4.1981     2.4544    -0.6306 N.am   1 <0>      -0.9500
   22 S22      -5.4938     3.3400    -1.1593 S.o2   1 <0>       2.7600
   23 O23      -5.5160     4.5624    -0.3711 O.co2  1 <0>      -1.0600
   24 O24      -5.2719     3.6054    -2.5722 O.co2  1 <0>      -1.0500
   25 O25      -6.6779     2.5250    -0.9363 O.co2  1 <0>      -1.0600
   26 H26       1.1303     2.8713     0.0067 H      1 <0>       0.4000
   27 H27       2.3341     0.2693     0.5681 H      1 <0>       0.1100
   28 H28       2.0545     0.1655    -1.8778 H      1 <0>       0.1200
   29 H29       2.8353     1.7563    -2.0524 H      1 <0>       0.0900
   30 H30       4.1335    -0.7462    -0.8817 H      1 <0>       0.1300
   31 H31       4.4426    -0.0787    -2.5020 H      1 <0>       0.1400
   32 H32       4.8070     0.4146     1.0488 H      1 <0>       0.1300
   33 H33       5.6388     1.9829     0.9269 H      1 <0>       0.1400
   34 H34       3.5648     3.0136     0.0386 H      1 <0>       0.0900
   35 H35       3.2800     2.2775     1.6349 H      1 <0>       0.1200
   36 H36      -0.5066     3.8447     0.4074 H      1 <0>       0.0800
   37 H37      -1.6322     3.6940    -0.9808 H      1 <0>       0.0800
   38 H38      -2.2710     3.5002     2.0163 H      1 <0>       0.1000
   39 H39      -3.1139     4.4641     0.7588 H      1 <0>       0.1100
@<TRIPOS>BOND
   1    1    2 2
   2    2    3 am
   3    2   12 am
   4    3    4 1
   5    3   26 1
   6    4   11 1
   7    4    5 1
   8    4   27 1
   9    5    6 1
  10    5   28 1
  11    5   29 1
  12    6    7 1
  13    6   30 1
  14    6   31 1
  15    7    8 1
  16    7    9 1
  17    7   10 1
  18   10   11 1
  19   10   32 1
  20   10   33 1
  21   11   34 1
  22   11   35 1
  23   12   17 1
  24   12   13 1
  25   13   14 1
  26   13   36 1
  27   13   37 1
  28   14   15 1
  29   14   38 1
  30   14   39 1
  31   15   16 1
  32   15   21 1
  33   15   17 1
  34   17   18 1
  35   17   19 1
  36   19   20 2
  37   19   21 am
  38   21   22 am
  39   22   23 ar
  40   22   24 ar
  41   22   25 ar
