@<TRIPOS>MOLECULE
ZINC000003781682
59    61    1     0     0
SMALL
USER_CHARGES
@<TRIPOS>ATOM
1      O1     -0.1084   -0.1462    0.2458 O.2      1 ZINC000003781682   -0.5300
2      C2     -0.1048    1.0581    0.3895 C.2      1 ZINC000003781682    0.5400
3      C3      1.1937    1.7846    0.6281 C.3      1 ZINC000003781682   -0.5000
4      S4      2.5598    0.5913    0.6461 S.o      1 ZINC000003781682    1.3200
5      O5      2.3922   -0.3042    1.7367 O.2      1 ZINC000003781682   -0.8100
6      C6      4.0119    1.6378    0.9408 C.3      1 ZINC000003781682   -0.3900
7      C7      5.2496    0.7791    0.9836 C.2      1 ZINC000003781682    0.0000
8      C8      6.0248    0.4633   -0.0694 C.2      1 ZINC000003781682   -0.2000
9      C9      7.0687   -0.3544    0.4210 C.2      1 ZINC000003781682   -0.2100
10     C10     6.8690   -0.4894    1.7444 C.2      1 ZINC000003781682   -0.0300
11     O11     5.7690    0.2040    2.0805 O.3      1 ZINC000003781682   -0.1700
12     N12    -1.2616    1.7472    0.3303 N.am     1 ZINC000003781682   -0.7200
13     C13    -2.5232    1.0416    0.0923 C.3      1 ZINC000003781682    0.1300
14     C14    -3.6575    2.0336    0.0719 C.2      1 ZINC000003781682   -0.1600
15     C15    -4.4788    2.0686   -0.9480 C.2      1 ZINC000003781682   -0.1300
16     C16    -4.3874    1.0188   -2.0254 C.3      1 ZINC000003781682    0.0900
17     O17    -5.7007    0.5706   -2.3664 O.3      1 ZINC000003781682   -0.3000
18     C18    -5.7962   -0.3817   -3.3281 C.ar     1 ZINC000003781682    0.3200
19     C19    -7.0462   -0.8536   -3.7069 C.ar     1 ZINC000003781682   -0.1900
20     C20    -7.1299   -1.8252   -4.6893 C.ar     1 ZINC000003781682    0.0000
21     C21    -8.4671   -2.3633   -5.1291 C.3      1 ZINC000003781682    0.0900
22     N22    -8.9797   -1.5517   -6.2411 N.3      1 ZINC000003781682   -0.5300
23     C23    -8.8314   -0.1183   -5.9585 C.3      1 ZINC000003781682    0.0500
24     C24    -9.2390    0.6909   -7.1918 C.3      1 ZINC000003781682   -0.1200
25     C25   -10.6928    0.3699   -7.5493 C.3      1 ZINC000003781682   -0.1200
26     C26   -10.8301   -1.1358   -7.7915 C.3      1 ZINC000003781682   -0.1200
27     C27   -10.3764   -1.8921   -6.5408 C.3      1 ZINC000003781682    0.0500
28     C28    -5.9543   -2.2923   -5.2602 C.ar     1 ZINC000003781682   -0.1900
29     C29    -4.7456   -1.7776   -4.8345 C.ar     1 ZINC000003781682    0.1400
30     N30    -4.6981   -0.8479   -3.8996 N.ar     1 ZINC000003781682   -0.5400
31     H31     1.3558    2.5104   -0.1688 H        1 ZINC000003781682    0.1500
32     H32     1.1501    2.3014    1.5868 H        1 ZINC000003781682    0.1200
33     H33     4.1035    2.3672    0.1360 H        1 ZINC000003781682    0.1500
34     H34     3.8978    2.1582    1.8917 H        1 ZINC000003781682    0.1000
35     H35     5.8776    0.7742   -1.0932 H        1 ZINC000003781682    0.1600
36     H36     7.8720   -0.7878   -0.1562 H        1 ZINC000003781682    0.1500
37     H37     7.4902   -1.0560    2.4223 H        1 ZINC000003781682    0.2000
38     H38    -1.2587    2.7104    0.4453 H        1 ZINC000003781682    0.4000
39     H39    -2.4753    0.5248   -0.8661 H        1 ZINC000003781682    0.0900
40     H40    -2.6895    0.3160    0.8885 H        1 ZINC000003781682    0.0800
41     H41    -3.7932    2.7158    0.8982 H        1 ZINC000003781682    0.1300
42     H42    -5.2215    2.8497   -1.0167 H        1 ZINC000003781682    0.1300
43     H43    -3.9082    1.4441   -2.9072 H        1 ZINC000003781682    0.0800
44     H44    -3.7986    0.1763   -1.6627 H        1 ZINC000003781682    0.0800
45     H45    -7.9409   -0.4679   -3.2411 H        1 ZINC000003781682    0.1400
46     H46    -8.3531   -3.3969   -5.4560 H        1 ZINC000003781682    0.0900
47     H47    -9.1678   -2.3211   -4.2953 H        1 ZINC000003781682    0.0500
48     H48    -9.4699    0.1541   -5.1181 H        1 ZINC000003781682    0.0300
49     H49    -7.7923    0.0972   -5.7097 H        1 ZINC000003781682    0.0800
50     H50    -9.1437    1.7552   -6.9765 H        1 ZINC000003781682    0.0700
51     H51    -8.5920    0.4291   -8.0290 H        1 ZINC000003781682    0.0700
52     H52   -11.3443    0.6676   -6.7277 H        1 ZINC000003781682    0.0600
53     H53   -10.9738    0.9112   -8.4527 H        1 ZINC000003781682    0.0700
54     H54   -11.8715   -1.3766   -8.0046 H        1 ZINC000003781682    0.0700
55     H55   -10.2081   -1.4264   -8.6381 H        1 ZINC000003781682    0.0700
56     H56   -10.4594   -2.9649   -6.7150 H        1 ZINC000003781682    0.0800
57     H57   -11.0076   -1.6113   -5.6977 H        1 ZINC000003781682    0.0300
58     H58    -5.9844   -3.0503   -6.0289 H        1 ZINC000003781682    0.1400
59     H59    -3.8278   -2.1376   -5.2756 H        1 ZINC000003781682    0.1600
@<TRIPOS>BOND
1     1     2     2
2     2     3     1
3     2     12    am
4     3     4     1
5     3     31    1
6     3     32    1
7     4     5     2
8     4     6     1
9     6     7     1
10    6     33    1
11    6     34    1
12    7     11    1
13    7     8     2
14    8     9     1
15    8     35    1
16    9     10    2
17    9     36    1
18    10    11    1
19    10    37    1
20    12    13    1
21    12    38    1
22    13    14    1
23    13    39    1
24    13    40    1
25    14    15    2
26    14    41    1
27    15    16    1
28    15    42    1
29    16    17    1
30    16    43    1
31    16    44    1
32    17    18    1
33    18    30    ar
34    18    19    ar
35    19    20    ar
36    19    45    1
37    20    21    1
38    20    28    ar
39    21    22    1
40    21    46    1
41    21    47    1
42    22    27    1
43    22    23    1
44    23    24    1
45    23    48    1
46    23    49    1
47    24    25    1
48    24    50    1
49    24    51    1
50    25    26    1
51    25    52    1
52    25    53    1
53    26    27    1
54    26    54    1
55    26    55    1
56    27    56    1
57    27    57    1
58    28    29    ar
59    28    58    1
60    29    30    ar
61    29    59    1
@<TRIPOS>SUBSTRUCTURE
1   ZINC000003781682 1     RESIDUE    1   A     ZIN   1
