@<TRIPOS>MOLECULE
ZINC000004685859
  33   34    0    0    0
SMALL
USER_CHARGES
NO_NAME
@<TRIPOS>ATOM
    1 C1       -0.0187     1.5258     0.0104 C.3    1 <0>      -0.1500
    2 C2        0.0021    -0.0041     0.0020 C.3    1 <0>      -0.1200
    3 C3        0.7182    -0.4975    -1.2568 C.3    1 <0>       0.0600
    4 O4        0.7376    -1.9263    -1.2646 O.3    1 <0>      -0.3100
    5 C5        1.3416    -2.5297    -2.3230 C.ar   1 <0>       0.1500
    6 C6        1.9089    -1.7555    -3.3299 C.ar   1 <0>      -0.2000
    7 C7        2.5236    -2.3532    -4.4071 C.ar   1 <0>      -0.0200
    8 C8        2.5789    -3.7463    -4.4909 C.ar   1 <0>       0.0300
    9 N9        3.1026    -4.6063    -5.4051 N.2    1 <0>      -0.5000
   10 C10       2.8911    -5.8384    -5.0204 C.2    1 <0>       0.5200
   11 N11       3.2914    -6.9682    -5.7145 N.am   1 <0>      -0.6100
   12 C12       3.0194    -8.1931    -5.2224 C.2    1 <0>       0.6600
   13 O13       2.4232    -8.3062    -4.1698 O.2    1 <0>      -0.5600
   14 O14       3.4085    -9.2913    -5.8970 O.3    1 <0>      -0.3500
   15 C15       3.0817   -10.5773    -5.3076 C.3    1 <0>       0.0500
   16 N16       2.2170    -5.8455    -3.8326 N.pl3  1 <0>      -0.5900
   17 C17       2.0053    -4.5256    -3.4725 C.ar   1 <0>       0.0900
   18 C18       1.3941    -3.9111    -2.3902 C.ar   1 <0>      -0.1500
   19 H19       1.0039     1.9031     0.0027 H      1 <0>       0.0600
   20 H20      -0.5459     1.8868    -0.8726 H      1 <0>       0.0600
   21 H21      -0.5289     1.8773     0.9072 H      1 <0>       0.0700
   22 H22       0.5293    -0.3651     0.8851 H      1 <0>       0.0700
   23 H23      -1.0205    -0.3814     0.0098 H      1 <0>       0.0700
   24 H24       0.1910    -0.1364    -2.1398 H      1 <0>       0.0600
   25 H25       1.7408    -0.1202    -1.2645 H      1 <0>       0.0600
   26 H26       1.8664    -0.6782    -3.2665 H      1 <0>       0.1400
   27 H27       2.9617    -1.7462    -5.1856 H      1 <0>       0.1400
   28 H28       3.7674    -6.8779    -6.5548 H      1 <0>       0.4400
   29 H29       3.5485   -10.6561    -4.3257 H      1 <0>       0.0700
   30 H30       2.0002   -10.6652    -5.2038 H      1 <0>       0.0700
   31 H31       3.4511   -11.3762    -5.9506 H      1 <0>       0.1100
   32 H32       1.9383    -6.6295    -3.3340 H      1 <0>       0.4400
   33 H33       0.9577    -4.5086    -1.6035 H      1 <0>       0.1300
@<TRIPOS>BOND
   1    1    2 1
   2    1   19 1
   3    1   20 1
   4    1   21 1
   5    2    3 1
   6    2   22 1
   7    2   23 1
   8    3    4 1
   9    3   24 1
  10    3   25 1
  11    4    5 1
  12    5   18 ar
  13    5    6 ar
  14    6    7 ar
  15    6   26 1
  16    7    8 ar
  17    7   27 1
  18    8   17 ar
  19    8    9 1
  20    9   10 2
  21   10   11 1
  22   10   16 1
  23   11   12 am
  24   11   28 1
  25   12   13 2
  26   12   14 1
  27   14   15 1
  28   15   29 1
  29   15   30 1
  30   15   31 1
  31   16   17 1
  32   16   32 1
  33   17   18 ar
  34   18   33 1
