@<TRIPOS>MOLECULE
ZINC000117196038
47    49    1     0     0
SMALL
USER_CHARGES
@<TRIPOS>ATOM
1      C1     -0.0187    1.5258    0.0104 C.3      1 ZINC000117196038   -0.1800
2      C2      0.0021   -0.0041    0.0020 C.3      1 ZINC000117196038    0.1900
3      H3      0.5123   -0.3556   -0.8948 H        1 ZINC000117196038    0.1200
4      O4      0.6932   -0.4774    1.1597 O.3      1 ZINC000117196038   -0.5500
5      C5     -1.4117   -0.5257    0.0127 C.2      1 ZINC000117196038   -0.0100
6      N6     -2.3379   -0.2234    0.8864 N.2      1 ZINC000117196038   -0.2500
7      N7     -3.4366   -0.8330    0.6199 N.pl3    1 ZINC000117196038   -0.3700
8      C8     -3.2748   -1.6024   -0.4972 C.2      1 ZINC000117196038   -0.0400
9      C9     -4.2891   -2.4561   -1.1361 C.2      1 ZINC000117196038    0.6000
10     O10    -4.0076   -3.0918   -2.1342 O.2      1 ZINC000117196038   -0.5200
11     N11    -5.5297   -2.5336   -0.6154 N.am     1 ZINC000117196038   -0.7100
12     C12    -6.5394   -3.3834   -1.2515 C.3      1 ZINC000117196038    0.1300
13     H13    -6.3995   -3.3670   -2.3323 H        1 ZINC000117196038    0.1000
14     C14    -6.3939   -4.8181   -0.7401 C.3      1 ZINC000117196038   -0.1700
15     C15    -7.9357   -2.8594   -0.9099 C.3      1 ZINC000117196038    0.1200
16     N16    -8.1174   -1.5319   -1.5024 N.pl3    1 ZINC000117196038   -0.3700
17     C17    -9.1223   -1.1624   -2.3257 C.2      1 ZINC000117196038    0.0600
18     C18    -8.9371    0.1345   -2.6542 C.2      1 ZINC000117196038   -0.2500
19     C19    -7.7690    0.5818   -2.0055 C.2      1 ZINC000117196038    0.1000
20     C20    -7.1930    1.9457   -2.0879 C.ar     1 ZINC000117196038    0.0300
21     C21    -7.8232    2.9227   -2.8591 C.ar     1 ZINC000117196038   -0.0900
22     C22    -7.2903    4.1893   -2.9375 C.ar     1 ZINC000117196038   -0.0600
23     C23    -6.1169    4.4975   -2.2435 C.ar     1 ZINC000117196038   -0.0100
24     C24    -5.5616    5.8150   -2.3237 C.1      1 ZINC000117196038    0.2400
25     N25    -5.1210    6.8602   -2.3874 N.1      1 ZINC000117196038   -0.3900
26     C26    -5.4858    3.5173   -1.4698 C.ar     1 ZINC000117196038    0.0000
27     Cl27   -4.0282    3.8968   -0.6067 Cl       1 ZINC000117196038   -0.0400
28     C28    -6.0251    2.2519   -1.3896 C.ar     1 ZINC000117196038   -0.0900
29     N29    -7.2826   -0.4240   -1.3083 N.2      1 ZINC000117196038   -0.2700
30     C30    -1.9679   -1.4129   -0.9116 C.2      1 ZINC000117196038   -0.1400
31     H31     1.0039    1.9031    0.0027 H        1 ZINC000117196038    0.0700
32     H32    -0.5459    1.8868   -0.8726 H        1 ZINC000117196038    0.0700
33     H33    -0.5289    1.8773    0.9072 H        1 ZINC000117196038    0.0600
34     H34     0.2938   -0.2021    1.9962 H        1 ZINC000117196038    0.3800
35     H35    -4.2561   -0.7584    1.1334 H        1 ZINC000117196038    0.4400
36     H36    -5.7542   -2.0266    0.1806 H        1 ZINC000117196038    0.4000
37     H37    -6.5338   -4.8345    0.3407 H        1 ZINC000117196038    0.0600
38     H38    -7.1451   -5.4504   -1.2134 H        1 ZINC000117196038    0.0700
39     H39    -5.3992   -5.1914   -0.9835 H        1 ZINC000117196038    0.0700
40     H40    -8.6871   -3.5410   -1.3083 H        1 ZINC000117196038    0.1200
41     H41    -8.0437   -2.7920    0.1726 H        1 ZINC000117196038    0.0900
42     H42    -9.9317   -1.7932   -2.6624 H        1 ZINC000117196038    0.1800
43     H43    -9.5715    0.7238   -3.2997 H        1 ZINC000117196038    0.1500
44     H44    -8.7299    2.6848   -3.3955 H        1 ZINC000117196038    0.1500
45     H45    -7.7785    4.9447   -3.5353 H        1 ZINC000117196038    0.1500
46     H46    -5.5389    1.4947   -0.7925 H        1 ZINC000117196038    0.1400
47     H47    -1.4800   -1.8609   -1.7646 H        1 ZINC000117196038    0.1700
@<TRIPOS>BOND
1     1     2     1
2     1     31    1
3     1     32    1
4     1     33    1
5     2     3     1
6     2     4     1
7     2     5     1
8     4     34    1
9     5     30    1
10    5     6     2
11    6     7     1
12    7     8     1
13    7     35    1
14    8     9     1
15    8     30    2
16    9     10    2
17    9     11    am
18    11    12    1
19    11    36    1
20    12    13    1
21    12    14    1
22    12    15    1
23    14    37    1
24    14    38    1
25    14    39    1
26    15    16    1
27    15    40    1
28    15    41    1
29    16    29    1
30    16    17    1
31    17    18    2
32    17    42    1
33    18    19    1
34    18    43    1
35    19    20    1
36    19    29    2
37    20    28    ar
38    20    21    ar
39    21    22    ar
40    21    44    1
41    22    23    ar
42    22    45    1
43    23    24    1
44    23    26    ar
45    24    25    3
46    26    27    1
47    26    28    ar
48    28    46    1
49    30    47    1
@<TRIPOS>SUBSTRUCTURE
1   ZINC000117196038 1     RESIDUE    1   A     ZIN   1
