@<TRIPOS>MOLECULE
ZINC000000390492
35    36    1     0     0
SMALL
USER_CHARGES
@<TRIPOS>ATOM
1      C1     -0.0187    1.5258    0.0104 C.3      1 ZINC000000390492   -0.1300
2      C2      0.0021   -0.0041    0.0020 C.3      1 ZINC000000390492   -0.1500
3      H3      0.5293   -0.3651    0.8851 H        1 ZINC000000390492    0.0700
4      C4      0.7182   -0.4975   -1.2568 C.3      1 ZINC000000390492   -0.1300
5      C5      2.1652   -0.0794   -1.2080 C.2      1 ZINC000000390492    0.3900
6      O6      2.5827    0.5511   -0.2597 O.2      1 ZINC000000390492   -0.4500
7      C7      3.0704   -0.4357   -2.3092 C.ar     1 ZINC000000390492   -0.1500
8      C8      2.5883   -1.1587   -3.4073 C.ar     1 ZINC000000390492   -0.0700
9      C9      3.4315   -1.4888   -4.4298 C.ar     1 ZINC000000390492   -0.1100
10     C10     4.7733   -1.1063   -4.3806 C.ar     1 ZINC000000390492   -0.0400
11     C11     5.6860   -1.4656   -5.4908 C.ar     1 ZINC000000390492   -0.0900
12     C12     5.7379   -2.7787   -5.9569 C.ar     1 ZINC000000390492   -0.0500
13     C13     6.5887   -3.1085   -6.9911 C.ar     1 ZINC000000390492   -0.1600
14     C14     7.3926   -2.1379   -7.5680 C.ar     1 ZINC000000390492    0.1300
15     F15     8.2243   -2.4674   -8.5804 F        1 ZINC000000390492   -0.1300
16     C16     7.3461   -0.8311   -7.1105 C.ar     1 ZINC000000390492   -0.1900
17     C17     6.4936   -0.4886   -6.0786 C.ar     1 ZINC000000390492    0.1400
18     F18     6.4481    0.7858   -5.6324 F        1 ZINC000000390492   -0.1200
19     C19     5.2563   -0.3854   -3.2868 C.ar     1 ZINC000000390492   -0.1100
20     C20     4.4152   -0.0477   -2.2650 C.ar     1 ZINC000000390492   -0.0600
21     C21    -1.4117   -0.5257    0.0127 C.2      1 ZINC000000390492    0.5000
22     O22    -1.8097   -1.2271   -0.9017 O.co2    1 ZINC000000390492   -0.7000
23     O23    -2.1576   -0.2463    0.9358 O.co2    1 ZINC000000390492   -0.7000
24     H24     1.0039    1.9031    0.0027 H        1 ZINC000000390492    0.0500
25     H25    -0.5459    1.8868   -0.8726 H        1 ZINC000000390492    0.0400
26     H26    -0.5289    1.8773    0.9072 H        1 ZINC000000390492    0.0500
27     H27     0.6556   -1.5845   -1.3079 H        1 ZINC000000390492    0.1000
28     H28     0.2444   -0.0644   -2.1377 H        1 ZINC000000390492    0.1000
29     H29     1.5505   -1.4554   -3.4454 H        1 ZINC000000390492    0.1400
30     H30     3.0600   -2.0465   -5.2768 H        1 ZINC000000390492    0.1300
31     H31     5.1128   -3.5367   -5.5083 H        1 ZINC000000390492    0.1500
32     H32     6.6289   -4.1256   -7.3521 H        1 ZINC000000390492    0.1500
33     H33     7.9743   -0.0784   -7.5635 H        1 ZINC000000390492    0.1500
34     H34     6.2946   -0.0906   -3.2508 H        1 ZINC000000390492    0.1300
35     H35     4.7892    0.5103   -1.4192 H        1 ZINC000000390492    0.1400
@<TRIPOS>BOND
1     1     2     1
2     1     24    1
3     1     25    1
4     1     26    1
5     2     3     1
6     2     4     1
7     2     21    1
8     4     5     1
9     4     27    1
10    4     28    1
11    5     6     2
12    5     7     1
13    7     20    ar
14    7     8     ar
15    8     9     ar
16    8     29    1
17    9     10    ar
18    9     30    1
19    10    11    1
20    10    19    ar
21    11    17    ar
22    11    12    ar
23    12    13    ar
24    12    31    1
25    13    14    ar
26    13    32    1
27    14    15    1
28    14    16    ar
29    16    17    ar
30    16    33    1
31    17    18    1
32    19    20    ar
33    19    34    1
34    20    35    1
35    21    22    ar
36    21    23    ar
@<TRIPOS>SUBSTRUCTURE
1   ZINC000000390492 1     RESIDUE    1   A     ZIN   1
