@<TRIPOS>MOLECULE
ZINC000028866069
27    29    1     0     0
SMALL
USER_CHARGES
@<TRIPOS>ATOM
1      Cl1     2.2457    3.6832   -1.9899 Cl       1 ZINC000028866069   -0.0200
2      C2      0.9655    3.3537   -0.8646 C.ar     1 ZINC000028866069   -0.0700
3      C3     -0.1950    4.1106   -0.8816 C.ar     1 ZINC000028866069   -0.0900
4      C4     -1.1953    3.8092    0.0400 C.ar     1 ZINC000028866069    0.0200
5      N5     -2.3841    4.5442    0.0615 N.3      1 ZINC000028866069   -0.4600
6      C6     -3.1331    4.3820   -1.2104 C.3      1 ZINC000028866069    0.0300
7      C7     -4.0770    5.6076   -1.2294 C.3      1 ZINC000028866069   -0.1300
8      H8     -5.0641    5.4469   -0.7960 H        1 ZINC000028866069    0.1600
9      C9     -4.0253    6.3942   -2.5483 C.3      1 ZINC000028866069    0.0200
10     N10    -2.7965    7.0276   -2.0262 N.4      1 ZINC000028866069   -0.5500
11     H11    -1.9571    6.5418   -2.3042 H        1 ZINC000028866069    0.4300
12     H12    -2.7526    8.0166   -2.2212 H        1 ZINC000028866069    0.4300
13     C13    -3.2007    6.7302   -0.6117 C.3      1 ZINC000028866069    0.0400
14     H14    -3.7150    7.5291   -0.0775 H        1 ZINC000028866069    0.1900
15     C15    -2.1099    5.9918    0.1860 C.3      1 ZINC000028866069    0.0200
16     C16    -0.9949    2.7682    0.9365 C.ar     1 ZINC000028866069    0.1700
17     N17     0.1246    2.0716    0.9200 N.ar     1 ZINC000028866069   -0.4400
18     C18     1.0895    2.3271    0.0574 C.ar     1 ZINC000028866069    0.1900
19     Cl19    2.5394    1.3728    0.0868 Cl       1 ZINC000028866069    0.0200
20     H20    -0.3209    4.9146   -1.5916 H        1 ZINC000028866069    0.1400
21     H21    -2.4535    4.4073   -2.0623 H        1 ZINC000028866069    0.0600
22     H22    -3.7069    3.4553   -1.2029 H        1 ZINC000028866069    0.1200
23     H23    -3.8564    5.7683   -3.4246 H        1 ZINC000028866069    0.1400
24     H24    -4.8554    7.0891   -2.6760 H        1 ZINC000028866069    0.1600
25     H25    -2.1432    6.2982    1.2316 H        1 ZINC000028866069    0.1400
26     H26    -1.1291    6.2105   -0.2363 H        1 ZINC000028866069    0.0800
27     H27    -1.7639    2.5266    1.6553 H        1 ZINC000028866069    0.1900
@<TRIPOS>BOND
1     1     2     1
2     2     18    ar
3     2     3     ar
4     3     4     ar
5     3     20    1
6     4     5     1
7     4     16    ar
8     5     15    1
9     5     6     1
10    6     7     1
11    6     21    1
12    6     22    1
13    7     8     1
14    7     13    1
15    7     9     1
16    9     10    1
17    9     23    1
18    9     24    1
19    10    11    1
20    10    12    1
21    10    13    1
22    13    14    1
23    13    15    1
24    15    25    1
25    15    26    1
26    16    17    ar
27    16    27    1
28    17    18    ar
29    18    19    1
@<TRIPOS>SUBSTRUCTURE
1   ZINC000028866069 1     RESIDUE    1   A     ZIN   1
