@<TRIPOS>MOLECULE
ZINC000022063703
  42   43    0    0    0
SMALL
USER_CHARGES
NO_NAME
@<TRIPOS>ATOM
    1 C1       -0.0187     1.5258     0.0104 C.3    1 <0>      -0.1500
    2 C2        0.0021    -0.0041     0.0020 C.3    1 <0>      -0.1300
    3 C3        0.7182    -0.4975    -1.2568 C.3    1 <0>       0.0500
    4 N4        0.7381    -1.9663    -1.2649 N.3    1 <0>      -0.5400
    5 C5        1.1309    -2.4945     0.0478 C.3    1 <0>       0.0500
    6 C6        1.0004    -4.0193     0.0455 C.3    1 <0>      -0.1100
    7 C7        1.8984    -4.6019    -1.0494 C.3    1 <0>      -0.0500
    8 C8        1.7289    -6.0986    -1.0965 C.ar   1 <0>      -0.0900
    9 C9        0.4880    -6.6454    -1.3639 C.ar   1 <0>      -0.0600
   10 C10       0.3325    -8.0185    -1.4071 C.ar   1 <0>      -0.1400
   11 C11       1.4179    -8.8443    -1.1832 C.ar   1 <0>      -0.0300
   12 C12       2.6594    -8.2973    -0.9166 C.ar   1 <0>      -0.6600
   13 S13       4.0430    -9.3501    -0.6306 S.o2   1 <0>       2.5000
   14 C14       4.7624    -9.6089    -2.2756 C.3    1 <0>      -0.6500
   15 O15       4.9145    -8.5717     0.1779 O.2    1 <0>      -0.9400
   16 O16       3.4711   -10.5554    -0.1413 O.2    1 <0>      -0.9400
   17 C17       2.8158    -6.9246    -0.8776 C.ar   1 <0>      -0.0200
   18 C18       1.5003    -3.9991    -2.3995 C.3    1 <0>      -0.1100
   19 C19       1.6163    -2.4749    -2.3262 C.3    1 <0>       0.0600
   20 H20       1.0039     1.9031     0.0027 H      1 <0>       0.0500
   21 H21      -0.5459     1.8868    -0.8726 H      1 <0>       0.0600
   22 H22      -0.5289     1.8773     0.9072 H      1 <0>       0.0600
   23 H23       0.5293    -0.3651     0.8851 H      1 <0>       0.0600
   24 H24      -1.0205    -0.3814     0.0098 H      1 <0>       0.0700
   25 H25       0.1910    -0.1364    -2.1398 H      1 <0>       0.0800
   26 H26       1.7408    -0.1202    -1.2645 H      1 <0>       0.0300
   27 H27       2.1647    -2.2188     0.2557 H      1 <0>       0.0300
   28 H28       0.4818    -2.0757     0.8168 H      1 <0>       0.0800
   29 H29       1.3068    -4.4123     1.0149 H      1 <0>       0.0700
   30 H30      -0.0360    -4.2956    -0.1487 H      1 <0>       0.0700
   31 H31       2.9391    -4.3598    -0.8340 H      1 <0>       0.0800
   32 H32      -0.3601    -6.0001    -1.5389 H      1 <0>       0.1300
   33 H33      -0.6373    -8.4458    -1.6154 H      1 <0>       0.1300
   34 H34       1.2963    -9.9170    -1.2162 H      1 <0>       0.1400
   35 H35       5.0616    -8.6490    -2.6965 H      1 <0>       0.1300
   36 H36       5.6349   -10.2571    -2.1928 H      1 <0>       0.1300
   37 H37       4.0231   -10.0762    -2.9261 H      1 <0>       0.1300
   38 H38       3.7855    -6.4973    -0.6694 H      1 <0>       0.1400
   39 H39       2.1640    -4.3776    -3.1769 H      1 <0>       0.0700
   40 H40       0.4718    -4.2750    -2.6321 H      1 <0>       0.0700
   41 H41       1.3199    -2.0418    -3.2815 H      1 <0>       0.0800
   42 H42       2.6479    -2.1993    -2.1072 H      1 <0>       0.0300
@<TRIPOS>BOND
   1    1    2 1
   2    1   20 1
   3    1   21 1
   4    1   22 1
   5    2    3 1
   6    2   23 1
   7    2   24 1
   8    3    4 1
   9    3   25 1
  10    3   26 1
  11    4   19 1
  12    4    5 1
  13    5    6 1
  14    5   27 1
  15    5   28 1
  16    6    7 1
  17    6   29 1
  18    6   30 1
  19    7    8 1
  20    7   18 1
  21    7   31 1
  22    8   17 ar
  23    8    9 ar
  24    9   10 ar
  25    9   32 1
  26   10   11 ar
  27   10   33 1
  28   11   12 ar
  29   11   34 1
  30   12   13 1
  31   12   17 ar
  32   13   14 1
  33   13   15 2
  34   13   16 2
  35   14   35 1
  36   14   36 1
  37   14   37 1
  38   17   38 1
  39   18   19 1
  40   18   39 1
  41   18   40 1
  42   19   41 1
  43   19   42 1
