@<TRIPOS>MOLECULE
ZINC000001842518
  33   36    0    0    0
SMALL
USER_CHARGES
NO_NAME
@<TRIPOS>ATOM
    1 F1        0.0021    -0.0041     0.0020 F      1 <0>      -0.1400
    2 C2       -0.0162     1.3468     0.0094 C.ar   1 <0>       0.1100
    3 C3       -1.2267     2.0209     0.0304 C.ar   1 <0>      -0.1500
    4 C4       -1.2507     3.4001     0.0380 C.ar   1 <0>      -0.0600
    5 C5       -0.0538     4.1161     0.0247 C.ar   1 <0>      -0.0200
    6 C6       -0.0739     5.5973     0.0333 C.2    1 <0>       0.1000
    7 C7        0.8382     6.4190     0.6581 C.2    1 <0>       0.0400
    8 C8        2.0133     5.9962     1.4403 C.ar   1 <0>       0.0300
    9 C9        3.2580     6.6183     1.2654 C.ar   1 <0>      -0.1700
   10 C10       4.3296     6.1904     2.0183 C.ar   1 <0>       0.1100
   11 N11       4.1960     5.2107     2.8932 N.ar   1 <0>      -0.4800
   12 C12       3.0432     4.5977     3.0898 C.ar   1 <0>       0.1100
   13 C13       1.9174     4.9640     2.3851 C.ar   1 <0>      -0.1500
   14 N14       0.4304     7.7368     0.4039 N.pl3  1 <0>      -0.4700
   15 C15       0.9042     9.0757     0.7421 C.3    1 <0>       0.0900
   16 C16       0.0146    10.1742     0.1612 C.3    1 <0>      -0.1200
   17 S17      -1.2885     9.2703    -0.7274 S.3    1 <0>       0.0200
   18 C18      -0.6869     7.6493    -0.3477 C.2    1 <0>       0.2100
   19 N19      -0.9810     6.3809    -0.5712 N.2    1 <0>      -0.4400
   20 C20       1.1621     3.4330     0.0036 C.ar   1 <0>      -0.0700
   21 C21       1.1756     2.0536     0.0019 C.ar   1 <0>      -0.1500
   22 H22      -2.1530     1.4655     0.0404 H      1 <0>       0.1400
   23 H23      -2.1947     3.9246     0.0540 H      1 <0>       0.1400
   24 H24       3.3748     7.4201     0.5513 H      1 <0>       0.1300
   25 H25       5.2924     6.6628     1.8907 H      1 <0>       0.1600
   26 H26       2.9808     3.8011     3.8163 H      1 <0>       0.1600
   27 H27       0.9777     4.4584     2.5514 H      1 <0>       0.1400
   28 H28       0.9283     9.1780     1.8270 H      1 <0>       0.1100
   29 H29       1.9160     9.2000     0.3562 H      1 <0>       0.1100
   30 H30      -0.4166    10.7779     0.9597 H      1 <0>       0.1300
   31 H31       0.5821    10.8002    -0.5275 H      1 <0>       0.1300
   32 H32       2.0914     3.9831    -0.0071 H      1 <0>       0.1300
   33 H33       2.1165     1.5237    -0.0141 H      1 <0>       0.1400
@<TRIPOS>BOND
   1    1    2 1
   2    2   21 ar
   3    2    3 ar
   4    3    4 ar
   5    3   22 1
   6    4    5 ar
   7    4   23 1
   8    5    6 1
   9    5   20 ar
  10    6   19 1
  11    6    7 2
  12    7    8 1
  13    7   14 1
  14    8   13 ar
  15    8    9 ar
  16    9   10 ar
  17    9   24 1
  18   10   11 ar
  19   10   25 1
  20   11   12 ar
  21   12   13 ar
  22   12   26 1
  23   13   27 1
  24   14   18 1
  25   14   15 1
  26   15   16 1
  27   15   28 1
  28   15   29 1
  29   16   17 1
  30   16   30 1
  31   16   31 1
  32   17   18 1
  33   18   19 2
  34   20   21 ar
  35   20   32 1
  36   21   33 1
