@<TRIPOS>MOLECULE
ZINC000002016093
38    40    1     0     0
SMALL
USER_CHARGES
@<TRIPOS>ATOM
1      C1     -0.1769    1.2088   -0.1636 C.3      1 ZINC000002016093   -0.1400
2      C2     -0.3978   -0.3003   -0.0417 C.3      1 ZINC000002016093    0.0500
3      N3      0.3775   -0.8176    1.0886 N.2      1 ZINC000002016093   -0.5400
4      C4     -0.2340   -1.3197    2.1214 C.2      1 ZINC000002016093    0.5400
5      N5     -1.6172   -1.3900    2.1915 N.pl3    1 ZINC000002016093   -0.7100
6      C6     -2.2006   -1.1772    3.4510 C.ar     1 ZINC000002016093    0.2000
7      C7     -3.5758   -1.0436    3.5685 C.ar     1 ZINC000002016093   -0.1500
8      C8     -4.1429   -0.8433    4.8128 C.ar     1 ZINC000002016093   -0.0600
9      C9     -3.3382   -0.7773    5.9364 C.ar     1 ZINC000002016093   -0.0700
10     Cl10   -4.0533   -0.5315    7.4990 Cl       1 ZINC000002016093   -0.0600
11     C11    -1.9656   -0.9070    5.8191 C.ar     1 ZINC000002016093   -0.0500
12     C12    -1.3916   -1.1031    4.5772 C.ar     1 ZINC000002016093   -0.1600
13     C13     0.1057   -1.2224    4.4558 C.3      1 ZINC000002016093    0.2200
14     C14     0.7364    0.1677    4.5598 C.3      1 ZINC000002016093   -0.1700
15     C15     0.6301   -2.0943    5.5675 C.ar     1 ZINC000002016093   -0.0800
16     C16     0.8927   -3.4310    5.3322 C.ar     1 ZINC000002016093   -0.0900
17     C17     1.3736   -4.2308    6.3520 C.ar     1 ZINC000002016093   -0.1200
18     C18     1.5924   -3.6938    7.6069 C.ar     1 ZINC000002016093   -0.1100
19     C19     1.3306   -2.3570    7.8419 C.ar     1 ZINC000002016093   -0.1200
20     C20     0.8537   -1.5562    6.8210 C.ar     1 ZINC000002016093   -0.1100
21     O21     0.4478   -1.8111    3.1924 O.3      1 ZINC000002016093   -0.2900
22     H22     0.8820    1.4088   -0.3274 H        1 ZINC000002016093    0.0700
23     H23    -0.7537    1.5937   -1.0045 H        1 ZINC000002016093    0.0700
24     H24    -0.5014    1.6988    0.7543 H        1 ZINC000002016093    0.0500
25     H25    -1.4567   -0.5004    0.1222 H        1 ZINC000002016093    0.0400
26     H26    -0.0733   -0.7903   -0.9596 H        1 ZINC000002016093    0.0900
27     H27    -2.1565   -1.5772    1.4072 H        1 ZINC000002016093    0.4200
28     H28    -4.2020   -1.0963    2.6902 H        1 ZINC000002016093    0.1400
29     H29    -5.2136   -0.7380    4.9080 H        1 ZINC000002016093    0.1400
30     H30    -1.3418   -0.8545    6.6992 H        1 ZINC000002016093    0.1400
31     H31     0.4834    0.6102    5.5233 H        1 ZINC000002016093    0.0800
32     H32     1.8195    0.0828    4.4722 H        1 ZINC000002016093    0.0800
33     H33     0.3555    0.8004    3.7582 H        1 ZINC000002016093    0.0700
34     H34     0.7218   -3.8504    4.3518 H        1 ZINC000002016093    0.1300
35     H35     1.5781   -5.2752    6.1684 H        1 ZINC000002016093    0.1300
36     H36     1.9675   -4.3189    8.4038 H        1 ZINC000002016093    0.1300
37     H37     1.5012   -1.9376    8.8224 H        1 ZINC000002016093    0.1300
38     H38     0.6492   -0.5118    7.0046 H        1 ZINC000002016093    0.1300
@<TRIPOS>BOND
1     1     2     1
2     1     22    1
3     1     23    1
4     1     24    1
5     2     3     1
6     2     25    1
7     2     26    1
8     3     4     2
9     4     21    1
10    4     5     1
11    5     6     1
12    5     27    1
13    6     12    ar
14    6     7     ar
15    7     8     ar
16    7     28    1
17    8     9     ar
18    8     29    1
19    9     10    1
20    9     11    ar
21    11    12    ar
22    11    30    1
23    12    13    1
24    13    14    1
25    13    15    1
26    13    21    1
27    14    31    1
28    14    32    1
29    14    33    1
30    15    20    ar
31    15    16    ar
32    16    17    ar
33    16    34    1
34    17    18    ar
35    17    35    1
36    18    19    ar
37    18    36    1
38    19    20    ar
39    19    37    1
40    20    38    1
@<TRIPOS>SUBSTRUCTURE
1   ZINC000002016093 1     RESIDUE    1   A     ZIN   1
