@<TRIPOS>MOLECULE
ZINC000000002274
  49   50    0    0    0
SMALL
USER_CHARGES
NO_NAME
@<TRIPOS>ATOM
    1 C1       -0.0187     1.5258     0.0104 C.3    1 <0>      -0.1500
    2 C2        0.0021    -0.0041     0.0020 C.3    1 <0>      -0.0200
    3 C3        0.7421    -0.5109     1.2415 C.3    1 <0>      -0.1400
    4 C4       -1.4333    -0.5336     0.0129 C.3    1 <0>      -0.1400
    5 C5        0.7074    -0.4901    -1.2379 C.ar   1 <0>      -0.0900
    6 C6        1.2168     0.4191    -2.1447 C.ar   1 <0>      -0.0900
    7 C7        1.8645    -0.0262    -3.2822 C.ar   1 <0>      -0.1000
    8 C8        2.4195     0.9679    -4.2696 C.3    1 <0>      -0.0600
    9 C9        3.8620     1.3107    -3.8919 C.3    1 <0>      -0.0600
   10 H10       4.4639     0.4062    -3.8048 H      1 <0>       0.1400
   11 S11       3.9165     2.2853    -2.3347 S.3    1 <0>      -0.2300
   12 C12       4.0188     3.9053    -3.1948 C.3    1 <0>       0.1400
   13 N13       4.5367     3.5456    -4.5229 N.am   1 <0>      -0.7200
   14 C14       4.4698     2.2684    -4.8971 C.2    1 <0>       0.5200
   15 O15       4.8710     1.8978    -5.9800 O.2    1 <0>      -0.5100
   16 C16       2.0041    -1.3819    -3.5152 C.ar   1 <0>      -0.1000
   17 C17       1.4966    -2.2951    -2.6114 C.ar   1 <0>      -0.0900
   18 C18       1.6492    -3.7726    -2.8660 C.3    1 <0>      -0.0200
   19 C19       2.3973    -3.9886    -4.1829 C.3    1 <0>      -0.1500
   20 C20       2.4391    -4.4086    -1.7204 C.3    1 <0>      -0.1400
   21 C21       0.2659    -4.4206    -2.9530 C.3    1 <0>      -0.1400
   22 C22       0.8509    -1.8508    -1.4667 C.ar   1 <0>       0.1200
   23 O23       0.3508    -2.7472    -0.5760 O.3    1 <0>      -0.4900
   24 H24       1.0039     1.9031     0.0027 H      1 <0>       0.0600
   25 H25      -0.5459     1.8868    -0.8726 H      1 <0>       0.0600
   26 H26      -0.5289     1.8773     0.9072 H      1 <0>       0.0600
   27 H27       0.2319    -0.1594     2.1383 H      1 <0>       0.0600
   28 H28       0.7568    -1.6008     1.2356 H      1 <0>       0.0600
   29 H29       1.7647    -0.1336     1.2338 H      1 <0>       0.0500
   30 H30      -1.9605    -0.1726    -0.8702 H      1 <0>       0.0500
   31 H31      -1.4185    -1.6235     0.0069 H      1 <0>       0.0700
   32 H32      -1.9435    -0.1821     0.9097 H      1 <0>       0.0500
   33 H33       1.1086     1.4786    -1.9652 H      1 <0>       0.1400
   34 H34       2.3988     0.5363    -5.2703 H      1 <0>       0.0900
   35 H35       1.8142     1.8741    -4.2521 H      1 <0>       0.0800
   36 H36       3.0319     4.3608    -3.2767 H      1 <0>       0.1000
   37 H37       4.7102     4.5719    -2.6794 H      1 <0>       0.1200
   38 H38       4.9165     4.2177    -5.1101 H      1 <0>       0.4200
   39 H39       2.5101    -1.7272    -4.4046 H      1 <0>       0.1300
   40 H40       3.3828    -3.5270    -4.1209 H      1 <0>       0.0600
   41 H41       2.5077    -5.0573    -4.3670 H      1 <0>       0.0600
   42 H42       1.8346    -3.5356    -4.9991 H      1 <0>       0.0600
   43 H43       1.9061    -4.2546    -0.7821 H      1 <0>       0.0600
   44 H44       2.5495    -5.4772    -1.9045 H      1 <0>       0.0600
   45 H45       3.4246    -3.9469    -1.6583 H      1 <0>       0.0500
   46 H46      -0.2969    -3.9675    -3.7691 H      1 <0>       0.0500
   47 H47       0.3763    -5.4893    -3.1371 H      1 <0>       0.0500
   48 H48      -0.2671    -4.2667    -2.0147 H      1 <0>       0.0700
   49 H49       0.9757    -3.0053     0.1153 H      1 <0>       0.3800
@<TRIPOS>BOND
   1    1    2 1
   2    1   24 1
   3    1   25 1
   4    1   26 1
   5    2    3 1
   6    2    4 1
   7    2    5 1
   8    3   27 1
   9    3   28 1
  10    3   29 1
  11    4   30 1
  12    4   31 1
  13    4   32 1
  14    5   22 ar
  15    5    6 ar
  16    6    7 ar
  17    6   33 1
  18    7    8 1
  19    7   16 ar
  20    8    9 1
  21    8   34 1
  22    8   35 1
  23    9   10 1
  24    9   14 1
  25    9   11 1
  26   11   12 1
  27   12   13 1
  28   12   36 1
  29   12   37 1
  30   13   14 am
  31   13   38 1
  32   14   15 2
  33   16   17 ar
  34   16   39 1
  35   17   18 1
  36   17   22 ar
  37   18   19 1
  38   18   20 1
  39   18   21 1
  40   19   40 1
  41   19   41 1
  42   19   42 1
  43   20   43 1
  44   20   44 1
  45   20   45 1
  46   21   46 1
  47   21   47 1
  48   21   48 1
  49   22   23 1
  50   23   49 1
