@<TRIPOS>MOLECULE
ZINC000003804057
  46   48    0    0    0
SMALL
USER_CHARGES
NO_NAME
@<TRIPOS>ATOM
    1 N1       -0.0162     1.3436     0.0094 N.am   1 <0>      -0.8500
    2 C2        0.0021    -0.0041     0.0020 C.2    1 <0>       0.5100
    3 O3        1.0605    -0.5961    -0.0113 O.2    1 <0>      -0.5300
    4 C4       -1.2926    -0.7753     0.0102 C.3    1 <0>       0.1200
    5 H5       -1.8872    -0.5105    -0.8641 H      1 <0>       0.1100
    6 C6       -2.0832    -0.4599     1.2975 C.3    1 <0>      -0.1300
    7 C7       -2.6970    -1.8343     1.6738 C.3    1 <0>      -0.1300
    8 C8       -1.5701    -2.8064     1.2441 C.3    1 <0>       0.0900
    9 N9       -1.0147    -2.2190     0.0074 N.am   1 <0>      -0.6000
   10 C10      -0.3616    -2.8947    -0.9587 C.2    1 <0>       0.5300
   11 O11       0.0526    -2.3072    -1.9355 O.2    1 <0>      -0.5000
   12 C12      -0.1462    -4.3802    -0.8252 C.3    1 <0>       0.1400
   13 H13      -1.1111    -4.8827    -0.7587 H      1 <0>       0.1300
   14 C14       0.6660    -4.6662     0.4394 C.3    1 <0>      -0.0800
   15 C15       0.7768    -6.1557     0.6392 C.2    1 <0>       0.0400
   16 C16      -0.1309    -6.9422     1.2485 C.2    1 <0>       0.0500
   17 N17       0.3623    -8.2185     1.2110 N.pl3  1 <0>      -0.5000
   18 C18       1.5550    -8.1676     0.5798 C.cat  1 <0>       0.3100
   19 N19       1.7941    -6.9315     0.2362 N.pl3  1 <0>      -0.4700
   20 H20       2.5852    -6.6218    -0.2319 H      1 <0>       0.4600
   21 N21       0.5824    -4.8751    -1.9959 N.am   1 <0>      -0.7100
   22 C22       0.4642    -6.1652    -2.3674 C.2    1 <0>       0.5100
   23 O23      -0.2454    -6.9165    -1.7326 O.2    1 <0>      -0.5300
   24 C24       1.2137    -6.6743    -3.5716 C.3    1 <0>       0.1000
   25 H25       2.2696    -6.4048    -3.5485 H      1 <0>       0.1300
   26 C26       0.5340    -6.3188    -4.8941 C.3    1 <0>      -0.1600
   27 C27       0.3899    -7.8143    -4.9934 C.2    1 <0>       0.5200
   28 O28      -0.1040    -8.5249    -5.8431 O.2    1 <0>      -0.4900
   29 N29       0.9912    -8.0985    -3.8252 N.am   1 <0>      -0.7200
   30 H30       0.8172     1.8399     0.0041 H      1 <0>       0.4100
   31 H31      -0.8627     1.8171     0.0160 H      1 <0>       0.4000
   32 H32      -1.4154    -0.1076     2.0837 H      1 <0>       0.0900
   33 H33      -2.8669     0.2713     1.0995 H      1 <0>       0.1000
   34 H34      -2.8814    -1.8995     2.7461 H      1 <0>       0.1000
   35 H35      -3.6108    -2.0217     1.1098 H      1 <0>       0.0900
   36 H36      -0.8030    -2.8630     2.0164 H      1 <0>       0.0800
   37 H37      -1.9795    -3.7961     1.0417 H      1 <0>       0.0800
   38 H38       1.6632    -4.2384     0.3353 H      1 <0>       0.1100
   39 H39       0.1674    -4.2203     1.3001 H      1 <0>       0.1300
   40 H40      -1.0677    -6.6264     1.6834 H      1 <0>       0.2200
   41 H41      -0.0652    -9.0115     1.5708 H      1 <0>       0.4700
   42 H42       2.2019    -9.0107     0.3874 H      1 <0>       0.2600
   43 H43       1.1499    -4.2742    -2.5036 H      1 <0>       0.4200
   44 H44      -0.4086    -5.7823    -4.7855 H      1 <0>       0.1300
   45 H45       1.1990    -5.8805    -5.6382 H      1 <0>       0.1400
   46 H46       1.1956    -8.9159    -3.3446 H      1 <0>       0.4200
@<TRIPOS>BOND
   1    1    2 am
   2    1   30 1
   3    1   31 1
   4    2    3 2
   5    2    4 1
   6    4    5 1
   7    4    9 1
   8    4    6 1
   9    6    7 1
  10    6   32 1
  11    6   33 1
  12    7    8 1
  13    7   34 1
  14    7   35 1
  15    8    9 1
  16    8   36 1
  17    8   37 1
  18    9   10 am
  19   10   11 2
  20   10   12 1
  21   12   13 1
  22   12   14 1
  23   12   21 1
  24   14   15 1
  25   14   38 1
  26   14   39 1
  27   15   19 1
  28   15   16 2
  29   16   17 1
  30   16   40 1
  31   17   18 ar
  32   17   41 1
  33   18   19 ar
  34   18   42 1
  35   19   20 1
  36   21   22 am
  37   21   43 1
  38   22   23 2
  39   22   24 1
  40   24   25 1
  41   24   29 1
  42   24   26 1
  43   26   27 1
  44   26   44 1
  45   26   45 1
  46   27   28 2
  47   27   29 am
  48   29   46 1
