@<TRIPOS>MOLECULE
ZINC000002504612
29    28    1     0     0
SMALL
USER_CHARGES
@<TRIPOS>ATOM
1      C1     -0.0187    1.5258    0.0104 C.3      1 ZINC000002504612   -0.1400
2      C2      0.0021   -0.0041    0.0020 C.3      1 ZINC000002504612    0.0700
3      H3     -1.0205   -0.3814    0.0098 H        1 ZINC000002504612    0.0900
4      N4      0.7126   -0.4907    1.1921 N.3      1 ZINC000002504612   -0.8200
5      C5      0.7074   -0.4901   -1.2379 C.2      1 ZINC000002504612    0.4800
6      O6      1.8643   -0.8489   -1.1761 O.2      1 ZINC000002504612   -0.5500
7      N7      0.0527   -0.5260   -2.4153 N.am     1 ZINC000002504612   -0.6900
8      C8      0.7384   -0.9985   -3.6207 C.3      1 ZINC000002504612    0.0700
9      H9      1.4313   -1.7968   -3.3551 H        1 ZINC000002504612    0.0800
10     C10    -0.2925   -1.5290   -4.6190 C.3      1 ZINC000002504612   -0.0900
11     C11    -0.9802   -2.7643   -4.0341 C.3      1 ZINC000002504612   -0.1400
12     C12    -1.9955   -3.2868   -5.0175 C.2      1 ZINC000002504612    0.5100
13     N13    -2.7280   -4.3769   -4.7147 N.am     1 ZINC000002504612   -0.8600
14     O14    -2.1536   -2.7264   -6.0814 O.2      1 ZINC000002504612   -0.5400
15     C15     1.5011    0.1419   -4.2443 C.2      1 ZINC000002504612    0.4900
16     O16     1.4743    1.2468   -3.7297 O.co2    1 ZINC000002504612   -0.6800
17     O17     2.1449   -0.0405   -5.2635 O.co2    1 ZINC000002504612   -0.7000
18     H18     1.0039    1.9031    0.0027 H        1 ZINC000002504612    0.0600
19     H19    -0.5459    1.8868   -0.8726 H        1 ZINC000002504612    0.0700
20     H20    -0.5289    1.8773    0.9072 H        1 ZINC000002504612    0.0700
21     H21     0.6843   -1.4980    1.2434 H        1 ZINC000002504612    0.3400
22     H22     1.6637   -0.1543    1.2082 H        1 ZINC000002504612    0.3500
23     H23    -0.8726   -0.2391   -2.4647 H        1 ZINC000002504612    0.3900
24     H24    -1.0371   -0.7580   -4.8167 H        1 ZINC000002504612    0.0700
25     H25     0.2077   -1.7980   -5.5494 H        1 ZINC000002504612    0.0900
26     H26    -0.2355   -3.5353   -3.8365 H        1 ZINC000002504612    0.0900
27     H27    -1.4804   -2.4953   -3.1038 H        1 ZINC000002504612    0.0900
28     H28    -2.6016   -4.8251   -3.8637 H        1 ZINC000002504612    0.4000
29     H29    -3.3815   -4.7133   -5.3476 H        1 ZINC000002504612    0.4000
@<TRIPOS>BOND
1     1     2     1
2     1     18    1
3     1     19    1
4     1     20    1
5     2     3     1
6     2     4     1
7     2     5     1
8     4     21    1
9     4     22    1
10    5     6     2
11    5     7     am
12    7     8     1
13    7     23    1
14    8     9     1
15    8     10    1
16    8     15    1
17    10    11    1
18    10    24    1
19    10    25    1
20    11    12    1
21    11    26    1
22    11    27    1
23    12    13    am
24    12    14    2
25    13    28    1
26    13    29    1
27    15    16    ar
28    15    17    ar
@<TRIPOS>SUBSTRUCTURE
1   ZINC000002504612 1     RESIDUE    1   A     ZIN   1
