@<TRIPOS>MOLECULE
ZINC000035308284
70    72    1     0     0
SMALL
USER_CHARGES
@<TRIPOS>ATOM
1      C1     -0.0160    1.3287    0.0093 C.2      1 ZINC000035308284   -0.1700
2      C2      0.0021   -0.0041    0.0020 C.2      1 ZINC000035308284   -0.1300
3      C3     -1.2458   -0.7957    0.0034 C.2      1 ZINC000035308284   -0.0800
4      C4     -2.2888   -0.4702    0.7946 C.2      1 ZINC000035308284   -0.1100
5      C5     -2.2010    0.6928    1.6807 C.2      1 ZINC000035308284   -0.1500
6      C6     -3.2315    1.0144    2.4625 C.2      1 ZINC000035308284   -0.0800
7      C7     -4.5289    0.2141    2.4911 C.3      1 ZINC000035308284   -0.0900
8      C8     -4.9083   -0.1633    3.9212 C.3      1 ZINC000035308284   -0.1200
9      C9     -4.8251    1.0403    4.8784 C.3      1 ZINC000035308284   -0.0900
10     C10    -3.4273    1.5788    4.8019 C.3      1 ZINC000035308284   -0.0200
11     C11    -2.4762    0.3845    4.9020 C.3      1 ZINC000035308284   -0.1500
12     C12    -2.9113    2.6091    5.7310 C.2      1 ZINC000035308284   -0.1100
13     C13    -3.3484    2.8021    7.1603 C.3      1 ZINC000035308284    0.1400
14     H14    -2.8650    3.6883    7.5715 H        1 ZINC000035308284    0.0700
15     C15    -2.9518    1.5759    7.9849 C.3      1 ZINC000035308284   -0.1700
16     O16    -4.7669    2.9687    7.2062 O.3      1 ZINC000035308284   -0.3500
17     C17    -5.2212    3.7888    8.2846 C.3      1 ZINC000035308284    0.0500
18     C18    -6.7236    3.8953    8.2363 C.2      1 ZINC000035308284    0.5200
19     O19    -7.3443    3.3250    7.3642 O.2      1 ZINC000035308284   -0.5000
20     N20    -7.3777    4.6242    9.1623 N.am     1 ZINC000035308284   -0.7300
21     C21    -8.8382    4.7278    9.1153 C.3      1 ZINC000035308284    0.0800
22     C22    -9.3247    5.6058   10.2700 C.3      1 ZINC000035308284    0.2500
23     F23    -8.9366    5.0339   11.4863 F        1 ZINC000035308284   -0.1600
24     F24    -8.7628    6.8818   10.1543 F        1 ZINC000035308284   -0.1600
25     C25   -10.8501    5.7140   10.2209 C.3      1 ZINC000035308284    0.4300
26     F26   -11.4120    4.4380   10.3366 F        1 ZINC000035308284   -0.1500
27     F27   -11.2948    6.5169   11.2767 F        1 ZINC000035308284   -0.1600
28     F28   -11.2382    6.2859    9.0046 F        1 ZINC000035308284   -0.1500
29     C29    -1.9991    3.3338    5.0959 C.2      1 ZINC000035308284   -0.1500
30     C30    -1.8627    2.8672    3.6490 C.3      1 ZINC000035308284   -0.0900
31     C31    -3.2105    2.1921    3.3943 C.3      1 ZINC000035308284   -0.0600
32     H32    -3.9831    2.9205    3.1481 H        1 ZINC000035308284    0.0900
33     C33    -1.2973   -1.9907   -0.9275 C.3      1 ZINC000035308284   -0.1100
34     C34     0.0043   -2.7830   -0.7683 C.3      1 ZINC000035308284    0.1100
35     H35     0.0799   -3.1542    0.2537 H        1 ZINC000035308284    0.0700
36     O36     0.0024   -3.8870   -1.6757 O.3      1 ZINC000035308284   -0.5700
37     C37     1.2007   -1.8801   -1.0710 C.3      1 ZINC000035308284   -0.1100
38     C38     1.3034   -0.7809   -0.0146 C.3      1 ZINC000035308284    0.1500
39     H39     2.1291   -0.1126   -0.2591 H        1 ZINC000035308284    0.0700
40     O40     1.5228   -1.3669    1.2701 O.3      1 ZINC000035308284   -0.5600
41     H41     0.9119    1.8814    0.0035 H        1 ZINC000035308284    0.1100
42     H42    -0.9585    1.8559    0.0167 H        1 ZINC000035308284    0.1100
43     H43    -3.1886   -1.0672    0.7747 H        1 ZINC000035308284    0.1200
44     H44    -1.3011    1.2898    1.7006 H        1 ZINC000035308284    0.1300
45     H45    -5.3285    0.8129    2.0549 H        1 ZINC000035308284    0.0700
46     H46    -4.4019   -0.6947    1.9028 H        1 ZINC000035308284    0.0700
47     H47    -5.9271   -0.5507    3.9269 H        1 ZINC000035308284    0.0600
48     H48    -4.2326   -0.9430    4.2729 H        1 ZINC000035308284    0.0700
49     H49    -5.5351    1.8080    4.5708 H        1 ZINC000035308284    0.0700
50     H50    -5.0432    0.7194    5.8969 H        1 ZINC000035308284    0.0700
51     H51    -2.6595   -0.2966    4.0710 H        1 ZINC000035308284    0.0700
52     H52    -1.4454    0.7366    4.8627 H        1 ZINC000035308284    0.0500
53     H53    -2.6462   -0.1374    5.8437 H        1 ZINC000035308284    0.0500
54     H54    -1.8698    1.4489    7.9499 H        1 ZINC000035308284    0.0700
55     H55    -3.2680    1.7156    9.0187 H        1 ZINC000035308284    0.0600
56     H56    -3.4352    0.6897    7.5737 H        1 ZINC000035308284    0.0700
57     H57    -4.9188    3.3432    9.2323 H        1 ZINC000035308284    0.0800
58     H58    -4.7834    4.7829    8.1945 H        1 ZINC000035308284    0.0800
59     H59    -6.8813    5.0803    9.8598 H        1 ZINC000035308284    0.4100
60     H60    -9.1406    5.1734    8.1676 H        1 ZINC000035308284    0.1200
61     H61    -9.2760    3.7336    9.2054 H        1 ZINC000035308284    0.1200
62     H62    -1.4334    4.1396    5.5398 H        1 ZINC000035308284    0.1300
63     H63    -1.7181    3.7159    2.9804 H        1 ZINC000035308284    0.0700
64     H64    -1.0477    2.1504    3.5484 H        1 ZINC000035308284    0.0800
65     H65    -2.1462   -2.6229   -0.6668 H        1 ZINC000035308284    0.0700
66     H66    -1.3958   -1.6495   -1.9580 H        1 ZINC000035308284    0.0800
67     H67    -0.7277   -4.5064   -1.5400 H        1 ZINC000035308284    0.3800
68     H68     2.1140   -2.4751   -1.0663 H        1 ZINC000035308284    0.0800
69     H69     1.0715   -1.4243   -2.0527 H        1 ZINC000035308284    0.0800
70     H70     1.5977   -0.7237    1.9883 H        1 ZINC000035308284    0.3800
@<TRIPOS>BOND
1     1     2     2
2     1     41    1
3     1     42    1
4     2     38    1
5     2     3     1
6     3     4     2
7     3     33    1
8     4     5     1
9     4     43    1
10    5     6     2
11    5     44    1
12    6     31    1
13    6     7     1
14    7     8     1
15    7     45    1
16    7     46    1
17    8     9     1
18    8     47    1
19    8     48    1
20    9     10    1
21    9     49    1
22    9     50    1
23    10    31    1
24    10    11    1
25    10    12    1
26    11    51    1
27    11    52    1
28    11    53    1
29    12    13    1
30    12    29    2
31    13    14    1
32    13    15    1
33    13    16    1
34    15    54    1
35    15    55    1
36    15    56    1
37    16    17    1
38    17    18    1
39    17    57    1
40    17    58    1
41    18    19    2
42    18    20    am
43    20    21    1
44    20    59    1
45    21    22    1
46    21    60    1
47    21    61    1
48    22    23    1
49    22    24    1
50    22    25    1
51    25    26    1
52    25    27    1
53    25    28    1
54    29    30    1
55    29    62    1
56    30    31    1
57    30    63    1
58    30    64    1
59    31    32    1
60    33    34    1
61    33    65    1
62    33    66    1
63    34    35    1
64    34    36    1
65    34    37    1
66    36    67    1
67    37    38    1
68    37    68    1
69    37    69    1
70    38    39    1
71    38    40    1
72    40    70    1
@<TRIPOS>SUBSTRUCTURE
1   ZINC000035308284 1     RESIDUE    1   A     ZIN   1
