@<TRIPOS>MOLECULE
ZINC000002565953
57    58    1     0     0
SMALL
USER_CHARGES
@<TRIPOS>ATOM
1      C1      3.9456   -3.0097   -1.7353 C.3      1 ZINC000002565953   -0.1500
2      C2      2.4638   -3.1073   -1.3670 C.3      1 ZINC000002565953   -0.0200
3      C3      1.9035   -4.4441   -1.8569 C.3      1 ZINC000002565953   -0.1400
4      C4      2.3089   -3.0155    0.1524 C.3      1 ZINC000002565953   -0.1400
5      C5      1.7088   -1.9772   -2.0181 C.ar     1 ZINC000002565953   -0.0900
6      C6      2.3782   -1.0643   -2.8094 C.ar     1 ZINC000002565953   -0.0900
7      C7      1.6859   -0.0271   -3.4072 C.ar     1 ZINC000002565953   -0.0700
8      C8      2.4187    0.9676   -4.2701 C.3      1 ZINC000002565953    0.0200
9      C9      1.4123    1.9238   -4.9133 C.3      1 ZINC000002565953   -0.1400
10     C10     3.4004    1.7645   -3.4086 C.3      1 ZINC000002565953   -0.1400
11     C11     3.1760    0.2357   -5.3480 C.ar     1 ZINC000002565953   -0.0700
12     C12     2.5043   -0.6122   -6.2088 C.ar     1 ZINC000002565953   -0.1000
13     C13     3.1963   -1.2848   -7.1976 C.ar     1 ZINC000002565953   -0.1400
14     C14     4.5661   -1.1082   -7.3265 C.ar     1 ZINC000002565953    0.1100
15     O15     5.2490   -1.7683   -8.2986 O.3      1 ZINC000002565953   -0.4900
16     C16     5.2379   -0.2562   -6.4616 C.ar     1 ZINC000002565953   -0.0900
17     C17     6.7260   -0.0621   -6.5988 C.3      1 ZINC000002565953   -0.0200
18     C18     7.2129    0.9192   -5.5307 C.3      1 ZINC000002565953   -0.1500
19     C19     7.4345   -1.4060   -6.4176 C.3      1 ZINC000002565953   -0.1400
20     C20     7.0414    0.4976   -7.9874 C.3      1 ZINC000002565953   -0.1400
21     C21     4.5406    0.4178   -5.4780 C.ar     1 ZINC000002565953   -0.1100
22     C22     0.3227    0.0986   -3.2150 C.ar     1 ZINC000002565953   -0.1100
23     C23    -0.3515   -0.8121   -2.4243 C.ar     1 ZINC000002565953   -0.1400
24     C24     0.3397   -1.8564   -1.8278 C.ar     1 ZINC000002565953    0.1100
25     O25    -0.3212   -2.7537   -1.0500 O.3      1 ZINC000002565953   -0.4900
26     H26     4.0560   -3.0751   -2.8177 H        1 ZINC000002565953    0.0600
27     H27     4.3448   -2.0573   -1.3863 H        1 ZINC000002565953    0.0600
28     H28     4.4917   -3.8270   -1.2644 H        1 ZINC000002565953    0.0600
29     H29     2.4496   -5.2614   -1.3859 H        1 ZINC000002565953    0.0600
30     H30     0.8479   -4.5136   -1.5945 H        1 ZINC000002565953    0.0600
31     H31     2.0139   -4.5095   -2.9393 H        1 ZINC000002565953    0.0500
32     H32     2.7081   -2.0632    0.5014 H        1 ZINC000002565953    0.0500
33     H33     1.2532   -3.0851    0.4148 H        1 ZINC000002565953    0.0700
34     H34     2.8550   -3.8329    0.6234 H        1 ZINC000002565953    0.0500
35     H35     3.4431   -1.1603   -2.9611 H        1 ZINC000002565953    0.1300
36     H36     0.8646    2.4532   -4.1337 H        1 ZINC000002565953    0.0600
37     H37     1.9423    2.6432   -5.5375 H        1 ZINC000002565953    0.0600
38     H38     0.7129    1.3561   -5.5271 H        1 ZINC000002565953    0.0600
39     H39     4.1174    1.0833   -2.9503 H        1 ZINC000002565953    0.0600
40     H40     3.9305    2.4839   -4.0327 H        1 ZINC000002565953    0.0600
41     H41     2.8527    2.2939   -2.6289 H        1 ZINC000002565953    0.0600
42     H42     1.4378   -0.7493   -6.1081 H        1 ZINC000002565953    0.1200
43     H43     2.6712   -1.9477   -7.8694 H        1 ZINC000002565953    0.1300
44     H44     5.3076   -1.2860   -9.1347 H        1 ZINC000002565953    0.3800
45     H45     6.9882    0.5205   -4.5415 H        1 ZINC000002565953    0.0600
46     H46     8.2893    1.0597   -5.6300 H        1 ZINC000002565953    0.0600
47     H47     6.7081    1.8767   -5.6598 H        1 ZINC000002565953    0.0600
48     H48     7.0876   -2.1051   -7.1785 H        1 ZINC000002565953    0.0700
49     H49     8.5108   -1.2656   -6.5169 H        1 ZINC000002565953    0.0500
50     H50     7.2098   -1.8047   -5.4284 H        1 ZINC000002565953    0.0500
51     H51     6.5366    1.4550   -8.1165 H        1 ZINC000002565953    0.0500
52     H52     8.1177    0.6380   -8.0866 H        1 ZINC000002565953    0.0600
53     H53     6.6945   -0.2015   -8.7483 H        1 ZINC000002565953    0.0600
54     H54     5.0630    1.0813   -4.8048 H        1 ZINC000002565953    0.1400
55     H55    -0.2157    0.9095   -3.6829 H        1 ZINC000002565953    0.1300
56     H56    -1.4164   -0.7130   -2.2738 H        1 ZINC000002565953    0.1300
57     H57    -0.6625   -3.5179   -1.5344 H        1 ZINC000002565953    0.3800
@<TRIPOS>BOND
1     1     2     1
2     1     26    1
3     1     27    1
4     1     28    1
5     2     3     1
6     2     4     1
7     2     5     1
8     3     29    1
9     3     30    1
10    3     31    1
11    4     32    1
12    4     33    1
13    4     34    1
14    5     24    ar
15    5     6     ar
16    6     7     ar
17    6     35    1
18    7     8     1
19    7     22    ar
20    8     9     1
21    8     10    1
22    8     11    1
23    9     36    1
24    9     37    1
25    9     38    1
26    10    39    1
27    10    40    1
28    10    41    1
29    11    21    ar
30    11    12    ar
31    12    13    ar
32    12    42    1
33    13    14    ar
34    13    43    1
35    14    15    1
36    14    16    ar
37    15    44    1
38    16    17    1
39    16    21    ar
40    17    18    1
41    17    19    1
42    17    20    1
43    18    45    1
44    18    46    1
45    18    47    1
46    19    48    1
47    19    49    1
48    19    50    1
49    20    51    1
50    20    52    1
51    20    53    1
52    21    54    1
53    22    23    ar
54    22    55    1
55    23    24    ar
56    23    56    1
57    24    25    1
58    25    57    1
@<TRIPOS>SUBSTRUCTURE
1   ZINC000002565953 1     RESIDUE    1   A     ZIN   1
