@<TRIPOS>MOLECULE
ZINC000001532828
  26   25    0    0    0
SMALL
USER_CHARGES
NO_NAME
@<TRIPOS>ATOM
    1 C1       -0.0187     1.5258     0.0104 C.3    1 <0>      -0.1700
    2 C2        0.0021    -0.0041     0.0020 C.3    1 <0>       0.1100
    3 N3       -1.3723    -0.5112     0.0124 N.am   1 <0>      -0.7300
    4 C4       -1.6006    -1.8394     0.0075 C.2    1 <0>       0.5100
    5 O5       -0.6682    -2.6149    -0.0056 O.2    1 <0>      -0.5300
    6 C6       -3.0144    -2.3611     0.0182 C.3    1 <0>      -0.1500
    7 C7       -2.9937    -3.8909     0.0097 C.3    1 <0>      -0.1100
    8 C8       -4.4290    -4.4205     0.0206 C.3    1 <0>      -0.0500
    9 H9       -4.9819    -3.9887    -0.8137 H      1 <0>       0.1400
   10 N10      -5.0790    -4.0476     1.2841 N.4    1 <0>      -0.6100
   11 H11      -5.0906    -3.0425     1.3725 H      1 <0>       0.4100
   12 H12      -6.0256    -4.3968     1.2913 H      1 <0>       0.4300
   13 H13      -4.5672    -4.4472     2.0564 H      1 <0>       0.4300
   14 C14      -4.4117    -5.9216    -0.1115 C.2    1 <0>       0.4900
   15 O15      -4.7261    -6.6206     0.8367 O.co2  1 <0>      -0.6700
   16 O16      -4.0832    -6.4370    -1.1664 O.co2  1 <0>      -0.6300
   17 H17       1.0039     1.9031     0.0027 H      1 <0>       0.0800
   18 H18      -0.5459     1.8868    -0.8726 H      1 <0>       0.0600
   19 H19      -0.5289     1.8773     0.9072 H      1 <0>       0.0600
   20 H20       0.5123    -0.3556    -0.8948 H      1 <0>       0.0700
   21 H21       0.5293    -0.3651     0.8851 H      1 <0>       0.0700
   22 H22      -2.1181     0.1091     0.0229 H      1 <0>       0.4000
   23 H23      -3.5246    -2.0095     0.9150 H      1 <0>       0.0800
   24 H24      -3.5416    -2.0000    -0.8649 H      1 <0>       0.1100
   25 H25      -2.4835    -4.2424    -0.8870 H      1 <0>       0.1200
   26 H26      -2.4665    -4.2520     0.8928 H      1 <0>       0.0900
@<TRIPOS>BOND
   1    1    2 1
   2    1   17 1
   3    1   18 1
   4    1   19 1
   5    2    3 1
   6    2   20 1
   7    2   21 1
   8    3    4 am
   9    3   22 1
  10    4    5 2
  11    4    6 1
  12    6    7 1
  13    6   23 1
  14    6   24 1
  15    7    8 1
  16    7   25 1
  17    7   26 1
  18    8    9 1
  19    8   10 1
  20    8   14 1
  21   10   11 1
  22   10   12 1
  23   10   13 1
  24   14   15 ar
  25   14   16 ar
