@<TRIPOS>MOLECULE
ZINC000072319585
53    55    1     0     0
SMALL
USER_CHARGES
@<TRIPOS>ATOM
1      C1     -0.7377   -2.4006    3.8070 C.2      1 ZINC000072319585   -0.0800
2      C2     -0.1106   -1.8714    2.7601 C.2      1 ZINC000072319585   -0.2200
3      C3      1.0083   -2.5905    2.1326 C.2      1 ZINC000072319585    0.5400
4      O4      1.3602   -3.6691    2.5709 O.2      1 ZINC000072319585   -0.5200
5      N5      1.6437   -2.0543    1.0718 N.am     1 ZINC000072319585   -0.6700
6      C6      2.7643   -2.6931    0.5319 C.ar     1 ZINC000072319585    0.1600
7      C7      3.8149   -1.9408    0.0213 C.ar     1 ZINC000072319585   -0.1600
8      C8      4.9223   -2.5712   -0.5129 C.ar     1 ZINC000072319585   -0.0800
9      C9      4.9890   -3.9507   -0.5414 C.ar     1 ZINC000072319585   -0.1300
10     C10     3.9417   -4.7091   -0.0319 C.ar     1 ZINC000072319585    0.1700
11     N11     4.0098   -6.1049   -0.0610 N.pl3    1 ZINC000072319585   -0.6400
12     C12     5.2286   -6.7439    0.1172 C.ar     1 ZINC000072319585    0.4500
13     N13     6.3486   -6.0388    0.2356 N.ar     1 ZINC000072319585   -0.5800
14     C14     7.5136   -6.6459    0.4063 C.ar     1 ZINC000072319585    0.5900
15     N15     8.6629   -5.8803    0.5263 N.pl3    1 ZINC000072319585   -0.6300
16     C16     9.9157   -6.5030    0.5878 C.ar     1 ZINC000072319585    0.1200
17     C17    10.1521   -7.6616   -0.1402 C.ar     1 ZINC000072319585   -0.0700
18     C18    11.3880   -8.2747   -0.0794 C.ar     1 ZINC000072319585   -0.1300
19     C19    12.3931   -7.7335    0.7086 C.ar     1 ZINC000072319585    0.1200
20     O20    13.6099   -8.3379    0.7679 O.3      1 ZINC000072319585   -0.3100
21     C21    14.5982   -7.7262    1.5992 C.3      1 ZINC000072319585    0.0600
22     C22    15.8912   -8.5420    1.5389 C.3      1 ZINC000072319585    0.0600
23     O23    16.4260   -8.4899    0.2148 O.3      1 ZINC000072319585   -0.3900
24     C24    17.6409   -9.2239    0.0494 C.3      1 ZINC000072319585    0.0300
25     C25    12.1579   -6.5759    1.4357 C.ar     1 ZINC000072319585   -0.1900
26     C26    10.9241   -5.9589    1.3722 C.ar     1 ZINC000072319585   -0.1000
27     N27     7.6083   -7.9654    0.4656 N.ar     1 ZINC000072319585   -0.5600
28     C28     6.5323   -8.7318    0.3549 C.ar     1 ZINC000072319585    0.2000
29     C29     5.2957   -8.1392    0.1806 C.ar     1 ZINC000072319585   -0.1100
30     F30     4.1791   -8.8909    0.0648 F        1 ZINC000072319585   -0.1300
31     C31     2.8307   -4.0791    0.5105 C.ar     1 ZINC000072319585   -0.1500
32     H32    -0.4252   -3.3584    4.1962 H        1 ZINC000072319585    0.1200
33     H33    -1.5565   -1.8705    4.2706 H        1 ZINC000072319585    0.1200
34     H34    -0.4231   -0.9137    2.3710 H        1 ZINC000072319585    0.1300
35     H35     1.3237   -1.2253    0.6830 H        1 ZINC000072319585    0.4100
36     H36     3.7657   -0.8622    0.0417 H        1 ZINC000072319585    0.1300
37     H37     5.7375   -1.9841   -0.9095 H        1 ZINC000072319585    0.1300
38     H38     5.8557   -4.4403   -0.9603 H        1 ZINC000072319585    0.1400
39     H39     3.2051   -6.6269   -0.2058 H        1 ZINC000072319585    0.4300
40     H40     8.5993   -4.9133    0.5678 H        1 ZINC000072319585    0.4200
41     H41     9.3695   -8.0833   -0.7534 H        1 ZINC000072319585    0.1400
42     H42    11.5719   -9.1761   -0.6452 H        1 ZINC000072319585    0.1300
43     H43    14.7915   -6.7125    1.2481 H        1 ZINC000072319585    0.0700
44     H44    14.2377   -7.6920    2.6273 H        1 ZINC000072319585    0.0800
45     H45    16.6155   -8.1272    2.2399 H        1 ZINC000072319585    0.0700
46     H46    15.6800   -9.5777    1.8050 H        1 ZINC000072319585    0.0600
47     H47    17.4661  -10.2737    0.2846 H        1 ZINC000072319585    0.0400
48     H48    17.9818   -9.1345   -0.9821 H        1 ZINC000072319585    0.0900
49     H49    18.4016   -8.8232    0.7195 H        1 ZINC000072319585    0.0400
50     H50    12.9411   -6.1551    2.0490 H        1 ZINC000072319585    0.1300
51     H51    10.7412   -5.0575    1.9384 H        1 ZINC000072319585    0.1300
52     H52     6.6203   -9.8070    0.4046 H        1 ZINC000072319585    0.1800
53     H53     2.0155   -4.6662    0.9070 H        1 ZINC000072319585    0.1400
@<TRIPOS>BOND
1     1     2     2
2     1     32    1
3     1     33    1
4     2     3     1
5     2     34    1
6     3     4     2
7     3     5     am
8     5     6     1
9     5     35    1
10    6     31    ar
11    6     7     ar
12    7     8     ar
13    7     36    1
14    8     9     ar
15    8     37    1
16    9     10    ar
17    9     38    1
18    10    11    1
19    10    31    ar
20    11    12    1
21    11    39    1
22    12    29    ar
23    12    13    ar
24    13    14    ar
25    14    15    1
26    14    27    ar
27    15    16    1
28    15    40    1
29    16    26    ar
30    16    17    ar
31    17    18    ar
32    17    41    1
33    18    19    ar
34    18    42    1
35    19    20    1
36    19    25    ar
37    20    21    1
38    21    22    1
39    21    43    1
40    21    44    1
41    22    23    1
42    22    45    1
43    22    46    1
44    23    24    1
45    24    47    1
46    24    48    1
47    24    49    1
48    25    26    ar
49    25    50    1
50    26    51    1
51    27    28    ar
52    28    29    ar
53    28    52    1
54    29    30    1
55    31    53    1
@<TRIPOS>SUBSTRUCTURE
1   ZINC000072319585 1     RESIDUE    1   A     ZIN   1
