@<TRIPOS>MOLECULE
ZINC000003919685
76    79    1     0     0
SMALL
USER_CHARGES
@<TRIPOS>ATOM
1      C1     -6.8851   -1.8481    2.7019 C.3      1 ZINC000003919685   -0.1500
2      C2     -5.4486   -1.3236    2.6550 C.3      1 ZINC000003919685    0.0700
3      O3     -4.7270   -1.9840    1.5820 O.3      1 ZINC000003919685   -0.3500
4      C4     -3.4763   -1.5617    1.3385 C.2      1 ZINC000003919685    0.4600
5      O5     -2.9888   -0.6918    2.0208 O.2      1 ZINC000003919685   -0.5000
6      C6     -2.6802   -2.1726    0.2142 C.3      1 ZINC000003919685   -0.0900
7      H7     -2.5480   -3.2385    0.3999 H        1 ZINC000003919685    0.1100
8      C8     -1.3107   -1.4954    0.1324 C.3      1 ZINC000003919685   -0.1100
9      C9     -0.4417   -1.9591    1.3031 C.3      1 ZINC000003919685   -0.0900
10     C10     0.9072   -1.2921    1.2225 C.ar     1 ZINC000003919685   -0.0800
11     C11     1.9338   -1.8917    0.5172 C.ar     1 ZINC000003919685   -0.1200
12     C12     3.1711   -1.2799    0.4432 C.ar     1 ZINC000003919685   -0.1200
13     C13     3.3818   -0.0682    1.0743 C.ar     1 ZINC000003919685   -0.1300
14     C14     2.3550    0.5319    1.7789 C.ar     1 ZINC000003919685   -0.1200
15     C15     1.1164   -0.0779    1.8493 C.ar     1 ZINC000003919685   -0.1100
16     C16    -3.4272   -1.9739   -1.1062 C.3      1 ZINC000003919685   -0.0900
17     C17    -3.4468   -0.4860   -1.4621 C.3      1 ZINC000003919685   -0.0800
18     C18    -3.8994    0.3319   -0.2800 C.2      1 ZINC000003919685    0.5300
19     O19    -4.9969    0.1461    0.2014 O.2      1 ZINC000003919685   -0.5300
20     N20    -3.0844    1.2697    0.2423 N.am     1 ZINC000003919685   -0.6900
21     C21    -3.4733    1.9806    1.4627 C.3      1 ZINC000003919685    0.1400
22     H22    -3.9956    1.2932    2.1281 H        1 ZINC000003919685    0.1200
23     C23    -2.2190    2.5043    2.1624 C.3      1 ZINC000003919685   -0.1000
24     C24    -2.6128    3.5732    3.1851 C.3      1 ZINC000003919685   -0.1000
25     C25    -3.8303    3.1356    3.9539 C.ar     1 ZINC000003919685   -0.0800
26     C26    -3.7066    2.6626    5.2454 C.ar     1 ZINC000003919685   -0.1000
27     C27    -4.8321    2.2739    5.9494 C.ar     1 ZINC000003919685   -0.1400
28     C28    -6.0824    2.3579    5.3653 C.ar     1 ZINC000003919685   -0.1100
29     C29    -6.2119    2.8269    4.0716 C.ar     1 ZINC000003919685   -0.1400
30     C30    -5.0834    3.2107    3.3628 C.ar     1 ZINC000003919685    0.1700
31     N31    -5.1938    3.6576    2.0389 N.am     1 ZINC000003919685   -0.5300
32     C32    -6.1643    4.6947    1.6797 C.3      1 ZINC000003919685    0.0500
33     C33    -5.5221    6.0514    1.8131 C.2      1 ZINC000003919685    0.4900
34     O34    -4.3614    6.1436    2.1747 O.co2    1 ZINC000003919685   -0.6800
35     O35    -6.1632    7.0570    1.5595 O.co2    1 ZINC000003919685   -0.7000
36     C36    -4.3903    3.1163    1.1041 C.2      1 ZINC000003919685    0.5100
37     O37    -4.4071    3.5454   -0.0302 O.2      1 ZINC000003919685   -0.5300
38     C38    -2.0478   -0.0245   -1.9405 C.3      1 ZINC000003919685   -0.1400
39     C39    -2.3739    1.2256   -2.7949 C.3      1 ZINC000003919685   -0.1400
40     C40    -3.6820    0.8549   -3.5238 C.3      1 ZINC000003919685   -0.1200
41     C41    -4.3642   -0.2333   -2.6764 C.3      1 ZINC000003919685   -0.1000
42     H42    -7.4268   -1.3523    3.5074 H        1 ZINC000003919685    0.0700
43     H43    -7.3783   -1.6422    1.7519 H        1 ZINC000003919685    0.0700
44     H44    -6.8736   -2.9234    2.8799 H        1 ZINC000003919685    0.0600
45     H45    -5.4600   -0.2483    2.4771 H        1 ZINC000003919685    0.0800
46     H46    -4.9554   -1.5294    3.6050 H        1 ZINC000003919685    0.0600
47     H47    -0.8280   -1.7642   -0.8072 H        1 ZINC000003919685    0.0800
48     H48    -1.4368   -0.4138    0.1796 H        1 ZINC000003919685    0.0900
49     H49    -0.9244   -1.6903    2.2427 H        1 ZINC000003919685    0.0800
50     H50    -0.3156   -3.0408    1.2559 H        1 ZINC000003919685    0.0700
51     H51     1.7691   -2.8384    0.0241 H        1 ZINC000003919685    0.1200
52     H52     3.9733   -1.7487   -0.1073 H        1 ZINC000003919685    0.1200
53     H53     4.3488    0.4095    1.0171 H        1 ZINC000003919685    0.1200
54     H54     2.5198    1.4784    2.2723 H        1 ZINC000003919685    0.1200
55     H55     0.3142    0.3909    2.3998 H        1 ZINC000003919685    0.1200
56     H56    -2.9225   -2.5298   -1.8964 H        1 ZINC000003919685    0.0900
57     H57    -4.4500   -2.3363   -1.0032 H        1 ZINC000003919685    0.0900
58     H58    -2.2404    1.4740   -0.1900 H        1 ZINC000003919685    0.4000
59     H59    -1.7170    1.6818    2.6718 H        1 ZINC000003919685    0.0800
60     H60    -1.5457    2.9390    1.4237 H        1 ZINC000003919685    0.0700
61     H61    -1.7862    3.7318    3.8778 H        1 ZINC000003919685    0.0800
62     H62    -2.8298    4.5068    2.6661 H        1 ZINC000003919685    0.1100
63     H63    -2.7317    2.5959    5.7054 H        1 ZINC000003919685    0.1200
64     H64    -4.7338    1.9030    6.9590 H        1 ZINC000003919685    0.1200
65     H65    -6.9587    2.0571    5.9204 H        1 ZINC000003919685    0.1200
66     H66    -7.1881    2.8943    3.6145 H        1 ZINC000003919685    0.1200
67     H67    -6.4900    4.5465    0.6501 H        1 ZINC000003919685    0.0800
68     H68    -7.0251    4.6330    2.3455 H        1 ZINC000003919685    0.0700
69     H69    -1.4176    0.2414   -1.0918 H        1 ZINC000003919685    0.0900
70     H70    -1.5738   -0.7951   -2.5485 H        1 ZINC000003919685    0.0800
71     H71    -2.5265    2.0953   -2.1559 H        1 ZINC000003919685    0.0700
72     H72    -1.5768    1.4146   -3.5141 H        1 ZINC000003919685    0.0700
73     H73    -4.3282    1.7294   -3.5990 H        1 ZINC000003919685    0.0700
74     H74    -3.4587    0.4685   -4.5183 H        1 ZINC000003919685    0.0600
75     H75    -4.4720   -1.1478   -3.2596 H        1 ZINC000003919685    0.0700
76     H76    -5.3415    0.1131   -2.3403 H        1 ZINC000003919685    0.0700
@<TRIPOS>BOND
1     1     2     1
2     1     42    1
3     1     43    1
4     1     44    1
5     2     3     1
6     2     45    1
7     2     46    1
8     3     4     1
9     4     5     2
10    4     6     1
11    6     7     1
12    6     8     1
13    6     16    1
14    8     9     1
15    8     47    1
16    8     48    1
17    9     10    1
18    9     49    1
19    9     50    1
20    10    15    ar
21    10    11    ar
22    11    12    ar
23    11    51    1
24    12    13    ar
25    12    52    1
26    13    14    ar
27    13    53    1
28    14    15    ar
29    14    54    1
30    15    55    1
31    16    17    1
32    16    56    1
33    16    57    1
34    17    41    1
35    17    18    1
36    17    38    1
37    18    19    2
38    18    20    am
39    20    21    1
40    20    58    1
41    21    22    1
42    21    36    1
43    21    23    1
44    23    24    1
45    23    59    1
46    23    60    1
47    24    25    1
48    24    61    1
49    24    62    1
50    25    30    ar
51    25    26    ar
52    26    27    ar
53    26    63    1
54    27    28    ar
55    27    64    1
56    28    29    ar
57    28    65    1
58    29    30    ar
59    29    66    1
60    30    31    1
61    31    32    1
62    31    36    am
63    32    33    1
64    32    67    1
65    32    68    1
66    33    34    ar
67    33    35    ar
68    36    37    2
69    38    39    1
70    38    69    1
71    38    70    1
72    39    40    1
73    39    71    1
74    39    72    1
75    40    41    1
76    40    73    1
77    40    74    1
78    41    75    1
79    41    76    1
@<TRIPOS>SUBSTRUCTURE
1   ZINC000003919685 1     RESIDUE    1   A     ZIN   1
