@<TRIPOS>MOLECULE
ZINC000008143774
75    78    1     0     0
SMALL
USER_CHARGES
@<TRIPOS>ATOM
1      C1      0.0149    1.5834    0.0246 C.3      1 ZINC000008143774   -0.1600
2      C2      0.0021    0.0536    0.0040 C.3      1 ZINC000008143774   -0.0900
3      H3      0.5039   -0.3018   -0.8960 H        1 ZINC000008143774    0.0700
4      C4     -1.4445   -0.4444    0.0119 C.3      1 ZINC000008143774   -0.1000
5      C5     -2.1383   -0.0164   -1.2828 C.3      1 ZINC000008143774   -0.1400
6      C6     -3.5632   -0.5069   -1.2751 C.2      1 ZINC000008143774    0.5000
7      O7     -3.9825   -1.1369   -0.3273 O.2      1 ZINC000008143774   -0.5600
8      N8     -4.3716   -0.2456   -2.3214 N.am     1 ZINC000008143774   -0.7000
9      C9     -5.7568   -0.7225   -2.3139 C.3      1 ZINC000008143774    0.0500
10     C10    -6.4401   -0.3008   -3.5891 C.2      1 ZINC000008143774    0.4900
11     O11    -5.8269    0.3387   -4.4266 O.co2    1 ZINC000008143774   -0.6900
12     O12    -7.6062   -0.5993   -3.7833 O.co2    1 ZINC000008143774   -0.6900
13     C13     0.7316   -0.4792    1.2389 C.3      1 ZINC000008143774   -0.0600
14     H14     0.2325   -0.1410    2.1469 H        1 ZINC000008143774    0.0800
15     C15     0.7889   -2.0268    1.2023 C.3      1 ZINC000008143774   -0.1200
16     C16     2.2925   -2.4110    1.2645 C.3      1 ZINC000008143774   -0.1200
17     C17     2.9313   -1.1893    1.9339 C.3      1 ZINC000008143774   -0.0700
18     H18     2.7198   -1.1882    3.0032 H        1 ZINC000008143774    0.0900
19     C19     4.4166   -1.0017    1.6895 C.3      1 ZINC000008143774   -0.0700
20     H20     4.6070   -0.9285    0.6187 H        1 ZINC000008143774    0.0900
21     C21     5.2049   -2.1740    2.2750 C.3      1 ZINC000008143774    0.1100
22     H22     4.9046   -3.0975    1.7799 H        1 ZINC000008143774    0.0500
23     O23     4.9384   -2.2756    3.6753 O.3      1 ZINC000008143774   -0.5500
24     C24     6.7012   -1.9405    2.0557 C.3      1 ZINC000008143774   -0.1500
25     C25     7.1238   -0.6458    2.7525 C.3      1 ZINC000008143774   -0.0600
26     H26     8.1888   -0.4779    2.5921 H        1 ZINC000008143774    0.0600
27     C27     6.8460   -0.7607    4.2528 C.3      1 ZINC000008143774   -0.1400
28     C28     7.2712    0.5328    4.9505 C.3      1 ZINC000008143774    0.1100
29     H29     8.3364    0.6991    4.7898 H        1 ZINC000008143774    0.0400
30     O30     7.0119    0.4256    6.3517 O.3      1 ZINC000008143774   -0.5700
31     C31     6.4789    1.7077    4.3738 C.3      1 ZINC000008143774   -0.1500
32     C32     6.7559    1.8224    2.8734 C.3      1 ZINC000008143774   -0.1100
33     C33     6.3300    0.5287    2.1764 C.3      1 ZINC000008143774   -0.0500
34     C34     6.6068    0.6429    0.6760 C.3      1 ZINC000008143774   -0.1500
35     C35     4.8315    0.3064    2.3810 C.3      1 ZINC000008143774   -0.0600
36     H36     4.6327    0.2032    3.4477 H        1 ZINC000008143774    0.0900
37     C37     4.0487    1.5008    1.8463 C.3      1 ZINC000008143774   -0.1500
38     C38     2.5318    1.2684    1.9473 C.3      1 ZINC000008143774    0.1200
39     H39     1.9976    2.1110    1.5083 H        1 ZINC000008143774    0.0600
40     O40     2.1538    1.1140    3.3167 O.3      1 ZINC000008143774   -0.5600
41     C41     2.1859   -0.0196    1.2328 C.3      1 ZINC000008143774   -0.0500
42     C42     2.7079    0.0301   -0.2045 C.3      1 ZINC000008143774   -0.1600
43     H43     1.0456    1.9383    0.0190 H        1 ZINC000008143774    0.0600
44     H44    -0.5048    1.9630   -0.8551 H        1 ZINC000008143774    0.0600
45     H45    -0.4868    1.9389    0.9246 H        1 ZINC000008143774    0.0500
46     H46    -1.4540   -1.5318    0.0868 H        1 ZINC000008143774    0.0700
47     H47    -1.9714   -0.0168    0.8649 H        1 ZINC000008143774    0.0700
48     H48    -2.1288    1.0710   -1.3578 H        1 ZINC000008143774    0.0900
49     H49    -1.6115   -0.4440   -2.1359 H        1 ZINC000008143774    0.0900
50     H50    -4.0362    0.2583   -3.0794 H        1 ZINC000008143774    0.4100
51     H51    -5.7663   -1.8098   -2.2389 H        1 ZINC000008143774    0.0600
52     H52    -6.2836   -0.2949   -1.4608 H        1 ZINC000008143774    0.0600
53     H53     0.2611   -2.4411    2.0613 H        1 ZINC000008143774    0.0600
54     H54     0.3464   -2.3959    0.2771 H        1 ZINC000008143774    0.0700
55     H55     2.4377   -3.3039    1.8726 H        1 ZINC000008143774    0.0600
56     H56     2.6953   -2.5562    0.2621 H        1 ZINC000008143774    0.0600
57     H57     5.4063   -2.9997    4.1132 H        1 ZINC000008143774    0.3700
58     H58     7.2640   -2.7767    2.4706 H        1 ZINC000008143774    0.0600
59     H59     6.9036   -1.8609    0.9876 H        1 ZINC000008143774    0.0700
60     H60     5.7809   -0.9271    4.4134 H        1 ZINC000008143774    0.1300
61     H61     7.4106   -1.5977    4.6638 H        1 ZINC000008143774    0.0600
62     H62     7.2576    1.2117    6.8584 H        1 ZINC000008143774    0.3700
63     H63     5.4137    1.5416    4.5349 H        1 ZINC000008143774    0.0800
64     H64     6.7821    2.6292    4.8707 H        1 ZINC000008143774    0.0600
65     H65     6.1913    2.6593    2.4626 H        1 ZINC000008143774    0.0700
66     H66     7.8211    1.9887    2.7123 H        1 ZINC000008143774    0.0600
67     H67     7.6719    0.8090    0.5146 H        1 ZINC000008143774    0.0500
68     H68     6.3033   -0.2787    0.1793 H        1 ZINC000008143774    0.0600
69     H69     6.0422    1.4799    0.2651 H        1 ZINC000008143774    0.0600
70     H70     4.3128    2.3872    2.4231 H        1 ZINC000008143774    0.0600
71     H71     4.3158    1.6636    0.8022 H        1 ZINC000008143774    0.0700
72     H72     2.3588    1.8800    3.8701 H        1 ZINC000008143774    0.3700
73     H73     3.7713    0.2692   -0.1968 H        1 ZINC000008143774    0.0600
74     H74     2.5569   -0.9392   -0.6797 H        1 ZINC000008143774    0.0600
75     H75     2.1674    0.7957   -0.7611 H        1 ZINC000008143774    0.0600
@<TRIPOS>BOND
1     1     2     1
2     1     43    1
3     1     44    1
4     1     45    1
5     2     3     1
6     2     4     1
7     2     13    1
8     4     5     1
9     4     46    1
10    4     47    1
11    5     6     1
12    5     48    1
13    5     49    1
14    6     7     2
15    6     8     am
16    8     9     1
17    8     50    1
18    9     10    1
19    9     51    1
20    9     52    1
21    10    11    ar
22    10    12    ar
23    13    14    1
24    13    41    1
25    13    15    1
26    15    16    1
27    15    53    1
28    15    54    1
29    16    17    1
30    16    55    1
31    16    56    1
32    17    18    1
33    17    41    1
34    17    19    1
35    19    20    1
36    19    35    1
37    19    21    1
38    21    22    1
39    21    23    1
40    21    24    1
41    23    57    1
42    24    25    1
43    24    58    1
44    24    59    1
45    25    26    1
46    25    33    1
47    25    27    1
48    27    28    1
49    27    60    1
50    27    61    1
51    28    29    1
52    28    30    1
53    28    31    1
54    30    62    1
55    31    32    1
56    31    63    1
57    31    64    1
58    32    33    1
59    32    65    1
60    32    66    1
61    33    34    1
62    33    35    1
63    34    67    1
64    34    68    1
65    34    69    1
66    35    36    1
67    35    37    1
68    37    38    1
69    37    70    1
70    37    71    1
71    38    39    1
72    38    40    1
73    38    41    1
74    40    72    1
75    41    42    1
76    42    73    1
77    42    74    1
78    42    75    1
@<TRIPOS>SUBSTRUCTURE
1   ZINC000008143774 1     RESIDUE    1   A     ZIN   1
