@<TRIPOS>MOLECULE
ZINC000003951217
  36   36    0    0    0
SMALL
USER_CHARGES
NO_NAME
@<TRIPOS>ATOM
    1 C1       -0.5748     0.2598     1.8091 C.3    1 <0>      -0.1400
    2 C2       -0.2479    -0.9894     1.0321 C.ar   1 <0>       0.0100
    3 C3       -0.3632    -0.9982    -0.3426 C.ar   1 <0>      -0.0500
    4 C4       -0.0634    -2.1444    -1.0575 C.ar   1 <0>      -0.5500
    5 S5       -0.2126    -2.1476    -2.8132 S.o2   1 <0>       2.5100
    6 C6       -1.6194    -3.2434    -3.1459 C.3    1 <0>      -0.6100
    7 O7       -0.5393    -0.8037    -3.1396 O.2    1 <0>      -0.9500
    8 O8        0.9977    -2.7381    -3.2667 O.2    1 <0>      -0.9200
    9 C9        0.3534    -3.2876    -0.3997 C.ar   1 <0>      -0.6100
   10 S10       0.7328    -4.7421    -1.3189 S.o2   1 <0>       2.4700
   11 C11       2.5457    -4.7940    -1.3563 C.3    1 <0>      -0.6300
   12 O12       0.2198    -5.8027    -0.5243 O.2    1 <0>      -0.9200
   13 O13       0.2146    -4.4819    -2.6162 O.2    1 <0>      -0.9300
   14 C14       0.4731    -3.2911     0.9751 C.ar   1 <0>       0.0200
   15 C15       0.1775    -2.1374     1.7009 C.ar   1 <0>      -0.1100
   16 C16       0.3043    -2.1343     3.1765 C.2    1 <0>       0.5600
   17 O17       0.0201    -1.1335     3.8101 O.2    1 <0>      -0.5300
   18 N18       0.7317    -3.2320     3.8144 N.2    1 <0>      -0.7000
   19 C19       1.7534    -3.1547     4.6537 C.2    1 <0>       0.7000
   20 N20       2.3518    -1.9525     4.8904 N.pl3  1 <0>      -0.8600
   21 N21       2.2068    -4.2773     5.2810 N.pl3  1 <0>      -0.8200
   22 H22       0.3430     0.8112     2.0135 H      1 <0>       0.0800
   23 H23      -1.2514     0.8840     1.2256 H      1 <0>       0.0700
   24 H24      -1.0524    -0.0124     2.7504 H      1 <0>       0.1100
   25 H25      -0.6885    -0.1089    -0.8619 H      1 <0>       0.1600
   26 H26      -2.5494    -2.6881    -3.0239 H      1 <0>       0.1100
   27 H27      -1.5527    -3.6206    -4.1664 H      1 <0>       0.1400
   28 H28      -1.6014    -4.0800    -2.4475 H      1 <0>       0.1400
   29 H29       2.9260    -4.9355    -0.3446 H      1 <0>       0.1300
   30 H30       2.8726    -5.6212    -1.9864 H      1 <0>       0.1400
   31 H31       2.9277    -3.8565    -1.7602 H      1 <0>       0.1500
   32 H32       0.7986    -4.1843     1.4877 H      1 <0>       0.1600
   33 H33       1.9922    -1.1448     4.4915 H      1 <0>       0.4200
   34 H34       3.1372    -1.9051     5.4577 H      1 <0>       0.4000
   35 H35       1.7811    -5.1324     5.1126 H      1 <0>       0.4300
   36 H36       2.9550    -4.2207     5.8957 H      1 <0>       0.4100
@<TRIPOS>BOND
   1    1    2 1
   2    1   22 1
   3    1   23 1
   4    1   24 1
   5    2   15 ar
   6    2    3 ar
   7    3    4 ar
   8    3   25 1
   9    4    5 1
  10    4    9 ar
  11    5    6 1
  12    5    7 2
  13    5    8 2
  14    6   26 1
  15    6   27 1
  16    6   28 1
  17    9   10 1
  18    9   14 ar
  19   10   11 1
  20   10   12 2
  21   10   13 2
  22   11   29 1
  23   11   30 1
  24   11   31 1
  25   14   15 ar
  26   14   32 1
  27   15   16 1
  28   16   17 2
  29   16   18 1
  30   18   19 2
  31   19   20 1
  32   19   21 1
  33   20   33 1
  34   20   34 1
  35   21   35 1
  36   21   36 1
