@<TRIPOS>MOLECULE
ZINC000097971833
89    94    1     0     0
SMALL
USER_CHARGES
@<TRIPOS>ATOM
1      C1     -2.7706    1.7997    2.6332 C.3      1 ZINC000097971833   -0.1500
2      C2     -2.4836    0.3139    2.4075 C.3      1 ZINC000097971833   -0.1300
3      C3     -3.8018   -0.4343    2.1995 C.3      1 ZINC000097971833   -0.1200
4      C4     -3.5147   -1.9201    1.9738 C.3      1 ZINC000097971833   -0.1100
5      C5     -4.8330   -2.6684    1.7658 C.3      1 ZINC000097971833   -0.1100
6      C6     -4.5502   -4.1319    1.5435 C.2      1 ZINC000097971833    0.4600
7      O7     -3.4112   -4.5350    1.5507 O.2      1 ZINC000097971833   -0.5100
8      O8     -5.5637   -4.9875    1.3375 O.3      1 ZINC000097971833   -0.3600
9      C9     -5.2172   -6.3823    1.1306 C.3      1 ZINC000097971833    0.0900
10     H10    -4.3007   -6.6135    1.6735 H        1 ZINC000097971833    0.0900
11     C11    -6.3517   -7.2712    1.6431 C.3      1 ZINC000097971833   -0.1200
12     C12    -5.9532   -8.7428    1.5141 C.3      1 ZINC000097971833   -0.1000
13     C13    -5.7449   -9.0847    0.0358 C.3      1 ZINC000097971833   -0.0100
14     C14    -7.0782   -8.8930   -0.6897 C.3      1 ZINC000097971833   -0.1500
15     C15    -4.7593   -8.1259   -0.5632 C.2      1 ZINC000097971833   -0.1100
16     C16    -3.7094   -8.4917   -1.2384 C.2      1 ZINC000097971833   -0.1500
17     C17    -3.3596   -9.9295   -1.4899 C.3      1 ZINC000097971833   -0.0900
18     C18    -4.6398  -10.7721   -1.4584 C.3      1 ZINC000097971833   -0.0700
19     H19    -5.3011  -10.4848   -2.2759 H        1 ZINC000097971833    0.0800
20     C20    -4.2823  -12.2416   -1.5636 C.3      1 ZINC000097971833   -0.0800
21     H21    -3.6705  -12.5320   -0.7096 H        1 ZINC000097971833    0.0700
22     C22    -3.6073  -12.6913   -2.8541 C.3      1 ZINC000097971833   -0.1100
23     C23    -4.0801  -14.1482   -3.0772 C.3      1 ZINC000097971833    0.0800
24     H24    -3.2487  -14.8531   -3.0709 H        1 ZINC000097971833    0.0800
25     O25    -4.8264  -14.2019   -4.3105 O.3      1 ZINC000097971833   -0.3700
26     C26    -5.7503  -15.2931   -4.1567 C.3      1 ZINC000097971833    0.2600
27     C27    -6.9124  -15.1389   -5.1329 C.3      1 ZINC000097971833   -0.1300
28     C28    -6.3872  -15.2881   -6.5653 C.3      1 ZINC000097971833   -0.1200
29     C29    -5.6757  -16.6386   -6.6947 C.3      1 ZINC000097971833   -0.1300
30     H30    -6.3878  -17.4439   -6.5145 H        1 ZINC000097971833    0.0800
31     C31    -5.0939  -16.7767   -8.1030 C.3      1 ZINC000097971833   -0.1500
32     C32    -4.5465  -16.7147   -5.6645 C.3      1 ZINC000097971833    0.0700
33     O33    -5.0847  -16.5359   -4.3525 O.3      1 ZINC000097971833   -0.3800
34     C34    -6.2606  -15.1925   -2.7074 C.3      1 ZINC000097971833   -0.1100
35     H35    -7.1901  -14.6246   -2.6685 H        1 ZINC000097971833    0.1000
36     C36    -6.4613  -16.5876   -2.1120 C.3      1 ZINC000097971833   -0.1400
37     C37    -5.1161  -14.4500   -1.9468 C.3      1 ZINC000097971833   -0.1000
38     H38    -4.7197  -15.0248   -1.1098 H        1 ZINC000097971833    0.1000
39     C39    -5.6040  -13.0533   -1.5579 C.3      1 ZINC000097971833   -0.0500
40     C40    -6.5602  -12.5042   -2.6185 C.3      1 ZINC000097971833   -0.1500
41     C41    -6.2008  -12.9361   -0.1654 C.3      1 ZINC000097971833   -0.1000
42     C42    -6.5499  -11.4565    0.0559 C.3      1 ZINC000097971833   -0.1200
43     C43    -5.3318  -10.5396   -0.1074 C.3      1 ZINC000097971833   -0.0600
44     H44    -4.6138  -10.7789    0.6770 H        1 ZINC000097971833    0.0700
45     C45    -5.0042   -6.6394   -0.3642 C.3      1 ZINC000097971833   -0.1000
46     H46    -1.8315    2.3328    2.7813 H        1 ZINC000097971833    0.0500
47     H47    -3.2860    2.2065    1.7630 H        1 ZINC000097971833    0.0500
48     H48    -3.3990    1.9184    3.5159 H        1 ZINC000097971833    0.0500
49     H49    -1.8552    0.1953    1.5247 H        1 ZINC000097971833    0.0600
50     H50    -1.9683   -0.0928    3.2776 H        1 ZINC000097971833    0.0600
51     H51    -4.4301   -0.3157    3.0822 H        1 ZINC000097971833    0.0600
52     H52    -4.3171   -0.0276    1.3294 H        1 ZINC000097971833    0.0600
53     H53    -2.8864   -2.0388    1.0911 H        1 ZINC000097971833    0.0700
54     H54    -2.9994   -2.3269    2.8439 H        1 ZINC000097971833    0.0700
55     H55    -5.4613   -2.5498    2.6486 H        1 ZINC000097971833    0.1100
56     H56    -5.3483   -2.2617    0.8957 H        1 ZINC000097971833    0.1100
57     H57    -6.5494   -7.0395    2.6896 H        1 ZINC000097971833    0.0700
58     H58    -7.2509   -7.0863    1.0554 H        1 ZINC000097971833    0.0800
59     H59    -5.0274   -8.9182    2.0620 H        1 ZINC000097971833    0.0700
60     H60    -6.7438   -9.3709    1.9248 H        1 ZINC000097971833    0.0800
61     H61    -7.4026   -7.8575   -0.5862 H        1 ZINC000097971833    0.0600
62     H62    -6.9545   -9.1310   -1.7462 H        1 ZINC000097971833    0.0600
63     H63    -7.8274   -9.5538   -0.2537 H        1 ZINC000097971833    0.0600
64     H64    -3.0601   -7.7261   -1.6365 H        1 ZINC000097971833    0.1000
65     H65    -2.8857  -10.0235   -2.4670 H        1 ZINC000097971833    0.0700
66     H66    -2.6748  -10.2783   -0.7169 H        1 ZINC000097971833    0.0700
67     H67    -3.9229  -12.0604   -3.6850 H        1 ZINC000097971833    0.0800
68     H68    -2.5234  -12.6586   -2.7445 H        1 ZINC000097971833    0.0700
69     H69    -7.6583  -15.9090   -4.9361 H        1 ZINC000097971833    0.0800
70     H70    -7.3629  -14.1539   -5.0106 H        1 ZINC000097971833    0.0800
71     H71    -7.2210  -15.2462   -7.2661 H        1 ZINC000097971833    0.0700
72     H72    -5.6850  -14.4832   -6.7824 H        1 ZINC000097971833    0.0700
73     H73    -4.3807  -15.9720   -8.2821 H        1 ZINC000097971833    0.0600
74     H74    -4.5878  -17.7378   -8.1944 H        1 ZINC000097971833    0.0600
75     H75    -5.8986  -16.7187   -8.8359 H        1 ZINC000097971833    0.0600
76     H76    -4.0614  -17.6887   -5.7285 H        1 ZINC000097971833    0.0900
77     H77    -3.8162  -15.9313   -5.8674 H        1 ZINC000097971833    0.0600
78     H78    -5.5185  -17.1339   -2.1406 H        1 ZINC000097971833    0.0700
79     H79    -6.7974  -16.4969   -1.0791 H        1 ZINC000097971833    0.0500
80     H80    -7.2109  -17.1258   -2.6921 H        1 ZINC000097971833    0.0500
81     H81    -7.4898  -13.0731   -2.5991 H        1 ZINC000097971833    0.0500
82     H82    -6.7716  -11.4556   -2.4092 H        1 ZINC000097971833    0.0600
83     H83    -6.1005  -12.5928   -3.6029 H        1 ZINC000097971833    0.0700
84     H84    -7.1023  -13.5447   -0.0955 H        1 ZINC000097971833    0.0600
85     H85    -5.4737  -13.2613    0.5786 H        1 ZINC000097971833    0.0600
86     H86    -7.3059  -11.1575   -0.6701 H        1 ZINC000097971833    0.0700
87     H87    -6.9555  -11.3336    1.0601 H        1 ZINC000097971833    0.0600
88     H88    -5.8920   -6.3359   -0.9190 H        1 ZINC000097971833    0.0800
89     H89    -4.1404   -6.0746   -0.7149 H        1 ZINC000097971833    0.0700
@<TRIPOS>BOND
1     1     2     1
2     1     46    1
3     1     47    1
4     1     48    1
5     2     3     1
6     2     49    1
7     2     50    1
8     3     4     1
9     3     51    1
10    3     52    1
11    4     5     1
12    4     53    1
13    4     54    1
14    5     6     1
15    5     55    1
16    5     56    1
17    6     7     2
18    6     8     1
19    8     9     1
20    9     10    1
21    9     45    1
22    9     11    1
23    11    12    1
24    11    57    1
25    11    58    1
26    12    13    1
27    12    59    1
28    12    60    1
29    13    43    1
30    13    14    1
31    13    15    1
32    14    61    1
33    14    62    1
34    14    63    1
35    15    16    2
36    15    45    1
37    16    17    1
38    16    64    1
39    17    18    1
40    17    65    1
41    17    66    1
42    18    19    1
43    18    43    1
44    18    20    1
45    20    21    1
46    20    39    1
47    20    22    1
48    22    23    1
49    22    67    1
50    22    68    1
51    23    24    1
52    23    37    1
53    23    25    1
54    25    26    1
55    26    33    1
56    26    27    1
57    26    34    1
58    27    28    1
59    27    69    1
60    27    70    1
61    28    29    1
62    28    71    1
63    28    72    1
64    29    30    1
65    29    31    1
66    29    32    1
67    31    73    1
68    31    74    1
69    31    75    1
70    32    33    1
71    32    76    1
72    32    77    1
73    34    35    1
74    34    36    1
75    34    37    1
76    36    78    1
77    36    79    1
78    36    80    1
79    37    38    1
80    37    39    1
81    39    40    1
82    39    41    1
83    40    81    1
84    40    82    1
85    40    83    1
86    41    42    1
87    41    84    1
88    41    85    1
89    42    43    1
90    42    86    1
91    42    87    1
92    43    44    1
93    45    88    1
94    45    89    1
@<TRIPOS>SUBSTRUCTURE
1   ZINC000097971833 1     RESIDUE    1   A     ZIN   1
