@<TRIPOS>MOLECULE
ZINC000095936819
  48   50    0    0    0
SMALL
USER_CHARGES
NO_NAME
@<TRIPOS>ATOM
    1 F1        0.0021    -0.0041     0.0020 F      1 <0>      -0.1300
    2 C2       -0.0162     1.3468     0.0094 C.ar   1 <0>       0.1300
    3 C3       -1.2327     2.0188     0.0304 C.ar   1 <0>      -0.1700
    4 C4       -1.2705     3.3846     0.0382 C.ar   1 <0>      -0.0500
    5 C5       -0.0790     4.1117     0.0250 C.ar   1 <0>      -0.1100
    6 C6        0.2408     5.5417     0.0281 C.2    1 <0>      -0.2000
    7 C7       -0.7457     6.6808     0.0487 C.3    1 <0>      -0.0600
    8 C8       -1.1534     6.9761     1.4935 C.3    1 <0>      -0.0100
    9 N9       -2.1150     8.0865     1.5137 N.4    1 <0>      -0.5100
   10 H10      -1.6895     8.9074     1.1098 H      1 <0>       0.4300
   11 H11      -2.9322     7.8335     0.9786 H      1 <0>       0.4300
   12 C12      -2.5065     8.3701     2.9009 C.3    1 <0>       0.0500
   13 C13      -3.4930     9.5092     2.9215 C.ar   1 <0>      -0.1200
   14 C14      -3.0416    10.8121     3.0206 C.ar   1 <0>      -0.1300
   15 C15      -3.9443    11.8595     3.0399 C.ar   1 <0>      -0.0700
   16 C16      -5.2997    11.6062     2.9600 C.ar   1 <0>      -0.1800
   17 C17      -5.7553    10.2994     2.8605 C.ar   1 <0>       0.1400
   18 O18      -7.0885    10.0475     2.7814 O.3    1 <0>      -0.2900
   19 C19      -7.9645    11.1762     2.8063 C.3    1 <0>       0.0100
   20 C20      -9.4147    10.6985     2.7081 C.3    1 <0>       0.2600
   21 F21     -10.2724    11.8035     2.7325 F      1 <0>      -0.1600
   22 F22      -9.5941     9.9952     1.5121 F      1 <0>      -0.1700
   23 C23      -9.7308     9.7814     3.8913 C.3    1 <0>       0.2400
   24 F24     -11.0568     9.3446     3.8015 F      1 <0>      -0.1800
   25 F25      -8.8731     8.6764     3.8669 F      1 <0>      -0.1700
   26 C26      -4.8476     9.2508     2.8357 C.ar   1 <0>      -0.1200
   27 C27       1.5788     5.6447     0.0094 C.2    1 <0>       0.0900
   28 N28       2.1427     4.3973    -0.0053 N.pl3  1 <0>      -0.5900
   29 C29       1.1556     3.4373     0.0038 C.ar   1 <0>       0.1200
   30 C30       1.1730     2.0466     0.0018 C.ar   1 <0>      -0.1600
   31 H31      -2.1551     1.4571     0.0403 H      1 <0>       0.1400
   32 H32      -2.2194     3.9001     0.0542 H      1 <0>       0.1300
   33 H33      -0.2860     7.5675    -0.3876 H      1 <0>       0.0900
   34 H34      -1.6285     6.4074    -0.5293 H      1 <0>       0.0900
   35 H35      -1.6132     6.0894     1.9299 H      1 <0>       0.1300
   36 H36      -0.2707     7.2495     2.0715 H      1 <0>       0.1300
   37 H37      -2.9663     7.4833     3.3372 H      1 <0>       0.1400
   38 H38      -1.6238     8.6434     3.4789 H      1 <0>       0.1400
   39 H39      -1.9821    11.0122     3.0835 H      1 <0>       0.1400
   40 H40      -3.5891    12.8765     3.1177 H      1 <0>       0.1400
   41 H41      -6.0043    12.4245     2.9754 H      1 <0>       0.1400
   42 H42      -7.8248    11.7241     3.7381 H      1 <0>       0.1100
   43 H43      -7.7393    11.8296     1.9633 H      1 <0>       0.1100
   44 H44      -9.5910    10.3294     4.8232 H      1 <0>       0.1400
   45 H45      -5.1998     8.2328     2.7583 H      1 <0>       0.1400
   46 H46       2.1291     6.5740     0.0059 H      1 <0>       0.1800
   47 H47       3.0956     4.2166    -0.0197 H      1 <0>       0.4300
   48 H48       2.1138     1.5163    -0.0087 H      1 <0>       0.1400
@<TRIPOS>BOND
   1    1    2 1
   2    2   30 ar
   3    2    3 ar
   4    3    4 ar
   5    3   31 1
   6    4    5 ar
   7    4   32 1
   8    5   29 ar
   9    5    6 1
  10    6    7 1
  11    6   27 2
  12    7    8 1
  13    7   33 1
  14    7   34 1
  15    8    9 1
  16    8   35 1
  17    8   36 1
  18    9   10 1
  19    9   11 1
  20    9   12 1
  21   12   13 1
  22   12   37 1
  23   12   38 1
  24   13   26 ar
  25   13   14 ar
  26   14   15 ar
  27   14   39 1
  28   15   16 ar
  29   15   40 1
  30   16   17 ar
  31   16   41 1
  32   17   18 1
  33   17   26 ar
  34   18   19 1
  35   19   20 1
  36   19   42 1
  37   19   43 1
  38   20   21 1
  39   20   22 1
  40   20   23 1
  41   23   24 1
  42   23   25 1
  43   23   44 1
  44   26   45 1
  45   27   28 1
  46   27   46 1
  47   28   29 1
  48   28   47 1
  49   29   30 ar
  50   30   48 1
