@<TRIPOS>MOLECULE
ZINC000016696900
44    46    1     0     0
SMALL
USER_CHARGES
@<TRIPOS>ATOM
1      C1      2.4982   -1.0964    1.5321 C.3      1 ZINC000016696900   -0.1100
2      C2      1.2070   -1.4181    0.8248 C.ar     1 ZINC000016696900   -0.1600
3      C3      1.2222   -2.1734   -0.3407 C.ar     1 ZINC000016696900    0.2200
4      N4      2.4338   -2.6364   -0.8590 N.pl3    1 ZINC000016696900   -0.8800
5      C5      0.0295   -2.4676   -0.9897 C.ar     1 ZINC000016696900   -0.1900
6      C6     -1.1665   -2.0087   -0.4744 C.ar     1 ZINC000016696900   -0.0700
7      C7     -1.1781   -1.2569    0.6864 C.ar     1 ZINC000016696900   -0.1600
8      C8      0.0065   -0.9670    1.3379 C.ar     1 ZINC000016696900   -0.0600
9      C9     -0.0110   -0.1474    2.6024 C.3      1 ZINC000016696900    0.1300
10     N10    -1.3977    0.0963    3.0072 N.am     1 ZINC000016696900   -0.5000
11     C11    -2.0256    1.2284    2.5939 C.2      1 ZINC000016696900    0.1700
12     C12    -3.3030    1.4820    2.9504 C.2      1 ZINC000016696900   -0.2400
13     C13    -3.9994    0.5638    3.7613 C.2      1 ZINC000016696900    0.2300
14     O14    -5.2814    0.8037    4.1270 O.3      1 ZINC000016696900   -0.3000
15     C15    -5.9156   -0.1773    4.9501 C.3      1 ZINC000016696900    0.0600
16     C16    -7.3480    0.2639    5.2576 C.3      1 ZINC000016696900   -0.0400
17     C17    -8.0169   -0.7706    6.1256 C.2      1 ZINC000016696900   -0.1900
18     C18    -8.0111   -0.7753    7.4595 C.2      1 ZINC000016696900   -0.1300
19     C19    -8.6947   -1.8286    8.0420 C.2      1 ZINC000016696900   -0.1400
20     C20    -9.2556   -2.6793    7.1812 C.2      1 ZINC000016696900   -0.2100
21     S21    -8.9309   -2.1523    5.5349 S.3      1 ZINC000016696900    0.1100
22     C22    -3.3542   -0.5859    4.1775 C.2      1 ZINC000016696900   -0.3600
23     C23    -2.0310   -0.8072    3.7780 C.2      1 ZINC000016696900    0.5300
24     O24    -1.4470   -1.8178    4.1371 O.2      1 ZINC000016696900   -0.5500
25     H25     2.7561   -1.9128    2.2067 H        1 ZINC000016696900    0.0700
26     H26     3.2927   -0.9676    0.7972 H        1 ZINC000016696900    0.0600
27     H27     2.3796   -0.1761    2.1041 H        1 ZINC000016696900    0.0700
28     H28     3.2658   -2.4306   -0.4048 H        1 ZINC000016696900    0.4000
29     H29     2.4432   -3.1637   -1.6730 H        1 ZINC000016696900    0.4000
30     H30     0.0379   -3.0544   -1.8964 H        1 ZINC000016696900    0.1200
31     H31    -2.0940   -2.2368   -0.9786 H        1 ZINC000016696900    0.1200
32     H32    -2.1149   -0.8988    1.0871 H        1 ZINC000016696900    0.1100
33     H33     0.5086   -0.6885    3.3933 H        1 ZINC000016696900    0.1100
34     H34     0.4885    0.8050    2.4251 H        1 ZINC000016696900    0.1100
35     H35    -1.4956    1.9349    1.9722 H        1 ZINC000016696900    0.1700
36     H36    -3.7894    2.3861    2.6152 H        1 ZINC000016696900    0.1600
37     H37    -5.9343   -1.1334    4.4270 H        1 ZINC000016696900    0.0700
38     H38    -5.3603   -0.2838    5.8819 H        1 ZINC000016696900    0.0700
39     H39    -7.3293    1.2200    5.7807 H        1 ZINC000016696900    0.1000
40     H40    -7.9033    0.3704    4.3258 H        1 ZINC000016696900    0.0900
41     H41    -7.5107   -0.0151    8.0409 H        1 ZINC000016696900    0.1400
42     H42    -8.7681   -1.9525    9.1124 H        1 ZINC000016696900    0.1400
43     H43    -9.8251   -3.5556    7.4535 H        1 ZINC000016696900    0.1700
44     H44    -3.8655   -1.3056    4.7996 H        1 ZINC000016696900    0.1500
@<TRIPOS>BOND
1     1     2     1
2     1     25    1
3     1     26    1
4     1     27    1
5     2     8     ar
6     2     3     ar
7     3     4     1
8     3     5     ar
9     4     28    1
10    4     29    1
11    5     6     ar
12    5     30    1
13    6     7     ar
14    6     31    1
15    7     8     ar
16    7     32    1
17    8     9     1
18    9     10    1
19    9     33    1
20    9     34    1
21    10    23    am
22    10    11    1
23    11    12    2
24    11    35    1
25    12    13    1
26    12    36    1
27    13    14    1
28    13    22    2
29    14    15    1
30    15    16    1
31    15    37    1
32    15    38    1
33    16    17    1
34    16    39    1
35    16    40    1
36    17    21    1
37    17    18    2
38    18    19    1
39    18    41    1
40    19    20    2
41    19    42    1
42    20    21    1
43    20    43    1
44    22    23    1
45    22    44    1
46    23    24    2
@<TRIPOS>SUBSTRUCTURE
1   ZINC000016696900 1     RESIDUE    1   A     ZIN   1
