@<TRIPOS>MOLECULE
ZINC000043208642
53    55    1     0     0
SMALL
USER_CHARGES
@<TRIPOS>ATOM
1      C1     -0.0187    1.5258    0.0104 C.3      1 ZINC000043208642   -0.1400
2      C2      0.0021   -0.0041    0.0020 C.3      1 ZINC000043208642   -0.1000
3      C3      0.7421   -0.5109    1.2415 C.3      1 ZINC000043208642   -0.1400
4      C4     -1.4117   -0.5257    0.0127 C.2      1 ZINC000043208642    0.5300
5      O5     -1.8076   -1.2234   -0.8969 O.2      1 ZINC000043208642   -0.4800
6      N6     -2.2363   -0.2169    1.0331 N.am     1 ZINC000043208642   -0.7300
7      C7     -3.6107   -0.7239    1.0435 C.3      1 ZINC000043208642    0.0800
8      C8     -4.3268   -0.2305    2.3023 C.3      1 ZINC000043208642    0.2500
9      F9     -3.6502   -0.6940    3.4357 F        1 ZINC000043208642   -0.1600
10     F10    -4.3458    1.1683    2.3100 F        1 ZINC000043208642   -0.1600
11     C11    -5.7622   -0.7601    2.3132 C.3      1 ZINC000043208642    0.4300
12     F12    -5.7432   -2.1589    2.3055 F        1 ZINC000043208642   -0.1500
13     F13    -6.4170   -0.3089    3.4642 F        1 ZINC000043208642   -0.1600
14     F14    -6.4388   -0.2967    1.1798 F        1 ZINC000043208642   -0.1500
15     C15     0.7074   -0.4901   -1.2379 C.2      1 ZINC000043208642    0.5200
16     O16     0.1200   -1.1910   -2.0344 O.2      1 ZINC000043208642   -0.4800
17     N17     1.9912   -0.1458   -1.4616 N.am     1 ZINC000043208642   -0.7200
18     C18     2.6769   -0.6183   -2.6669 C.3      1 ZINC000043208642    0.1800
19     H19     1.9701   -0.6604   -3.4956 H        1 ZINC000043208642    0.1300
20     C20     3.8000    0.3247   -3.0100 C.ar     1 ZINC000043208642   -0.1000
21     C21     3.8076    0.9249   -4.2568 C.ar     1 ZINC000043208642   -0.0900
22     C22     4.8271    1.7907   -4.6065 C.ar     1 ZINC000043208642   -0.1100
23     C23     5.8445    2.0587   -3.7087 C.ar     1 ZINC000043208642   -0.1000
24     C24     5.8421    1.4674   -2.4641 C.ar     1 ZINC000043208642   -0.1100
25     C25     4.8098    0.5918   -2.1024 C.ar     1 ZINC000043208642   -0.0300
26     C26     4.8486   -0.0007   -0.7448 C.ar     1 ZINC000043208642   -0.0800
27     C27     5.2718    0.8399    0.2950 C.ar     1 ZINC000043208642   -0.0900
28     C28     5.3339    0.3772    1.5899 C.ar     1 ZINC000043208642   -0.1300
29     C29     4.9759   -0.9290    1.8738 C.ar     1 ZINC000043208642   -0.0900
30     C30     4.5605   -1.7655    0.8612 C.ar     1 ZINC000043208642   -0.1400
31     C31     4.4952   -1.3117   -0.4595 C.ar     1 ZINC000043208642    0.1700
32     N32     4.0791   -2.2304   -1.4123 N.am     1 ZINC000043208642   -0.6600
33     C33     3.2430   -1.9875   -2.4190 C.2      1 ZINC000043208642    0.5200
34     O34     2.9331   -2.8970   -3.1591 O.2      1 ZINC000043208642   -0.5100
35     H35     1.0039    1.9031    0.0027 H        1 ZINC000043208642    0.0800
36     H36    -0.5459    1.8868   -0.8726 H        1 ZINC000043208642    0.0700
37     H37    -0.5289    1.8773    0.9072 H        1 ZINC000043208642    0.0800
38     H38     0.2319   -0.1594    2.1383 H        1 ZINC000043208642    0.0800
39     H39     0.7568   -1.6008    1.2356 H        1 ZINC000043208642    0.0700
40     H40     1.7647   -0.1336    1.2338 H        1 ZINC000043208642    0.0800
41     H41    -1.9197    0.3412    1.7606 H        1 ZINC000043208642    0.4100
42     H42    -4.1378   -0.3629    0.1605 H        1 ZINC000043208642    0.1200
43     H43    -3.5959   -1.8138    1.0375 H        1 ZINC000043208642    0.1200
44     H44     2.4610    0.4148   -0.8245 H        1 ZINC000043208642    0.4000
45     H45     3.0145    0.7159   -4.9594 H        1 ZINC000043208642    0.1300
46     H46     4.8294    2.2573   -5.5805 H        1 ZINC000043208642    0.1300
47     H47     6.6421    2.7331   -3.9835 H        1 ZINC000043208642    0.1300
48     H48     6.6386    1.6786   -1.7659 H        1 ZINC000043208642    0.1300
49     H49     5.5520    1.8600    0.0776 H        1 ZINC000043208642    0.1300
50     H50     5.6619    1.0326    2.3831 H        1 ZINC000043208642    0.1300
51     H51     5.0224   -1.2928    2.8897 H        1 ZINC000043208642    0.1300
52     H52     4.2826   -2.7837    1.0901 H        1 ZINC000043208642    0.1300
53     H53     4.4278   -3.1324   -1.3363 H        1 ZINC000043208642    0.4100
@<TRIPOS>BOND
1     1     2     1
2     1     35    1
3     1     36    1
4     1     37    1
5     2     3     1
6     2     4     1
7     2     15    1
8     3     38    1
9     3     39    1
10    3     40    1
11    4     5     2
12    4     6     am
13    6     7     1
14    6     41    1
15    7     8     1
16    7     42    1
17    7     43    1
18    8     9     1
19    8     10    1
20    8     11    1
21    11    12    1
22    11    13    1
23    11    14    1
24    15    16    2
25    15    17    am
26    17    18    1
27    17    44    1
28    18    19    1
29    18    33    1
30    18    20    1
31    20    25    ar
32    20    21    ar
33    21    22    ar
34    21    45    1
35    22    23    ar
36    22    46    1
37    23    24    ar
38    23    47    1
39    24    25    ar
40    24    48    1
41    25    26    1
42    26    31    ar
43    26    27    ar
44    27    28    ar
45    27    49    1
46    28    29    ar
47    28    50    1
48    29    30    ar
49    29    51    1
50    30    31    ar
51    30    52    1
52    31    32    1
53    32    33    am
54    32    53    1
55    33    34    2
@<TRIPOS>SUBSTRUCTURE
1   ZINC000043208642 1     RESIDUE    1   A     ZIN   1
