@<TRIPOS>MOLECULE
ZINC000034997404
52    55    1     0     0
SMALL
USER_CHARGES
@<TRIPOS>ATOM
1      C1     -2.0920    0.4778    0.6302 C.3      1 ZINC000034997404   -0.1100
2      C2     -0.9921   -0.4983    0.3009 C.ar     1 ZINC000034997404    0.0000
3      C3     -1.0549   -1.2445   -0.8567 C.ar     1 ZINC000034997404   -0.1600
4      C4     -0.0440   -2.1432   -1.1606 C.ar     1 ZINC000034997404    0.1300
5      F5     -0.1103   -2.8724   -2.2959 F        1 ZINC000034997404   -0.1300
6      C6      1.0347   -2.2959   -0.3038 C.ar     1 ZINC000034997404   -0.1600
7      C7      1.1069   -1.5542    0.8566 C.ar     1 ZINC000034997404   -0.0600
8      C8      0.0947   -0.6444    1.1644 C.ar     1 ZINC000034997404   -0.0800
9      C9      0.1671    0.1540    2.4083 C.ar     1 ZINC000034997404    0.3400
10     N10     0.0343    1.4771    2.3784 N.ar     1 ZINC000034997404   -0.5700
11     C11     0.0981    2.1967    3.4909 C.ar     1 ZINC000034997404    0.6200
12     N12    -0.0467    3.5672    3.4034 N.pl3    1 ZINC000034997404   -0.6600
13     C13     0.0189    4.3895    4.6141 C.3      1 ZINC000034997404    0.1600
14     C14     0.4521    5.8093    4.2435 C.3      1 ZINC000034997404    0.0700
15     O15    -0.5524    6.4163    3.4283 O.3      1 ZINC000034997404   -0.5400
16     C16    -1.3598    4.4334    5.2761 C.3      1 ZINC000034997404    0.0700
17     O17    -2.2813    5.1034    4.4135 O.3      1 ZINC000034997404   -0.5400
18     N18     0.2947    1.6524    4.6827 N.ar     1 ZINC000034997404   -0.6000
19     C19     0.4385    0.3387    4.8118 C.ar     1 ZINC000034997404    0.4700
20     C20     0.3730   -0.4696    3.6581 C.ar     1 ZINC000034997404   -0.2700
21     C21     0.5241   -1.8693    3.7751 C.2      1 ZINC000034997404    0.0100
22     C22     0.7306   -2.4080    5.0057 C.2      1 ZINC000034997404   -0.2300
23     C23     0.7919   -1.5779    6.1423 C.2      1 ZINC000034997404    0.5500
24     O24     0.9781   -2.0765    7.2391 O.2      1 ZINC000034997404   -0.5100
25     N25     0.6435   -0.2434    6.0383 N.am     1 ZINC000034997404   -0.4600
26     C26     0.7094    0.5569    7.1876 C.ar     1 ZINC000034997404    0.0600
27     C27    -0.4439    0.8298    7.9139 C.ar     1 ZINC000034997404    0.1500
28     F28    -1.6310    0.3241    7.5134 F        1 ZINC000034997404   -0.1200
29     C29    -0.3746    1.6196    9.0476 C.ar     1 ZINC000034997404   -0.1600
30     C30     0.8398    2.1372    9.4586 C.ar     1 ZINC000034997404   -0.0500
31     C31     1.9893    1.8685    8.7387 C.ar     1 ZINC000034997404   -0.1600
32     C32     1.9292    1.0749    7.6071 C.ar     1 ZINC000034997404    0.1500
33     F33     3.0529    0.8128    6.9043 F        1 ZINC000034997404   -0.1200
34     H34    -1.8105    1.4725    0.2847 H        1 ZINC000034997404    0.0900
35     H35    -3.0126    0.1684    0.1355 H        1 ZINC000034997404    0.0700
36     H36    -2.2484    0.4986    1.7088 H        1 ZINC000034997404    0.0600
37     H37    -1.8932   -1.1289   -1.5277 H        1 ZINC000034997404    0.1400
38     H38     1.8199   -2.9970   -0.5452 H        1 ZINC000034997404    0.1500
39     H39     1.9477   -1.6741    1.5238 H        1 ZINC000034997404    0.1400
40     H40    -0.1918    3.9855    2.5403 H        1 ZINC000034997404    0.4300
41     H41     0.7412    3.9585    5.3074 H        1 ZINC000034997404    0.1100
42     H42     0.5868    6.3968    5.1517 H        1 ZINC000034997404    0.0600
43     H43     1.3921    5.7704    3.6932 H        1 ZINC000034997404    0.0500
44     H44    -0.3440    7.3202    3.1551 H        1 ZINC000034997404    0.3700
45     H45    -1.7073    3.4166    5.4595 H        1 ZINC000034997404    0.0500
46     H46    -1.2917    4.9703    6.2223 H        1 ZINC000034997404    0.0500
47     H47    -3.1778    5.1682    4.7700 H        1 ZINC000034997404    0.3700
48     H48     0.4759   -2.5012    2.9007 H        1 ZINC000034997404    0.1500
49     H49     0.8478   -3.4763    5.1127 H        1 ZINC000034997404    0.1600
50     H50    -1.2704    1.8323    9.6122 H        1 ZINC000034997404    0.1500
51     H51     0.8907    2.7534   10.3441 H        1 ZINC000034997404    0.1500
52     H52     2.9359    2.2752    9.0625 H        1 ZINC000034997404    0.1500
@<TRIPOS>BOND
1     1     2     1
2     1     34    1
3     1     35    1
4     1     36    1
5     2     8     ar
6     2     3     ar
7     3     4     ar
8     3     37    1
9     4     5     1
10    4     6     ar
11    6     7     ar
12    6     38    1
13    7     8     ar
14    7     39    1
15    8     9     1
16    9     20    ar
17    9     10    ar
18    10    11    ar
19    11    12    1
20    11    18    ar
21    12    13    1
22    12    40    1
23    13    14    1
24    13    16    1
25    13    41    1
26    14    15    1
27    14    42    1
28    14    43    1
29    15    44    1
30    16    17    1
31    16    45    1
32    16    46    1
33    17    47    1
34    18    19    ar
35    19    25    1
36    19    20    ar
37    20    21    1
38    21    22    2
39    21    48    1
40    22    23    1
41    22    49    1
42    23    24    2
43    23    25    am
44    25    26    1
45    26    32    ar
46    26    27    ar
47    27    28    1
48    27    29    ar
49    29    30    ar
50    29    50    1
51    30    31    ar
52    30    51    1
53    31    32    ar
54    31    52    1
55    32    33    1
@<TRIPOS>SUBSTRUCTURE
1   ZINC000034997404 1     RESIDUE    1   A     ZIN   1
