@<TRIPOS>MOLECULE
ZINC000034842823
41    43    1     0     0
SMALL
USER_CHARGES
@<TRIPOS>ATOM
1      C1      1.2676    1.8822   -0.1075 C.3      1 ZINC000034842823   -0.0500
2      N2      0.9164    0.4580   -0.0290 N.4      1 ZINC000034842823   -0.5100
3      H3      1.1451    0.1052    0.8882 H        1 ZINC000034842823    0.4300
4      H4     -0.0724    0.3458   -0.1956 H        1 ZINC000034842823    0.4300
5      C5      1.6718   -0.2893   -1.0434 C.3      1 ZINC000034842823    0.0800
6      C6      1.3114   -1.7503   -0.9629 C.2      1 ZINC000034842823   -0.2100
7      C7      1.9232   -2.6809   -0.1990 C.2      1 ZINC000034842823    0.0600
8      N8      1.3074   -3.8804   -0.4028 N.am     1 ZINC000034842823   -0.7900
9      S9      1.7161   -5.3119    0.3224 S.o2     1 ZINC000034842823    2.6600
10     O10     2.0478   -4.9995    1.6684 O.2      1 ZINC000034842823   -0.9100
11     O11     0.7044   -6.2446   -0.0323 O.2      1 ZINC000034842823   -0.9000
12     C12     3.2019   -5.8763   -0.4381 C.ar     1 ZINC000034842823   -0.7400
13     C13     3.1543   -6.7910   -1.4787 C.ar     1 ZINC000034842823    0.0300
14     C14     4.3488   -7.2066   -2.0474 C.ar     1 ZINC000034842823   -0.1800
15     C15     5.5385   -6.6989   -1.5613 C.ar     1 ZINC000034842823    0.1700
16     N16     5.5459   -5.8298   -0.5694 N.ar     1 ZINC000034842823   -0.4900
17     C17     4.4296   -5.4084   -0.0084 C.ar     1 ZINC000034842823    0.2000
18     C18     0.2929   -3.7031   -1.3082 C.2      1 ZINC000034842823    0.1000
19     C19    -0.6230   -4.7519   -1.8053 C.ar     1 ZINC000034842823   -0.0900
20     C20    -0.1136   -5.8781   -2.4520 C.ar     1 ZINC000034842823   -0.0500
21     C21    -0.9737   -6.8536   -2.9138 C.ar     1 ZINC000034842823   -0.1200
22     C22    -2.3391   -6.7173   -2.7376 C.ar     1 ZINC000034842823   -0.0600
23     C23    -2.8528   -5.6037   -2.0974 C.ar     1 ZINC000034842823   -0.1500
24     C24    -2.0030   -4.6223   -1.6245 C.ar     1 ZINC000034842823    0.1300
25     F25    -2.5051   -3.5351   -0.9990 F        1 ZINC000034842823   -0.1300
26     C26     0.2749   -2.3881   -1.6642 C.2      1 ZINC000034842823   -0.1300
27     H27     2.3358    2.0034    0.0725 H        1 ZINC000034842823    0.1200
28     H28     1.0206    2.2633   -1.0984 H        1 ZINC000034842823    0.1200
29     H29     0.7072    2.4367    0.6452 H        1 ZINC000034842823    0.1300
30     H30     1.4247    0.0918   -2.0343 H        1 ZINC000034842823    0.1400
31     H31     2.7399   -0.1680   -0.8635 H        1 ZINC000034842823    0.1400
32     H32     2.7593   -2.5049    0.4616 H        1 ZINC000034842823    0.2000
33     H33     2.2093   -7.1710   -1.8378 H        1 ZINC000034842823    0.1600
34     H34     4.3492   -7.9184   -2.8596 H        1 ZINC000034842823    0.1600
35     H35     6.4731   -7.0179   -1.9985 H        1 ZINC000034842823    0.1800
36     H36     4.4753   -4.6958    0.8019 H        1 ZINC000034842823    0.1700
37     H37     0.9519   -5.9863   -2.5913 H        1 ZINC000034842823    0.1200
38     H38    -0.5798   -7.7256   -3.4145 H        1 ZINC000034842823    0.1400
39     H39    -3.0071   -7.4838   -3.1018 H        1 ZINC000034842823    0.1400
40     H40    -3.9198   -5.5035   -1.9631 H        1 ZINC000034842823    0.1500
41     H41    -0.4065   -1.9233   -2.3613 H        1 ZINC000034842823    0.1600
@<TRIPOS>BOND
1     1     2     1
2     1     27    1
3     1     28    1
4     1     29    1
5     2     3     1
6     2     4     1
7     2     5     1
8     5     6     1
9     5     30    1
10    5     31    1
11    6     26    1
12    6     7     2
13    7     8     1
14    7     32    1
15    8     9     am
16    8     18    1
17    9     10    2
18    9     11    2
19    9     12    1
20    12    17    ar
21    12    13    ar
22    13    14    ar
23    13    33    1
24    14    15    ar
25    14    34    1
26    15    16    ar
27    15    35    1
28    16    17    ar
29    17    36    1
30    18    19    1
31    18    26    2
32    19    24    ar
33    19    20    ar
34    20    21    ar
35    20    37    1
36    21    22    ar
37    21    38    1
38    22    23    ar
39    22    39    1
40    23    24    ar
41    23    40    1
42    24    25    1
43    26    41    1
@<TRIPOS>SUBSTRUCTURE
1   ZINC000034842823 1     RESIDUE    1   A     ZIN   1
