@<TRIPOS>MOLECULE
ZINC000022448680
74    78    1     0     0
SMALL
USER_CHARGES
@<TRIPOS>ATOM
1      C1      1.7435    0.8242    0.8643 C.3      1 ZINC000022448680    0.0200
2      O2      1.2637   -0.4958    0.6005 O.3      1 ZINC000022448680   -0.3000
3      C3      1.3580   -0.9424   -0.6806 C.ar     1 ZINC000022448680    0.1500
4      C4      1.9060   -0.1290   -1.6609 C.ar     1 ZINC000022448680   -0.2100
5      C5      2.0022   -0.5820   -2.9633 C.ar     1 ZINC000022448680   -0.0200
6      C6      2.5985    0.3054   -4.0254 C.3      1 ZINC000022448680    0.0200
7      H7      2.4497    1.3515   -3.7578 H        1 ZINC000022448680    0.1100
8      C8      1.9397    0.0187   -5.3636 C.ar     1 ZINC000022448680   -0.0500
9      C9      0.6764    0.5795   -5.5585 C.ar     1 ZINC000022448680   -0.0800
10     C10     0.0440    0.3519   -6.7691 C.ar     1 ZINC000022448680    0.0400
11     C11     0.6588   -0.4180   -7.7682 C.ar     1 ZINC000022448680    0.0300
12     C12     1.9109   -0.9738   -7.5665 C.ar     1 ZINC000022448680   -0.1000
13     C13     2.5392   -0.7465   -6.3407 C.ar     1 ZINC000022448680   -0.0700
14     C14     3.8951   -1.4042   -6.1539 C.3      1 ZINC000022448680   -0.0300
15     H15     3.8744   -2.4144   -6.5628 H        1 ZINC000022448680    0.1000
16     C16     4.9719   -0.5808   -6.8635 C.3      1 ZINC000022448680   -0.1200
17     C17     4.7327   -0.6221   -8.3741 C.3      1 ZINC000022448680    0.0500
18     N18     5.7665    0.1684   -9.0554 N.3      1 ZINC000022448680   -0.5300
19     C19     7.0909   -0.4465   -8.8944 C.3      1 ZINC000022448680    0.0100
20     C20     5.4396    0.3499  -10.4760 C.3      1 ZINC000022448680    0.0300
21     C21     6.3941    1.3747  -11.0921 C.3      1 ZINC000022448680   -0.0100
22     N22     6.0672    1.5562  -12.5127 N.4      1 ZINC000022448680   -0.3900
23     H23     5.0941    1.8067  -12.6046 H        1 ZINC000022448680    0.4300
24     C24     6.9032    2.6254  -13.0749 C.3      1 ZINC000022448680   -0.0500
25     C25     6.3210    0.3039  -13.2375 C.3      1 ZINC000022448680   -0.0500
26     C26     4.1866   -1.4587   -4.6660 C.3      1 ZINC000022448680   -0.1400
27     H27     3.5016   -2.1259   -4.1429 H        1 ZINC000022448680    0.1200
28     C28     5.6525   -1.7336   -4.2955 C.3      1 ZINC000022448680    0.0600
29     O29     5.8065   -1.0317   -3.0133 O.3      1 ZINC000022448680   -0.3400
30     C30     4.8920   -0.0406   -2.8961 C.2      1 ZINC000022448680    0.4900
31     O31     4.7428    0.6741   -1.9334 O.2      1 ZINC000022448680   -0.4400
32     C32     4.0790    0.0172   -4.1618 C.3      1 ZINC000022448680   -0.1600
33     H33     4.5454    0.6890   -4.8823 H        1 ZINC000022448680    0.1300
34     O34    -0.1645   -0.4791   -8.8394 O.3      1 ZINC000022448680   -0.3100
35     C35    -1.4610   -0.0734   -8.3533 C.3      1 ZINC000022448680    0.2100
36     O36    -1.1624    0.7661   -7.2185 O.3      1 ZINC000022448680   -0.3000
37     C37     1.5534   -1.8469   -3.2940 C.ar     1 ZINC000022448680   -0.2300
38     C38     1.0041   -2.6665   -2.3197 C.ar     1 ZINC000022448680    0.1400
39     O39     0.5628   -3.9107   -2.6461 O.3      1 ZINC000022448680   -0.3000
40     C40     0.6960   -4.3087   -4.0120 C.3      1 ZINC000022448680    0.0300
41     C41     0.9104   -2.2167   -1.0080 C.ar     1 ZINC000022448680    0.0500
42     O42     0.3719   -3.0181   -0.0488 O.3      1 ZINC000022448680   -0.4700
43     H43     2.8019    0.8836    0.6106 H        1 ZINC000022448680    0.0600
44     H44     1.1848    1.5409    0.2625 H        1 ZINC000022448680    0.0600
45     H45     1.6097    1.0548    1.9212 H        1 ZINC000022448680    0.1100
46     H46     2.2578    0.8599   -1.4065 H        1 ZINC000022448680    0.1400
47     H47     0.2066    1.1733   -4.7884 H        1 ZINC000022448680    0.1500
48     H48     2.3871   -1.5653   -8.3344 H        1 ZINC000022448680    0.1400
49     H49     4.9273    0.4516   -6.5166 H        1 ZINC000022448680    0.0800
50     H50     5.9541   -0.9972   -6.6397 H        1 ZINC000022448680    0.0800
51     H51     4.7773   -1.6545   -8.7209 H        1 ZINC000022448680    0.0500
52     H52     3.7505   -0.2057   -8.5979 H        1 ZINC000022448680    0.0900
53     H53     7.0801   -1.4495   -9.3210 H        1 ZINC000022448680    0.0400
54     H54     7.8375    0.1589   -9.4083 H        1 ZINC000022448680    0.0700
55     H55     7.3377   -0.5052   -7.8343 H        1 ZINC000022448680    0.0900
56     H56     5.5428   -0.6019  -10.9971 H        1 ZINC000022448680    0.0600
57     H57     4.4138    0.7063  -10.5701 H        1 ZINC000022448680    0.1000
58     H58     6.2909    2.3265  -10.5710 H        1 ZINC000022448680    0.1400
59     H59     7.4199    1.0183  -10.9980 H        1 ZINC000022448680    0.1300
60     H60     7.9544    2.3548  -12.9756 H        1 ZINC000022448680    0.1200
61     H61     6.6606    2.7601  -14.1289 H        1 ZINC000022448680    0.1300
62     H62     6.7148    3.5546  -12.5371 H        1 ZINC000022448680    0.1200
63     H63     6.0784    0.4386  -14.2916 H        1 ZINC000022448680    0.1300
64     H64     7.3722    0.0334  -13.1383 H        1 ZINC000022448680    0.1200
65     H65     5.7007   -0.4894  -12.8204 H        1 ZINC000022448680    0.1200
66     H66     5.8251   -2.8028   -4.1729 H        1 ZINC000022448680    0.1100
67     H67     6.3243   -1.3171   -5.0460 H        1 ZINC000022448680    0.0900
68     H68    -1.9954    0.4921   -9.1167 H        1 ZINC000022448680    0.1400
69     H69    -2.0418   -0.9422   -8.0434 H        1 ZINC000022448680    0.0900
70     H70     1.6304   -2.1971   -4.3127 H        1 ZINC000022448680    0.1400
71     H71     1.7482   -4.2874   -4.2958 H        1 ZINC000022448680    0.0500
72     H72     0.3068   -5.3193   -4.1356 H        1 ZINC000022448680    0.1000
73     H73     0.1346   -3.6230   -4.6466 H        1 ZINC000022448680    0.0500
74     H74     1.0166   -3.5824    0.3997 H        1 ZINC000022448680    0.3900
@<TRIPOS>BOND
1     1     2     1
2     1     43    1
3     1     44    1
4     1     45    1
5     2     3     1
6     3     41    ar
7     3     4     ar
8     4     5     ar
9     4     46    1
10    5     6     1
11    5     37    ar
12    6     7     1
13    6     32    1
14    6     8     1
15    8     13    ar
16    8     9     ar
17    9     10    ar
18    9     47    1
19    10    36    1
20    10    11    ar
21    11    12    ar
22    11    34    1
23    12    13    ar
24    12    48    1
25    13    14    1
26    14    15    1
27    14    16    1
28    14    26    1
29    16    17    1
30    16    49    1
31    16    50    1
32    17    18    1
33    17    51    1
34    17    52    1
35    18    19    1
36    18    20    1
37    19    53    1
38    19    54    1
39    19    55    1
40    20    21    1
41    20    56    1
42    20    57    1
43    21    22    1
44    21    58    1
45    21    59    1
46    22    23    1
47    22    24    1
48    22    25    1
49    24    60    1
50    24    61    1
51    24    62    1
52    25    63    1
53    25    64    1
54    25    65    1
55    26    27    1
56    26    32    1
57    26    28    1
58    28    29    1
59    28    66    1
60    28    67    1
61    29    30    1
62    30    31    2
63    30    32    1
64    32    33    1
65    34    35    1
66    35    36    1
67    35    68    1
68    35    69    1
69    37    38    ar
70    37    70    1
71    38    39    1
72    38    41    ar
73    39    40    1
74    40    71    1
75    40    72    1
76    40    73    1
77    41    42    1
78    42    74    1
@<TRIPOS>SUBSTRUCTURE
1   ZINC000022448680 1     RESIDUE    1   A     ZIN   1
