@<TRIPOS>MOLECULE
ZINC000003948095
77    79    1     0     0
SMALL
USER_CHARGES
@<TRIPOS>ATOM
1      C1      1.4174    1.7259   -0.9221 C.3      1 ZINC000003948095   -0.1700
2      S2      1.1201   -0.0460   -0.7031 S.3      1 ZINC000003948095    0.0300
3      C3      1.6494   -0.2411    0.9661 C.2      1 ZINC000003948095    0.0400
4      N4      1.6464   -1.3575    1.6270 N.2      1 ZINC000003948095   -0.4300
5      C5      2.0846   -1.3134    2.8856 C.2      1 ZINC000003948095    0.1100
6      C6      2.1343   -2.5110    3.7486 C.2      1 ZINC000003948095   -0.1000
7      C7      1.6296   -3.6600    3.3183 C.2      1 ZINC000003948095   -0.0900
8      C8      0.8722   -3.7098    2.0164 C.3      1 ZINC000003948095   -0.1100
9      C9      1.8137   -4.9163    4.1321 C.3      1 ZINC000003948095    0.1400
10     H10     2.3031   -4.6679    5.0721 H        1 ZINC000003948095    0.1000
11     C11     2.6755   -5.9134    3.3566 C.3      1 ZINC000003948095   -0.1100
12     C12     4.1485   -5.5169    3.4599 C.3      1 ZINC000003948095    0.0100
13     H13     4.3438   -4.5146    3.8489 H        1 ZINC000003948095    0.1200
14     O14     5.0203   -5.9980    2.4303 O.3      1 ZINC000003948095   -0.3600
15     C15     5.1809   -6.6078    3.7262 C.3      1 ZINC000003948095    0.0300
16     C16     6.4571   -6.2345    4.4793 C.3      1 ZINC000003948095   -0.1300
17     C17     4.7180   -8.0580    3.8447 C.3      1 ZINC000003948095   -0.1000
18     C18     4.5655   -8.4957    5.2941 C.3      1 ZINC000003948095   -0.1200
19     C19     3.1006   -8.4393    5.7358 C.3      1 ZINC000003948095   -0.1200
20     C20     2.7151   -9.7744    6.3682 C.3      1 ZINC000003948095   -0.0900
21     H21     3.6333  -10.4023    6.3921 H        1 ZINC000003948095    0.0800
22     C22     1.6992  -10.5067    5.4989 C.3      1 ZINC000003948095   -0.1500
23     C23     2.2528   -9.6108    7.8013 C.3      1 ZINC000003948095    0.1300
24     H24     2.7395   -8.7342    8.2443 H        1 ZINC000003948095    0.0700
25     O25     2.6708  -10.7653    8.5575 O.3      1 ZINC000003948095   -0.5700
26     C26     0.7398   -9.4591    7.9520 C.3      1 ZINC000003948095   -0.1600
27     H27     0.2239  -10.3148    7.5332 H        1 ZINC000003948095    0.1000
28     C28     0.4281   -9.4189    9.4628 C.3      1 ZINC000003948095   -0.1500
29     C29     0.2757   -8.1740    7.3291 C.2      1 ZINC000003948095    0.3800
30     O30     1.0494   -7.2379    7.2891 O.2      1 ZINC000003948095   -0.4100
31     C31    -1.0952   -8.0129    6.7289 C.3      1 ZINC000003948095   -0.1000
32     C32    -1.0251   -8.2840    5.2261 C.3      1 ZINC000003948095   -0.1500
33     C33    -2.0635   -9.0315    7.3442 C.3      1 ZINC000003948095   -0.1500
34     C34    -1.6319   -6.6137    7.0188 C.3      1 ZINC000003948095    0.1400
35     H35    -2.7069   -6.7087    7.2423 H        1 ZINC000003948095    0.0700
36     O36    -1.0025   -6.0876    8.1914 O.3      1 ZINC000003948095   -0.5400
37     C37    -1.4720   -5.6444    5.8625 C.3      1 ZINC000003948095   -0.1500
38     C38    -0.0320   -5.2887    5.6097 C.2      1 ZINC000003948095    0.4700
39     O39     0.6389   -4.8103    6.4941 O.2      1 ZINC000003948095   -0.4700
40     O40     0.5119   -5.4992    4.4012 O.3      1 ZINC000003948095   -0.3500
41     C41     2.4790   -0.0992    3.3135 C.2      1 ZINC000003948095   -0.2300
42     S42     2.2713    1.0476    1.9922 S.3      1 ZINC000003948095    0.0800
43     H43     2.4747    1.9391   -0.7649 H        1 ZINC000003948095    0.0900
44     H44     1.1338    2.0198   -1.9327 H        1 ZINC000003948095    0.1200
45     H45     0.8226    2.2860   -0.2005 H        1 ZINC000003948095    0.0900
46     H46     2.5816   -2.4514    4.7298 H        1 ZINC000003948095    0.1300
47     H47     1.5749   -3.8286    1.1916 H        1 ZINC000003948095    0.0700
48     H48     0.1818   -4.5532    2.0297 H        1 ZINC000003948095    0.0600
49     H49     0.3122   -2.7838    1.8862 H        1 ZINC000003948095    0.0900
50     H50     2.5301   -6.9042    3.7746 H        1 ZINC000003948095    0.1000
51     H51     2.3709   -5.9187    2.3083 H        1 ZINC000003948095    0.0900
52     H52     6.9693   -5.4308    3.9503 H        1 ZINC000003948095    0.0700
53     H53     6.2013   -5.9019    5.4853 H        1 ZINC000003948095    0.0800
54     H54     7.1111   -7.1044    4.5396 H        1 ZINC000003948095    0.0700
55     H55     3.7704   -8.1847    3.3157 H        1 ZINC000003948095    0.0800
56     H56     5.4592   -8.7015    3.3592 H        1 ZINC000003948095    0.0700
57     H57     4.9160   -9.5275    5.3883 H        1 ZINC000003948095    0.0700
58     H58     5.1566   -7.8740    5.9696 H        1 ZINC000003948095    0.0700
59     H59     2.9812   -7.6411    6.4661 H        1 ZINC000003948095    0.0800
60     H60     2.4590   -8.2427    4.8793 H        1 ZINC000003948095    0.0700
61     H61     2.0979  -10.6193    4.4907 H        1 ZINC000003948095    0.0600
62     H62     1.5004  -11.4909    5.9230 H        1 ZINC000003948095    0.0600
63     H63     0.7729   -9.9334    5.4613 H        1 ZINC000003948095    0.0600
64     H64     2.4132  -10.7395    9.4892 H        1 ZINC000003948095    0.3700
65     H65     0.9436   -8.5731    9.9177 H        1 ZINC000003948095    0.0600
66     H66    -0.6466   -9.3109    9.6093 H        1 ZINC000003948095    0.0700
67     H67     0.7671  -10.3442    9.9285 H        1 ZINC000003948095    0.0700
68     H68    -0.8004   -9.3371    5.0569 H        1 ZINC000003948095    0.0700
69     H69    -1.9831   -8.0386    4.7676 H        1 ZINC000003948095    0.0700
70     H70    -0.2419   -7.6695    4.7822 H        1 ZINC000003948095    0.0700
71     H71    -2.1235   -8.8715    8.4207 H        1 ZINC000003948095    0.0700
72     H72    -3.0521   -8.9057    6.9026 H        1 ZINC000003948095    0.0700
73     H73    -1.7030  -10.0410    7.1465 H        1 ZINC000003948095    0.0700
74     H74    -1.2990   -5.1992    8.4320 H        1 ZINC000003948095    0.3800
75     H75    -1.9527   -5.9928    4.9500 H        1 ZINC000003948095    0.1100
76     H76    -1.9893   -4.7044    6.1378 H        1 ZINC000003948095    0.1000
77     H77     2.8612    0.1315    4.2970 H        1 ZINC000003948095    0.1800
@<TRIPOS>BOND
1     1     2     1
2     1     43    1
3     1     44    1
4     1     45    1
5     2     3     1
6     3     42    1
7     3     4     2
8     4     5     1
9     5     6     1
10    5     41    2
11    6     7     2
12    6     46    1
13    7     8     1
14    7     9     1
15    8     47    1
16    8     48    1
17    8     49    1
18    9     10    1
19    9     40    1
20    9     11    1
21    11    12    1
22    11    50    1
23    11    51    1
24    12    13    1
25    12    15    1
26    12    14    1
27    14    15    1
28    15    16    1
29    15    17    1
30    16    52    1
31    16    53    1
32    16    54    1
33    17    18    1
34    17    55    1
35    17    56    1
36    18    19    1
37    18    57    1
38    18    58    1
39    19    20    1
40    19    59    1
41    19    60    1
42    20    21    1
43    20    22    1
44    20    23    1
45    22    61    1
46    22    62    1
47    22    63    1
48    23    24    1
49    23    25    1
50    23    26    1
51    25    64    1
52    26    27    1
53    26    28    1
54    26    29    1
55    28    65    1
56    28    66    1
57    28    67    1
58    29    30    2
59    29    31    1
60    31    32    1
61    31    33    1
62    31    34    1
63    32    68    1
64    32    69    1
65    32    70    1
66    33    71    1
67    33    72    1
68    33    73    1
69    34    35    1
70    34    36    1
71    34    37    1
72    36    74    1
73    37    38    1
74    37    75    1
75    37    76    1
76    38    39    2
77    38    40    1
78    41    42    1
79    41    77    1
@<TRIPOS>SUBSTRUCTURE
1   ZINC000003948095 1     RESIDUE    1   A     ZIN   1
