@<TRIPOS>MOLECULE
ZINC000000405263
  31   31    0    0    0
SMALL
USER_CHARGES
NO_NAME
@<TRIPOS>ATOM
    1 C1       -0.0187     1.5258     0.0104 C.3    1 <0>      -0.1900
    2 C2        0.0021    -0.0041     0.0020 C.3    1 <0>       0.0200
    3 C3       -1.4333    -0.5336     0.0129 C.3    1 <0>      -0.1800
    4 N4        0.6897    -0.4778    -1.2066 N.4    1 <0>      -0.5000
    5 H5        0.6317    -1.4840    -1.2539 H      1 <0>       0.4300
    6 H6        0.2511    -0.0769    -2.0221 H      1 <0>       0.4300
    7 C7        2.1002    -0.0703    -1.1590 C.3    1 <0>      -0.0500
    8 C8        2.8163    -0.5637    -2.4178 C.3    1 <0>       0.1400
    9 H9        2.6781    -1.6404    -2.5160 H      1 <0>       0.1400
   10 O10       2.2715     0.0930    -3.5641 O.3    1 <0>      -0.5400
   11 C11       4.2874    -0.2536    -2.3131 C.ar   1 <0>      -0.1300
   12 C12       4.7457     1.0213    -2.5872 C.ar   1 <0>      -0.0900
   13 C13       6.0949     1.3071    -2.4915 C.ar   1 <0>      -0.0900
   14 C14       6.9869     0.3171    -2.1213 C.ar   1 <0>      -0.0200
   15 Cl15      8.6812     0.6756    -2.0003 Cl     1 <0>      -0.0200
   16 C16       6.5277    -0.9602    -1.8466 C.ar   1 <0>      -0.0300
   17 Cl17      7.6460    -2.2039    -1.3817 Cl     1 <0>      -0.0300
   18 C18       5.1769    -1.2429    -1.9374 C.ar   1 <0>      -0.0800
   19 H19       1.0039     1.9031     0.0027 H      1 <0>       0.0800
   20 H20      -0.5459     1.8868    -0.8726 H      1 <0>       0.0800
   21 H21      -0.5289     1.8773     0.9072 H      1 <0>       0.1100
   22 H22       0.5293    -0.3651     0.8851 H      1 <0>       0.1400
   23 H23      -1.9605    -0.1726    -0.8702 H      1 <0>       0.0800
   24 H24      -1.4185    -1.6235     0.0069 H      1 <0>       0.0800
   25 H25      -1.9435    -0.1821     0.9097 H      1 <0>       0.1100
   26 H26       2.1628     1.0167    -1.1079 H      1 <0>       0.1400
   27 H27       2.5740    -0.5034    -0.2781 H      1 <0>       0.1500
   28 H28       2.3595     1.0558    -3.5447 H      1 <0>       0.3900
   29 H29       4.0495     1.7945    -2.8767 H      1 <0>       0.1400
   30 H30       6.4524     2.3034    -2.7062 H      1 <0>       0.1500
   31 H31       4.8180    -2.2387    -1.7230 H      1 <0>       0.1500
@<TRIPOS>BOND
   1    1    2 1
   2    1   19 1
   3    1   20 1
   4    1   21 1
   5    2    3 1
   6    2    4 1
   7    2   22 1
   8    3   23 1
   9    3   24 1
  10    3   25 1
  11    4    5 1
  12    4    6 1
  13    4    7 1
  14    7    8 1
  15    7   26 1
  16    7   27 1
  17    8    9 1
  18    8   10 1
  19    8   11 1
  20   10   28 1
  21   11   18 ar
  22   11   12 ar
  23   12   13 ar
  24   12   29 1
  25   13   14 ar
  26   13   30 1
  27   14   15 1
  28   14   16 ar
  29   16   17 1
  30   16   18 ar
  31   18   31 1
