@<TRIPOS>MOLECULE
ZINC000070647134
65    68    1     0     0
SMALL
USER_CHARGES
@<TRIPOS>ATOM
1      C1     -6.0613   -2.7041   -6.2395 C.3      1 ZINC000070647134    0.0200
2      O2     -5.1914   -3.2722   -5.2583 O.3      1 ZINC000070647134   -0.3200
3      C3     -3.9013   -3.4797   -5.6248 C.ar     1 ZINC000070647134    0.1500
4      C4     -3.4806   -3.1367   -6.9044 C.ar     1 ZINC000070647134   -0.2200
5      C5     -2.1725   -3.3457   -7.2802 C.ar     1 ZINC000070647134   -0.0200
6      C6     -1.2674   -3.9030   -6.3730 C.ar     1 ZINC000070647134   -0.1700
7      C7      0.1356   -4.1282   -6.7714 C.2      1 ZINC000070647134    0.5500
8      O8      0.5055   -3.8288   -7.8904 O.2      1 ZINC000070647134   -0.5100
9      N9      1.0071   -4.6658   -5.8950 N.am     1 ZINC000070647134   -0.6600
10     C10     2.3142   -4.9622   -6.2999 C.ar     1 ZINC000070647134    0.1600
11     C11     2.9052   -4.2387   -7.3262 C.ar     1 ZINC000070647134   -0.2500
12     C12     4.1957   -4.5306   -7.7259 C.ar     1 ZINC000070647134   -0.0700
13     C13     4.9041   -5.5434   -7.1065 C.ar     1 ZINC000070647134   -0.2600
14     C14     4.3232   -6.2725   -6.0800 C.ar     1 ZINC000070647134    0.2800
15     O15     5.0220   -7.2679   -5.4719 O.3      1 ZINC000070647134   -0.6900
16     C16     3.0265   -5.9802   -5.6694 C.ar     1 ZINC000070647134   -0.0500
17     N17     2.4347   -6.7147   -4.6317 N.am     1 ZINC000070647134   -0.6400
18     C18     2.6982   -8.0300   -4.5018 C.2      1 ZINC000070647134    0.5100
19     O19     3.4005   -8.5932   -5.3196 O.2      1 ZINC000070647134   -0.4500
20     C20     2.1348   -8.7865   -3.3678 C.ar     1 ZINC000070647134   -0.1000
21     C21     1.3227   -8.1419   -2.4301 C.ar     1 ZINC000070647134   -0.0700
22     C22     0.7986   -8.8505   -1.3733 C.ar     1 ZINC000070647134   -0.1400
23     C23     1.0764  -10.2078   -1.2373 C.ar     1 ZINC000070647134    0.0900
24     N24     0.5449  -10.9211   -0.1684 N.3      1 ZINC000070647134   -0.4900
25     C25     0.8550  -10.2569    1.1205 C.3      1 ZINC000070647134    0.0400
26     C26    -0.1793  -10.6743    2.1346 C.3      1 ZINC000070647134   -0.1400
27     C27     0.2522  -11.9059    2.9470 C.3      1 ZINC000070647134   -0.0100
28     N28     0.9015  -12.9414    2.1122 N.4      1 ZINC000070647134   -0.3900
29     H29     1.8579  -12.6703    1.9394 H        1 ZINC000070647134    0.4200
30     C30     0.8925  -14.2164    2.8418 C.3      1 ZINC000070647134   -0.0500
31     C31     0.2297  -13.1233    0.8457 C.3      1 ZINC000070647134   -0.0200
32     C32     0.9412  -12.2613   -0.2138 C.3      1 ZINC000070647134    0.0300
33     C33     1.8848  -10.8527   -2.1694 C.ar     1 ZINC000070647134   -0.1700
34     C34     2.4072  -10.1510   -3.2316 C.ar     1 ZINC000070647134   -0.0400
35     C35    -1.6942   -4.2460   -5.0873 C.ar     1 ZINC000070647134   -0.0500
36     C36    -3.0029   -4.0293   -4.7177 C.ar     1 ZINC000070647134   -0.1600
37     H37    -5.6815   -1.7276   -6.5400 H        1 ZINC000070647134    0.0600
38     H38    -6.1057   -3.3600   -7.1089 H        1 ZINC000070647134    0.0600
39     H39    -7.0601   -2.5914   -5.8179 H        1 ZINC000070647134    0.1000
40     H40    -4.1807   -2.7061   -7.6050 H        1 ZINC000070647134    0.1400
41     H41    -1.8465   -3.0796   -8.2749 H        1 ZINC000070647134    0.1400
42     H42     0.7286   -4.8474   -4.9837 H        1 ZINC000070647134    0.3900
43     H43     2.3559   -3.4468   -7.8135 H        1 ZINC000070647134    0.1300
44     H44     4.6522   -3.9657   -8.5252 H        1 ZINC000070647134    0.1000
45     H45     5.9121   -5.7675   -7.4231 H        1 ZINC000070647134    0.1000
46     H46     1.8357   -6.2760   -4.0075 H        1 ZINC000070647134    0.3700
47     H47     1.1071   -7.0888   -2.5349 H        1 ZINC000070647134    0.1300
48     H48     0.1714   -8.3529   -0.6483 H        1 ZINC000070647134    0.1300
49     H49     1.8450  -10.5611    1.4604 H        1 ZINC000070647134    0.0500
50     H50     0.8255   -9.1749    0.9913 H        1 ZINC000070647134    0.1100
51     H51    -0.3559   -9.8449    2.8194 H        1 ZINC000070647134    0.1200
52     H52    -1.1096  -10.9035    1.6149 H        1 ZINC000070647134    0.1000
53     H53     0.9505  -11.5894    3.7218 H        1 ZINC000070647134    0.1300
54     H54    -0.6272  -12.3386    3.4240 H        1 ZINC000070647134    0.1300
55     H55    -0.1365  -14.5064    3.0539 H        1 ZINC000070647134    0.1200
56     H56     1.3691  -14.9859    2.2345 H        1 ZINC000070647134    0.1200
57     H57     1.4384  -14.1029    3.7784 H        1 ZINC000070647134    0.1200
58     H58     0.2749  -14.1727    0.5546 H        1 ZINC000070647134    0.1400
59     H59    -0.8104  -12.8096    0.9346 H        1 ZINC000070647134    0.1400
60     H60     0.7172  -12.6619   -1.2025 H        1 ZINC000070647134    0.1300
61     H61     2.0171  -12.3166   -0.0487 H        1 ZINC000070647134    0.0600
62     H62     2.0984  -11.9058   -2.0611 H        1 ZINC000070647134    0.1300
63     H63     3.0339  -10.6519   -3.9546 H        1 ZINC000070647134    0.1400
64     H64    -0.9978   -4.6769   -4.3833 H        1 ZINC000070647134    0.1300
65     H65    -3.3336   -4.2938   -3.7242 H        1 ZINC000070647134    0.1400
@<TRIPOS>BOND
1     1     2     1
2     1     37    1
3     1     38    1
4     1     39    1
5     2     3     1
6     3     36    ar
7     3     4     ar
8     4     5     ar
9     4     40    1
10    5     6     ar
11    5     41    1
12    6     7     1
13    6     35    ar
14    7     8     2
15    7     9     am
16    9     10    1
17    9     42    1
18    10    16    ar
19    10    11    ar
20    11    12    ar
21    11    43    1
22    12    13    ar
23    12    44    1
24    13    14    ar
25    13    45    1
26    14    15    1
27    14    16    ar
28    16    17    1
29    17    18    am
30    17    46    1
31    18    19    2
32    18    20    1
33    20    34    ar
34    20    21    ar
35    21    22    ar
36    21    47    1
37    22    23    ar
38    22    48    1
39    23    24    1
40    23    33    ar
41    24    32    1
42    24    25    1
43    25    26    1
44    25    49    1
45    25    50    1
46    26    27    1
47    26    51    1
48    26    52    1
49    27    28    1
50    27    53    1
51    27    54    1
52    28    29    1
53    28    30    1
54    28    31    1
55    30    55    1
56    30    56    1
57    30    57    1
58    31    32    1
59    31    58    1
60    31    59    1
61    32    60    1
62    32    61    1
63    33    34    ar
64    33    62    1
65    34    63    1
66    35    36    ar
67    35    64    1
68    36    65    1
@<TRIPOS>SUBSTRUCTURE
1   ZINC000070647134 1     RESIDUE    1   A     ZIN   1
