@<TRIPOS>MOLECULE
ZINC000003870220
  40   39    0    0    0
SMALL
USER_CHARGES
NO_NAME
@<TRIPOS>ATOM
    1 N1       -0.0116     1.0048     0.0076 N.4    1 <0>      -0.6200
    2 H2        0.0021    -0.0041     0.0020 H      1 <0>       0.4300
    3 H3        0.9350     1.3541     0.0004 H      1 <0>       0.4300
    4 H4       -0.4996     1.3391    -0.8099 H      1 <0>       0.4100
    5 C5       -0.6992     1.4786     1.2162 C.3    1 <0>      -0.0500
    6 H6       -1.7218     1.1013     1.2239 H      1 <0>       0.1300
    7 C7       -0.7199     3.0084     1.2246 C.3    1 <0>      -0.1100
    8 C8       -1.5654     3.5134     0.0537 C.3    1 <0>      -0.1500
    9 C9       -1.5858     5.0203     0.0620 C.2    1 <0>       0.5100
   10 O10      -0.9835     5.6302     0.9199 O.2    1 <0>      -0.5000
   11 N11      -2.2735     5.6901    -0.8840 N.am   1 <0>      -0.7100
   12 C12      -2.2934     7.1550    -0.8760 C.3    1 <0>       0.1500
   13 H13      -2.2885     7.5127     0.1536 H      1 <0>       0.1200
   14 C14      -1.0581     7.6858    -1.6062 C.3    1 <0>      -0.1100
   15 S15       0.4392     7.0967    -0.7685 S.3    1 <0>      -0.1400
   16 C16       1.7738     7.8176    -1.7634 C.3    1 <0>       0.0700
   17 O17       1.8809     9.2135    -1.4769 O.3    1 <0>      -0.5600
   18 C18      -3.5372     7.6443    -1.5719 C.2    1 <0>       0.5100
   19 O19      -4.3292     6.8479    -2.0296 O.2    1 <0>      -0.5500
   20 N20      -3.7696     8.9670    -1.6857 N.am   1 <0>      -0.6900
   21 C21      -4.9788     9.4427    -2.3623 C.3    1 <0>       0.0500
   22 C22      -4.9993    10.9495    -2.3540 C.2    1 <0>       0.4900
   23 O23      -4.0882    11.5687    -1.8314 O.co2  1 <0>      -0.6900
   24 O24      -5.9269    11.5495    -2.8699 O.co2  1 <0>      -0.6900
   25 C25       0.0297     0.9794     2.4371 C.2    1 <0>       0.4900
   26 O26       1.2338     0.7927     2.3944 O.co2  1 <0>      -0.6700
   27 O27      -0.5847     0.7621     3.4675 O.co2  1 <0>      -0.6400
   28 H28      -1.1502     3.3608     2.1620 H      1 <0>       0.1100
   29 H29       0.2979     3.3861     1.1273 H      1 <0>       0.0900
   30 H30      -1.1351     3.1611    -0.8837 H      1 <0>       0.0800
   31 H31      -2.5832     3.1357     0.1509 H      1 <0>       0.1100
   32 H32      -2.7552     5.2023    -1.5702 H      1 <0>       0.4100
   33 H33      -1.0630     7.3280    -2.6358 H      1 <0>       0.0900
   34 H34      -1.0729     8.7757    -1.6002 H      1 <0>       0.1100
   35 H35       2.7149     7.3238    -1.5213 H      1 <0>       0.0800
   36 H36       1.5530     7.6798    -2.8219 H      1 <0>       0.0600
   37 H37       2.5763     9.6649    -1.9746 H      1 <0>       0.3700
   38 H38      -3.1362     9.6040    -1.3197 H      1 <0>       0.4100
   39 H39      -4.9837     9.0849    -3.3919 H      1 <0>       0.0700
   40 H40      -5.8589     9.0645    -1.8421 H      1 <0>       0.0700
@<TRIPOS>BOND
   1    1    2 1
   2    1    3 1
   3    1    4 1
   4    1    5 1
   5    5    6 1
   6    5    7 1
   7    5   25 1
   8    7    8 1
   9    7   28 1
  10    7   29 1
  11    8    9 1
  12    8   30 1
  13    8   31 1
  14    9   10 2
  15    9   11 am
  16   11   12 1
  17   11   32 1
  18   12   13 1
  19   12   14 1
  20   12   18 1
  21   14   15 1
  22   14   33 1
  23   14   34 1
  24   15   16 1
  25   16   17 1
  26   16   35 1
  27   16   36 1
  28   17   37 1
  29   18   19 2
  30   18   20 am
  31   20   21 1
  32   20   38 1
  33   21   22 1
  34   21   39 1
  35   21   40 1
  36   22   23 ar
  37   22   24 ar
  38   25   26 ar
  39   25   27 ar
