@<TRIPOS>MOLECULE
ZINC000003799010
66    68    1     0     0
SMALL
USER_CHARGES
@<TRIPOS>ATOM
1      C1     -0.0187    1.5258    0.0104 C.3      1 ZINC000003799010   -0.1500
2      C2      0.0021   -0.0041    0.0020 C.3      1 ZINC000003799010   -0.1300
3      C3     -1.4333   -0.5336    0.0129 C.3      1 ZINC000003799010   -0.1200
4      C4     -1.4126   -2.0635    0.0045 C.3      1 ZINC000003799010   -0.1200
5      C5     -2.8479   -2.5931    0.0153 C.3      1 ZINC000003799010   -0.1200
6      C6     -2.8272   -4.1229    0.0069 C.3      1 ZINC000003799010   -0.1100
7      C7     -4.2626   -4.6525    0.0178 C.3      1 ZINC000003799010   -0.0200
8      C8     -4.9787   -4.1591    1.2766 C.3      1 ZINC000003799010   -0.1400
9      C9     -5.0026   -4.1456   -1.2218 C.3      1 ZINC000003799010   -0.1400
10     C10    -4.2421   -6.1593    0.0095 C.ar     1 ZINC000003799010   -0.0200
11     C11    -3.0362   -6.8333    0.0001 C.ar     1 ZINC000003799010   -0.1800
12     C12    -3.0196   -8.2197   -0.0105 C.ar     1 ZINC000003799010    0.1500
13     O13    -1.8334   -8.8827   -0.0217 O.3      1 ZINC000003799010   -0.4900
14     C14    -4.2112   -8.9333   -0.0092 C.ar     1 ZINC000003799010   -0.1800
15     C15    -5.4194   -8.2568    0.0051 C.ar     1 ZINC000003799010    0.1600
16     C16    -5.4282   -6.8651    0.0170 C.ar     1 ZINC000003799010   -0.1600
17     O17    -6.6100   -8.9105    0.0225 O.3      1 ZINC000003799010   -0.3100
18     C18    -6.6265  -10.2997   -0.3126 C.3      1 ZINC000003799010    0.1200
19     C19    -7.9766  -10.9073    0.0733 C.3      1 ZINC000003799010   -0.1400
20     C20    -6.3947  -10.4705   -1.8153 C.3      1 ZINC000003799010   -0.1800
21     C21    -5.5071  -10.9946    0.4649 C.3      1 ZINC000003799010   -0.1100
22     H22    -5.6206  -10.7958    1.5306 H        1 ZINC000003799010    0.0800
23     C23    -5.5355  -12.5031    0.2148 C.3      1 ZINC000003799010   -0.0800
24     C24    -4.2795  -13.1242    0.7592 C.2      1 ZINC000003799010   -0.1300
25     C25    -3.2060  -12.4597    1.0482 C.2      1 ZINC000003799010   -0.1400
26     C26    -2.0244  -13.2264    1.5840 C.3      1 ZINC000003799010    0.1100
27     O27    -2.3549  -14.6141    1.6670 O.3      1 ZINC000003799010   -0.5700
28     C28    -3.0641  -10.9724    0.8835 C.3      1 ZINC000003799010   -0.0800
29     C29    -4.1643  -10.4362   -0.0271 C.3      1 ZINC000003799010   -0.0300
30     H30    -4.0011  -10.7927   -1.0442 H        1 ZINC000003799010    0.0900
31     H31     1.0039    1.9031    0.0027 H        1 ZINC000003799010    0.0500
32     H32    -0.5459    1.8868   -0.8726 H        1 ZINC000003799010    0.0500
33     H33    -0.5289    1.8773    0.9072 H        1 ZINC000003799010    0.0500
34     H34     0.5123   -0.3556   -0.8948 H        1 ZINC000003799010    0.0600
35     H35     0.5293   -0.3651    0.8851 H        1 ZINC000003799010    0.0600
36     H36    -1.9435   -0.1821    0.9097 H        1 ZINC000003799010    0.0600
37     H37    -1.9605   -0.1726   -0.8702 H        1 ZINC000003799010    0.0600
38     H38    -0.9024   -2.4150   -0.8923 H        1 ZINC000003799010    0.0600
39     H39    -0.8854   -2.4246    0.8875 H        1 ZINC000003799010    0.0600
40     H40    -3.3581   -2.2415    0.9121 H        1 ZINC000003799010    0.0700
41     H41    -3.3751   -2.2320   -0.8677 H        1 ZINC000003799010    0.0700
42     H42    -2.3170   -4.4744   -0.8899 H        1 ZINC000003799010    0.0700
43     H43    -2.3000   -4.4840    0.8900 H        1 ZINC000003799010    0.0700
44     H44    -4.9935   -3.0692    1.2826 H        1 ZINC000003799010    0.0600
45     H45    -6.0013   -4.5363    1.2843 H        1 ZINC000003799010    0.0600
46     H46    -4.4515   -4.5201    2.1596 H        1 ZINC000003799010    0.0600
47     H47    -4.4924   -4.4972   -2.1185 H        1 ZINC000003799010    0.0600
48     H48    -6.0252   -4.5229   -1.2140 H        1 ZINC000003799010    0.0600
49     H49    -5.0174   -3.0558   -1.2158 H        1 ZINC000003799010    0.0600
50     H50    -2.1079   -6.2812    0.0005 H        1 ZINC000003799010    0.1300
51     H51    -1.4854   -9.0812    0.8584 H        1 ZINC000003799010    0.3900
52     H52    -6.3687   -6.3343    0.0240 H        1 ZINC000003799010    0.1300
53     H53    -8.7730  -10.3958   -0.4672 H        1 ZINC000003799010    0.0700
54     H54    -7.9851  -11.9665   -0.1838 H        1 ZINC000003799010    0.0800
55     H55    -8.1334  -10.7925    1.1458 H        1 ZINC000003799010    0.0700
56     H56    -5.4278  -10.0454   -2.0845 H        1 ZINC000003799010    0.0700
57     H57    -6.4080  -11.5310   -2.0667 H        1 ZINC000003799010    0.0800
58     H58    -7.1833   -9.9568   -2.3652 H        1 ZINC000003799010    0.0700
59     H59    -6.4017  -12.9379    0.7134 H        1 ZINC000003799010    0.0800
60     H60    -5.5997  -12.6927   -0.8567 H        1 ZINC000003799010    0.0800
61     H61    -4.2719  -14.1921    0.9200 H        1 ZINC000003799010    0.1200
62     H62    -1.1730  -13.0950    0.9163 H        1 ZINC000003799010    0.0600
63     H63    -1.7691  -12.8537    2.5760 H        1 ZINC000003799010    0.0500
64     H64    -1.6390  -15.1694    2.0049 H        1 ZINC000003799010    0.3800
65     H65    -3.1530  -10.4890    1.8564 H        1 ZINC000003799010    0.0700
66     H66    -2.0886  -10.7460    0.4532 H        1 ZINC000003799010    0.1000
@<TRIPOS>BOND
1     1     2     1
2     1     31    1
3     1     32    1
4     1     33    1
5     2     3     1
6     2     34    1
7     2     35    1
8     3     4     1
9     3     36    1
10    3     37    1
11    4     5     1
12    4     38    1
13    4     39    1
14    5     6     1
15    5     40    1
16    5     41    1
17    6     7     1
18    6     42    1
19    6     43    1
20    7     8     1
21    7     9     1
22    7     10    1
23    8     44    1
24    8     45    1
25    8     46    1
26    9     47    1
27    9     48    1
28    9     49    1
29    10    16    ar
30    10    11    ar
31    11    12    ar
32    11    50    1
33    12    13    1
34    12    14    ar
35    13    51    1
36    14    29    1
37    14    15    ar
38    15    16    ar
39    15    17    1
40    16    52    1
41    17    18    1
42    18    19    1
43    18    20    1
44    18    21    1
45    19    53    1
46    19    54    1
47    19    55    1
48    20    56    1
49    20    57    1
50    20    58    1
51    21    22    1
52    21    29    1
53    21    23    1
54    23    24    1
55    23    59    1
56    23    60    1
57    24    25    2
58    24    61    1
59    25    26    1
60    25    28    1
61    26    27    1
62    26    62    1
63    26    63    1
64    27    64    1
65    28    29    1
66    28    65    1
67    28    66    1
68    29    30    1
@<TRIPOS>SUBSTRUCTURE
1   ZINC000003799010 1     RESIDUE    1   A     ZIN   1
