@<TRIPOS>MOLECULE
ZINC000028827350
67    71    1     0     0
SMALL
USER_CHARGES
@<TRIPOS>ATOM
1      O1      0.0227   -0.0036   -0.0023 O.2      1 ZINC000028827350   -0.5800
2      C2     -0.0144    1.2117    0.0087 C.2      1 ZINC000028827350    0.7200
3      N3      1.1316    1.9209    0.0061 N.am     1 ZINC000028827350   -0.7200
4      C4      2.4204    1.2306    0.1000 C.3      1 ZINC000028827350    0.1500
5      H5      2.3216    0.3566    0.7437 H        1 ZINC000028827350    0.1200
6      C6      3.4714    2.1803    0.6800 C.3      1 ZINC000028827350   -0.1200
7      C7      4.5928    1.4011    1.3428 C.3      1 ZINC000028827350   -0.1100
8      C8      5.4323    0.5902    0.3725 C.3      1 ZINC000028827350   -0.0700
9      H9      5.7912    1.2431   -0.4232 H        1 ZINC000028827350    0.1000
10     C10     6.6130    0.0077    1.1058 C.ar     1 ZINC000028827350   -0.0900
11     C11     6.4107   -0.8510    2.1697 C.ar     1 ZINC000028827350   -0.1000
12     C12     7.4928   -1.3862    2.8435 C.ar     1 ZINC000028827350   -0.0900
13     C13     8.7793   -1.0636    2.4546 C.ar     1 ZINC000028827350   -0.1300
14     C14     8.9853   -0.2040    1.3895 C.ar     1 ZINC000028827350    0.0700
15     F15    10.2425    0.1117    1.0087 F        1 ZINC000028827350   -0.1300
16     C16     7.9001    0.3282    0.7102 C.ar     1 ZINC000028827350    0.0700
17     F17     8.0987    1.1675   -0.3297 F        1 ZINC000028827350   -0.1200
18     C18     4.6118   -0.5461   -0.2408 C.3      1 ZINC000028827350    0.1100
19     N19     3.9024   -0.0301   -1.4228 N.am     1 ZINC000028827350   -0.6100
20     C20     4.3333   -0.4334   -2.7637 C.3      1 ZINC000028827350    0.0700
21     C21     3.5824   -1.6994   -3.1813 C.3      1 ZINC000028827350    0.4300
22     F22     2.2070   -1.4442   -3.1905 F        1 ZINC000028827350   -0.1700
23     F23     3.9939   -2.0846   -4.4618 F        1 ZINC000028827350   -0.1800
24     F24     3.8600   -2.7271   -2.2735 F        1 ZINC000028827350   -0.1800
25     C25     2.8676    0.7979   -1.2804 C.2      1 ZINC000028827350    0.5100
26     O26     2.2867    1.2134   -2.2607 O.2      1 ZINC000028827350   -0.5100
27     N27    -1.2016    1.8496    0.0179 N.am     1 ZINC000028827350   -0.6300
28     C28    -1.2657    3.3134   -0.0901 C.3      1 ZINC000028827350    0.1200
29     C29    -2.2025    3.6821   -1.2448 C.3      1 ZINC000028827350   -0.1500
30     C30    -3.5594    3.0076   -1.0308 C.3      1 ZINC000028827350    0.1700
31     N31    -4.4684    3.3846   -2.1161 N.am     1 ZINC000028827350   -0.5300
32     C32    -4.2768    3.1421   -3.4269 C.2      1 ZINC000028827350    0.6900
33     O33    -3.3128    2.5699   -3.9000 O.2      1 ZINC000028827350   -0.5300
34     N34    -5.3136    3.6283   -4.1342 N.am     1 ZINC000028827350   -0.6300
35     C35    -6.2159    4.2099   -3.2527 C.ar     1 ZINC000028827350    0.3000
36     N36    -7.3772    4.8206   -3.4203 N.ar     1 ZINC000028827350   -0.4700
37     C37    -8.0607    5.2986   -2.3984 C.ar     1 ZINC000028827350    0.1200
38     C38    -7.5896    5.1812   -1.1045 C.ar     1 ZINC000028827350   -0.1600
39     C39    -6.3759    4.5484   -0.8778 C.ar     1 ZINC000028827350   -0.0600
40     C40    -5.6820    4.0498   -1.9703 C.ar     1 ZINC000028827350    0.0500
41     C41    -3.3797    1.4878   -1.0210 C.3      1 ZINC000028827350   -0.1500
42     C42    -2.4566    1.0939    0.1301 C.3      1 ZINC000028827350    0.1400
43     H43     1.1032    2.8884   -0.0580 H        1 ZINC000028827350    0.4000
44     H44     3.8846    2.7915   -0.1224 H        1 ZINC000028827350    0.0800
45     H45     3.0002    2.8293    1.4183 H        1 ZINC000028827350    0.0900
46     H46     5.2438    2.1032    1.8636 H        1 ZINC000028827350    0.0800
47     H47     4.1584    0.7233    2.0777 H        1 ZINC000028827350    0.0800
48     H48     5.4061   -1.1039    2.4753 H        1 ZINC000028827350    0.1400
49     H49     7.3327   -2.0567    3.6749 H        1 ZINC000028827350    0.1400
50     H50     9.6238   -1.4821    2.9819 H        1 ZINC000028827350    0.1500
51     H51     5.2760   -1.3576   -0.5382 H        1 ZINC000028827350    0.1000
52     H52     3.8891   -0.9106    0.4892 H        1 ZINC000028827350    0.0900
53     H53     4.1170    0.3673   -3.4710 H        1 ZINC000028827350    0.1300
54     H54     5.4049   -0.6322   -2.7565 H        1 ZINC000028827350    0.1300
55     H55    -1.6501    3.7320    0.8400 H        1 ZINC000028827350    0.0800
56     H56    -0.2694    3.7093   -0.2872 H        1 ZINC000028827350    0.0800
57     H57    -2.3345    4.7636   -1.2751 H        1 ZINC000028827350    0.0800
58     H58    -1.7712    3.3413   -2.1861 H        1 ZINC000028827350    0.0900
59     H59    -3.9787    3.3297   -0.0776 H        1 ZINC000028827350    0.1000
60     H60    -5.4139    3.5806   -5.0978 H        1 ZINC000028827350    0.4400
61     H61    -9.0054    5.7910   -2.5762 H        1 ZINC000028827350    0.1700
62     H62    -8.1603    5.5783   -0.2781 H        1 ZINC000028827350    0.1500
63     H63    -5.9841    4.4427    0.1231 H        1 ZINC000028827350    0.1400
64     H64    -4.3497    1.0076   -0.8919 H        1 ZINC000028827350    0.0800
65     H65    -2.9374    1.1677   -1.9644 H        1 ZINC000028827350    0.0900
66     H66    -2.2469    0.0254    0.0811 H        1 ZINC000028827350    0.1000
67     H67    -2.9355    1.3311    1.0801 H        1 ZINC000028827350    0.0700
@<TRIPOS>BOND
1     1     2     2
2     2     3     am
3     2     27    am
4     3     4     1
5     3     43    1
6     4     5     1
7     4     25    1
8     4     6     1
9     6     7     1
10    6     44    1
11    6     45    1
12    7     8     1
13    7     46    1
14    7     47    1
15    8     9     1
16    8     10    1
17    8     18    1
18    10    16    ar
19    10    11    ar
20    11    12    ar
21    11    48    1
22    12    13    ar
23    12    49    1
24    13    14    ar
25    13    50    1
26    14    15    1
27    14    16    ar
28    16    17    1
29    18    19    1
30    18    51    1
31    18    52    1
32    19    20    1
33    19    25    am
34    20    21    1
35    20    53    1
36    20    54    1
37    21    22    1
38    21    23    1
39    21    24    1
40    25    26    2
41    27    42    1
42    27    28    1
43    28    29    1
44    28    55    1
45    28    56    1
46    29    30    1
47    29    57    1
48    29    58    1
49    30    31    1
50    30    41    1
51    30    59    1
52    31    40    1
53    31    32    am
54    32    33    2
55    32    34    am
56    34    35    1
57    34    60    1
58    35    40    ar
59    35    36    ar
60    36    37    ar
61    37    38    ar
62    37    61    1
63    38    39    ar
64    38    62    1
65    39    40    ar
66    39    63    1
67    41    42    1
68    41    64    1
69    41    65    1
70    42    66    1
71    42    67    1
@<TRIPOS>SUBSTRUCTURE
1   ZINC000028827350 1     RESIDUE    1   A     ZIN   1
