@<TRIPOS>MOLECULE
ZINC000043757608
56    59    1     0     0
SMALL
USER_CHARGES
@<TRIPOS>ATOM
1      C1      1.2494    0.8487    0.3786 C.3      1 ZINC000043757608   -0.2100
2      C2      0.0539    0.0063    0.0149 C.2      1 ZINC000043757608    0.3400
3      O3     -0.8815   -0.0743    0.7744 O.2      1 ZINC000043757608   -0.4400
4      C4      0.0257   -0.7354   -1.2967 C.3      1 ZINC000043757608    0.1000
5      O5      0.6422    0.0476   -2.3208 O.3      1 ZINC000043757608   -0.5400
6      C6     -1.4332   -1.0806   -1.6869 C.3      1 ZINC000043757608   -0.1500
7      C7     -1.4897   -2.6243   -1.8484 C.3      1 ZINC000043757608   -0.1100
8      C8     -0.0333   -2.9911   -2.1543 C.3      1 ZINC000043757608   -0.0800
9      H9      0.2166   -2.7307   -3.1829 H        1 ZINC000043757608    0.0900
10     C10     0.3636   -4.4255   -1.8608 C.3      1 ZINC000043757608   -0.1000
11     H11     0.1647   -4.6644   -0.8160 H        1 ZINC000043757608    0.1000
12     C12    -0.4010   -5.3882   -2.7785 C.3      1 ZINC000043757608   -0.1100
13     C13    -0.1587   -6.8087   -2.2648 C.3      1 ZINC000043757608   -0.0600
14     H14    -0.5348   -7.5246   -2.9957 H        1 ZINC000043757608    0.0900
15     C15    -0.9017   -7.0007   -0.9412 C.3      1 ZINC000043757608   -0.1400
16     C16     1.3069   -7.0461   -2.0481 C.2      1 ZINC000043757608   -0.0400
17     C17     1.7282   -8.3157   -1.8438 C.2      1 ZINC000043757608   -0.2300
18     C18     3.1874   -8.4538   -1.5829 C.2      1 ZINC000043757608    0.4100
19     O19     3.8584   -9.3454   -2.0681 O.2      1 ZINC000043757608   -0.4500
20     C20     3.7625   -7.4162   -0.6827 C.2      1 ZINC000043757608   -0.2200
21     C21     3.3191   -6.1592   -0.9042 C.2      1 ZINC000043757608   -0.0700
22     C22     2.3418   -5.9732   -2.0303 C.3      1 ZINC000043757608   -0.0300
23     C23     3.1701   -6.2193   -3.2930 C.3      1 ZINC000043757608   -0.1500
24     C24     1.8620   -4.5553   -2.1576 C.3      1 ZINC000043757608    0.1700
25     F25     2.0270   -4.1852   -3.4966 F        1 ZINC000043757608   -0.1900
26     C26     2.7093   -3.5931   -1.3332 C.3      1 ZINC000043757608    0.0900
27     H27     2.6433   -3.8706   -0.2812 H        1 ZINC000043757608    0.0700
28     O28     4.0706   -3.6868   -1.7575 O.3      1 ZINC000043757608   -0.5500
29     C29     2.2285   -2.1414   -1.5027 C.3      1 ZINC000043757608   -0.1200
30     C30     0.7346   -2.0784   -1.1595 C.3      1 ZINC000043757608   -0.0400
31     C31     0.5020   -2.6500    0.2405 C.3      1 ZINC000043757608   -0.1700
32     H32     1.9739    0.2379    0.9172 H        1 ZINC000043757608    0.1000
33     H33     1.7079    1.2402   -0.5295 H        1 ZINC000043757608    0.0900
34     H34     0.9311    1.6773    1.0112 H        1 ZINC000043757608    0.0900
35     H35     0.2210    0.9057   -2.4672 H        1 ZINC000043757608    0.3800
36     H36    -2.1165   -0.7615   -0.9000 H        1 ZINC000043757608    0.0900
37     H37    -1.6933   -0.5962   -2.6281 H        1 ZINC000043757608    0.0800
38     H38    -1.8202   -3.0970   -0.9235 H        1 ZINC000043757608    0.0700
39     H39    -2.1397   -2.9018   -2.6782 H        1 ZINC000043757608    0.0800
40     H40    -1.4665   -5.1607   -2.7475 H        1 ZINC000043757608    0.0800
41     H41    -0.0320   -5.2965   -3.8000 H        1 ZINC000043757608    0.0800
42     H42    -1.9693   -6.8463   -1.0982 H        1 ZINC000043757608    0.0700
43     H43    -0.7312   -8.0121   -0.5722 H        1 ZINC000043757608    0.0600
44     H44    -0.5340   -6.2805   -0.2104 H        1 ZINC000043757608    0.0600
45     H45     1.0583   -9.1625   -1.8677 H        1 ZINC000043757608    0.1500
46     H46     4.4799   -7.6509    0.0897 H        1 ZINC000043757608    0.1500
47     H47     3.6511   -5.3277   -0.3003 H        1 ZINC000043757608    0.1400
48     H48     3.5779   -7.2299   -3.2688 H        1 ZINC000043757608    0.0500
49     H49     2.5356   -6.1045   -4.1718 H        1 ZINC000043757608    0.0700
50     H50     3.9868   -5.4989   -3.3379 H        1 ZINC000043757608    0.0800
51     H51     4.6732   -3.1022   -1.2776 H        1 ZINC000043757608    0.3800
52     H52     2.8105   -1.4808   -0.8601 H        1 ZINC000043757608    0.0800
53     H53     2.3341   -1.8351   -2.5434 H        1 ZINC000043757608    0.0900
54     H54     0.9731   -2.0026    0.9801 H        1 ZINC000043757608    0.0600
55     H55    -0.5687   -2.7066    0.4366 H        1 ZINC000043757608    0.0700
56     H56     0.9359   -3.6480    0.3022 H        1 ZINC000043757608    0.0700
@<TRIPOS>BOND
1     1     2     1
2     1     32    1
3     1     33    1
4     1     34    1
5     2     3     2
6     2     4     1
7     4     30    1
8     4     5     1
9     4     6     1
10    5     35    1
11    6     7     1
12    6     36    1
13    6     37    1
14    7     8     1
15    7     38    1
16    7     39    1
17    8     9     1
18    8     30    1
19    8     10    1
20    10    11    1
21    10    24    1
22    10    12    1
23    12    13    1
24    12    40    1
25    12    41    1
26    13    14    1
27    13    15    1
28    13    16    1
29    15    42    1
30    15    43    1
31    15    44    1
32    16    22    1
33    16    17    2
34    17    18    1
35    17    45    1
36    18    19    2
37    18    20    1
38    20    21    2
39    20    46    1
40    21    22    1
41    21    47    1
42    22    23    1
43    22    24    1
44    23    48    1
45    23    49    1
46    23    50    1
47    24    25    1
48    24    26    1
49    26    27    1
50    26    28    1
51    26    29    1
52    28    51    1
53    29    30    1
54    29    52    1
55    29    53    1
56    30    31    1
57    31    54    1
58    31    55    1
59    31    56    1
@<TRIPOS>SUBSTRUCTURE
1   ZINC000043757608 1     RESIDUE    1   A     ZIN   1
