@<TRIPOS>MOLECULE
ZINC000068267814
67    72    1     0     0
SMALL
USER_CHARGES
@<TRIPOS>ATOM
1      N1     -0.4419    1.3025   -1.7711 N.3      1 ZINC000068267814   -0.8300
2      C2     -0.3117   -0.0409   -1.1913 C.3      1 ZINC000068267814    0.1500
3      H3      0.2498    0.0259   -0.2594 H        1 ZINC000068267814    0.1000
4      C4      0.4378   -0.9243   -2.1565 C.ar     1 ZINC000068267814   -0.1400
5      C5      1.3699   -0.3101   -2.9906 C.ar     1 ZINC000068267814   -0.0900
6      C6      2.0928   -1.0908   -3.8756 C.ar     1 ZINC000068267814   -0.1600
7      C7      1.8682   -2.4542   -3.8988 C.ar     1 ZINC000068267814    0.1100
8      N8      0.9746   -2.9979   -3.1016 N.ar     1 ZINC000068267814   -0.4700
9      C9      0.2509   -2.2808   -2.2498 C.ar     1 ZINC000068267814    0.1300
10     C10    -0.7845   -3.0149   -1.4379 C.3      1 ZINC000068267814    0.1600
11     H11    -0.6433   -4.0884   -1.5636 H        1 ZINC000068267814    0.1100
12     O12    -2.1082   -2.6493   -1.9097 O.3      1 ZINC000068267814   -0.3400
13     C13    -3.0959   -3.5426   -1.7119 C.2      1 ZINC000068267814    0.6400
14     O14    -2.8890   -4.5405   -1.0502 O.2      1 ZINC000068267814   -0.5600
15     N15    -4.3141   -3.3298   -2.2477 N.am     1 ZINC000068267814   -0.6000
16     C16    -4.5445   -2.2001   -3.1584 C.3      1 ZINC000068267814    0.1100
17     C17    -5.1638   -2.7306   -4.4553 C.3      1 ZINC000068267814   -0.1500
18     C18    -6.4217   -3.5364   -4.1228 C.3      1 ZINC000068267814    0.1700
19     N19    -7.0351   -4.0175   -5.3631 N.am     1 ZINC000068267814   -0.5300
20     C20    -6.4549   -4.8286   -6.2683 C.2      1 ZINC000068267814    0.6900
21     O21    -5.3287   -5.2814   -6.1833 O.2      1 ZINC000068267814   -0.5400
22     N22    -7.3100   -5.0629   -7.2810 N.am     1 ZINC000068267814   -0.6300
23     C23    -8.4925   -4.3794   -7.0279 C.ar     1 ZINC000068267814    0.3000
24     N24    -9.6332   -4.2717   -7.6889 N.ar     1 ZINC000068267814   -0.4700
25     C25   -10.6327   -3.5440   -7.2289 C.ar     1 ZINC000068267814    0.1200
26     C26   -10.5290   -2.8607   -6.0320 C.ar     1 ZINC000068267814   -0.1600
27     C27    -9.3519   -2.9429   -5.3022 C.ar     1 ZINC000068267814   -0.0600
28     C28    -8.3202   -3.7203   -5.8068 C.ar     1 ZINC000068267814    0.0500
29     C29    -6.0465   -4.7310   -3.2428 C.3      1 ZINC000068267814   -0.1500
30     C30    -5.4356   -4.2268   -1.9370 C.3      1 ZINC000068267814    0.1300
31     C31    -0.6654   -2.6621    0.0471 C.3      1 ZINC000068267814   -0.1300
32     C32    -1.6153   -1.5027    0.3325 C.3      1 ZINC000068267814   -0.1000
33     C33    -1.7050   -0.5956   -0.8969 C.3      1 ZINC000068267814   -0.0900
34     H34    -2.0597   -1.1713   -1.7517 H        1 ZINC000068267814    0.1600
35     C35    -2.6571    0.5393   -0.6204 C.ar     1 ZINC000068267814   -0.0400
36     C36    -2.5025    1.3096    0.5168 C.ar     1 ZINC000068267814   -0.0800
37     C37    -3.3752    2.3511    0.7719 C.ar     1 ZINC000068267814   -0.1000
38     C38    -4.4041    2.6243   -0.1097 C.ar     1 ZINC000068267814   -0.1300
39     C39    -4.5616    1.8548   -1.2493 C.ar     1 ZINC000068267814    0.0700
40     F40    -5.5670    2.1212   -2.1115 F        1 ZINC000068267814   -0.1300
41     C41    -3.6830    0.8139   -1.5081 C.ar     1 ZINC000068267814    0.0600
42     F42    -3.8347    0.0614   -2.6198 F        1 ZINC000068267814   -0.1300
43     H43     0.4642    1.7027   -1.9634 H        1 ZINC000068267814    0.3400
44     H44    -1.0127    1.2836   -2.6028 H        1 ZINC000068267814    0.3400
45     H45     1.5254    0.7578   -2.9475 H        1 ZINC000068267814    0.1400
46     H46     2.8196   -0.6424   -4.5368 H        1 ZINC000068267814    0.1400
47     H47     2.4308   -3.0783   -4.5773 H        1 ZINC000068267814    0.1600
48     H48    -5.2259   -1.4882   -2.6925 H        1 ZINC000068267814    0.0800
49     H49    -3.5963   -1.7102   -3.3800 H        1 ZINC000068267814    0.1100
50     H50    -5.4283   -1.8933   -5.1012 H        1 ZINC000068267814    0.0800
51     H51    -4.4453   -3.3718   -4.9659 H        1 ZINC000068267814    0.0900
52     H52    -7.1296   -2.9014   -3.5901 H        1 ZINC000068267814    0.1000
53     H53    -7.1306   -5.6161   -8.0573 H        1 ZINC000068267814    0.4400
54     H54   -11.5484   -3.4809   -7.7979 H        1 ZINC000068267814    0.1700
55     H55   -11.3558   -2.2684   -5.6687 H        1 ZINC000068267814    0.1500
56     H56    -9.2437   -2.4193   -4.3639 H        1 ZINC000068267814    0.1400
57     H57    -6.9392   -5.3176   -3.0257 H        1 ZINC000068267814    0.0900
58     H58    -5.3197   -5.3534   -3.7648 H        1 ZINC000068267814    0.0900
59     H59    -5.0770   -5.0728   -1.3507 H        1 ZINC000068267814    0.1100
60     H60    -6.1877   -3.6788   -1.3694 H        1 ZINC000068267814    0.0800
61     H61    -0.9427   -3.5239    0.6541 H        1 ZINC000068267814    0.0900
62     H62     0.3583   -2.3645    0.2742 H        1 ZINC000068267814    0.0800
63     H63    -2.6051   -1.8942    0.5672 H        1 ZINC000068267814    0.0700
64     H64    -1.2425   -0.9290    1.1810 H        1 ZINC000068267814    0.0700
65     H65    -1.6994    1.0974    1.2069 H        1 ZINC000068267814    0.1300
66     H66    -3.2531    2.9517    1.6611 H        1 ZINC000068267814    0.1400
67     H67    -5.0854    3.4379    0.0909 H        1 ZINC000068267814    0.1400
@<TRIPOS>BOND
1     1     2     1
2     1     43    1
3     1     44    1
4     2     3     1
5     2     33    1
6     2     4     1
7     4     9     ar
8     4     5     ar
9     5     6     ar
10    5     45    1
11    6     7     ar
12    6     46    1
13    7     8     ar
14    7     47    1
15    8     9     ar
16    9     10    1
17    10    11    1
18    10    12    1
19    10    31    1
20    12    13    1
21    13    14    2
22    13    15    am
23    15    30    1
24    15    16    1
25    16    17    1
26    16    48    1
27    16    49    1
28    17    18    1
29    17    50    1
30    17    51    1
31    18    19    1
32    18    29    1
33    18    52    1
34    19    28    1
35    19    20    am
36    20    21    2
37    20    22    am
38    22    23    1
39    22    53    1
40    23    28    ar
41    23    24    ar
42    24    25    ar
43    25    26    ar
44    25    54    1
45    26    27    ar
46    26    55    1
47    27    28    ar
48    27    56    1
49    29    30    1
50    29    57    1
51    29    58    1
52    30    59    1
53    30    60    1
54    31    32    1
55    31    61    1
56    31    62    1
57    32    33    1
58    32    63    1
59    32    64    1
60    33    34    1
61    33    35    1
62    35    41    ar
63    35    36    ar
64    36    37    ar
65    36    65    1
66    37    38    ar
67    37    66    1
68    38    39    ar
69    38    67    1
70    39    40    1
71    39    41    ar
72    41    42    1
@<TRIPOS>SUBSTRUCTURE
1   ZINC000068267814 1     RESIDUE    1   A     ZIN   1
