@<TRIPOS>MOLECULE
ZINC000000158116
18    17    1     0     0
SMALL
USER_CHARGES
@<TRIPOS>ATOM
1      C1     -0.0187    1.5258    0.0104 C.3      1 ZINC000000158116   -0.1500
2      C2      0.0021   -0.0041    0.0020 C.3      1 ZINC000000158116   -0.0800
3      C3      0.7421   -0.5109    1.2415 C.3      1 ZINC000000158116   -0.1600
4      C4     -1.4333   -0.5336    0.0129 C.3      1 ZINC000000158116   -0.1400
5      C5     -1.4159   -2.0348   -0.1192 C.2      1 ZINC000000158116    0.5100
6      N6     -2.5744   -2.7235   -0.1333 N.am     1 ZINC000000158116   -0.8600
7      O7     -0.3595   -2.6231   -0.2128 O.2      1 ZINC000000158116   -0.5400
8      H8      1.0039    1.9031    0.0027 H        1 ZINC000000158116    0.0600
9      H9     -0.5459    1.8868   -0.8726 H        1 ZINC000000158116    0.0500
10     H10    -0.5289    1.8773    0.9072 H        1 ZINC000000158116    0.0600
11     H11     0.5123   -0.3556   -0.8948 H        1 ZINC000000158116    0.0800
12     H12     0.2319   -0.1594    2.1383 H        1 ZINC000000158116    0.0500
13     H13     0.7568   -1.6008    1.2356 H        1 ZINC000000158116    0.0700
14     H14     1.7647   -0.1336    1.2338 H        1 ZINC000000158116    0.0500
15     H15    -1.9156   -0.2570    0.9504 H        1 ZINC000000158116    0.0900
16     H16    -1.9862   -0.1019   -0.8214 H        1 ZINC000000158116    0.0900
17     H17    -3.4193   -2.2529   -0.0584 H        1 ZINC000000158116    0.4000
18     H18    -2.5632   -3.6897   -0.2183 H        1 ZINC000000158116    0.4000
@<TRIPOS>BOND
1     1     2     1
2     1     8     1
3     1     9     1
4     1     10    1
5     2     3     1
6     2     4     1
7     2     11    1
8     3     12    1
9     3     13    1
10    3     14    1
11    4     5     1
12    4     15    1
13    4     16    1
14    5     6     am
15    5     7     2
16    6     17    1
17    6     18    1
@<TRIPOS>SUBSTRUCTURE
1   ZINC000000158116 1     RESIDUE    1   A     ZIN   1
