@<TRIPOS>MOLECULE
ZINC000049756486
60    63    1     0     0
SMALL
USER_CHARGES
@<TRIPOS>ATOM
1      C1     -0.0184    1.5028    0.0103 C.3      1 ZINC000049756486   -0.0800
2      C2      0.0021   -0.0041    0.0020 C.2      1 ZINC000049756486    0.0000
3      C3     -1.0704   -0.8164    0.0025 C.2      1 ZINC000049756486   -0.0200
4      C4     -2.5133   -0.3814    0.0114 C.3      1 ZINC000049756486    0.1500
5      O5     -2.9754   -0.2366   -1.3330 O.3      1 ZINC000049756486   -0.3100
6      C6     -4.2662    0.1533   -1.5031 C.ar     1 ZINC000049756486    0.1400
7      C7     -5.0696    0.3971   -0.3987 C.ar     1 ZINC000049756486   -0.2100
8      C8     -6.3812    0.7938   -0.5743 C.ar     1 ZINC000049756486   -0.0500
9      C9     -6.8934    0.9475   -1.8493 C.ar     1 ZINC000049756486   -0.1300
10     C10    -8.3247    1.3798   -2.0379 C.3      1 ZINC000049756486    0.1200
11     O11    -8.3874    2.8062   -2.0987 O.3      1 ZINC000049756486   -0.2200
12     N12    -9.6957    3.3182   -2.2755 N.2      1 ZINC000049756486   -0.3500
13     C13    -9.8862    4.5954   -2.3461 C.2      1 ZINC000049756486    0.1800
14     C14    -8.7157    5.5388   -2.2403 C.3      1 ZINC000049756486   -0.0900
15     C15    -8.1472    5.8046   -3.6356 C.3      1 ZINC000049756486   -0.1700
16     C16    -6.9768    6.7480   -3.5298 C.2      1 ZINC000049756486    0.4900
17     O17    -6.6295    7.1687   -2.4394 O.co2    1 ZINC000049756486   -0.7000
18     O18    -6.3771    7.0905   -4.5346 O.co2    1 ZINC000049756486   -0.7000
19     C19   -11.2503    5.1293   -2.5304 C.ar     1 ZINC000049756486   -0.0400
20     C20   -11.4588    6.5073   -2.6127 C.ar     1 ZINC000049756486   -0.0800
21     C21   -12.7360    6.9994   -2.7849 C.ar     1 ZINC000049756486   -0.1200
22     C22   -13.8090    6.1307   -2.8760 C.ar     1 ZINC000049756486   -0.1100
23     C23   -13.6096    4.7640   -2.7947 C.ar     1 ZINC000049756486   -0.1300
24     C24   -12.3368    4.2581   -2.6288 C.ar     1 ZINC000049756486   -0.0800
25     C25    -6.0946    0.7055   -2.9516 C.ar     1 ZINC000049756486   -0.0500
26     C26    -4.7808    0.3137   -2.7814 C.ar     1 ZINC000049756486   -0.1500
27     N27    -0.6270   -2.0826   -0.0069 N.2      1 ZINC000049756486   -0.4500
28     C28     0.6851   -2.0676   -0.0131 C.2      1 ZINC000049756486    0.2300
29     C29     1.5619   -3.2577   -0.0241 C.ar     1 ZINC000049756486   -0.0200
30     C30     1.0059   -4.5378   -0.0345 C.ar     1 ZINC000049756486   -0.0700
31     C31     1.8298   -5.6443   -0.0447 C.ar     1 ZINC000049756486   -0.1200
32     C32     3.2044   -5.4871   -0.0446 C.ar     1 ZINC000049756486   -0.1000
33     C33     3.7620   -4.2209   -0.0342 C.ar     1 ZINC000049756486   -0.1200
34     C34     2.9493   -3.1060   -0.0298 C.ar     1 ZINC000049756486   -0.0900
35     O35     1.0981   -0.7883   -0.0131 O.3      1 ZINC000049756486   -0.1900
36     H36     1.0042    1.8801    0.0026 H        1 ZINC000049756486    0.0800
37     H37    -0.5455    1.8639   -0.8728 H        1 ZINC000049756486    0.1000
38     H38    -0.5286    1.8543    0.9071 H        1 ZINC000049756486    0.1000
39     H39    -3.1157   -1.1314    0.5239 H        1 ZINC000049756486    0.0800
40     H40    -2.6019    0.5728    0.5308 H        1 ZINC000049756486    0.0800
41     H41    -4.6702    0.2766    0.5974 H        1 ZINC000049756486    0.1300
42     H42    -7.0071    0.9837    0.2851 H        1 ZINC000049756486    0.1300
43     H43    -8.7120    0.9592   -2.9659 H        1 ZINC000049756486    0.0600
44     H44    -8.9248    1.0252   -1.2000 H        1 ZINC000049756486    0.0600
45     H45    -9.0454    6.4785   -1.7972 H        1 ZINC000049756486    0.0800
46     H46    -7.9445    5.0920   -1.6128 H        1 ZINC000049756486    0.0800
47     H47    -7.8175    4.8649   -4.0787 H        1 ZINC000049756486    0.0600
48     H48    -8.9184    6.2514   -4.2631 H        1 ZINC000049756486    0.0600
49     H49   -10.6221    7.1865   -2.5415 H        1 ZINC000049756486    0.1400
50     H50   -12.8988    8.0652   -2.8484 H        1 ZINC000049756486    0.1300
51     H51   -14.8069    6.5212   -3.0107 H        1 ZINC000049756486    0.1200
52     H52   -14.4516    4.0914   -2.8661 H        1 ZINC000049756486    0.1200
53     H53   -12.1825    3.1911   -2.5655 H        1 ZINC000049756486    0.1300
54     H54    -6.4969    0.8266   -3.9465 H        1 ZINC000049756486    0.1300
55     H55    -4.1573    0.1249   -3.6427 H        1 ZINC000049756486    0.1300
56     H56    -0.0669   -4.6619   -0.0343 H        1 ZINC000049756486    0.1400
57     H57     1.4009   -6.6354   -0.0525 H        1 ZINC000049756486    0.1300
58     H58     3.8450   -6.3565   -0.0522 H        1 ZINC000049756486    0.1300
59     H59     4.8358   -4.1050   -0.0342 H        1 ZINC000049756486    0.1300
60     H60     3.3858   -2.1182   -0.0218 H        1 ZINC000049756486    0.1300
@<TRIPOS>BOND
1     1     2     1
2     1     36    1
3     1     37    1
4     1     38    1
5     2     35    1
6     2     3     2
7     3     4     1
8     3     27    1
9     4     5     1
10    4     39    1
11    4     40    1
12    5     6     1
13    6     26    ar
14    6     7     ar
15    7     8     ar
16    7     41    1
17    8     9     ar
18    8     42    1
19    9     10    1
20    9     25    ar
21    10    11    1
22    10    43    1
23    10    44    1
24    11    12    1
25    12    13    2
26    13    14    1
27    13    19    1
28    14    15    1
29    14    45    1
30    14    46    1
31    15    16    1
32    15    47    1
33    15    48    1
34    16    17    ar
35    16    18    ar
36    19    24    ar
37    19    20    ar
38    20    21    ar
39    20    49    1
40    21    22    ar
41    21    50    1
42    22    23    ar
43    22    51    1
44    23    24    ar
45    23    52    1
46    24    53    1
47    25    26    ar
48    25    54    1
49    26    55    1
50    27    28    2
51    28    29    1
52    28    35    1
53    29    34    ar
54    29    30    ar
55    30    31    ar
56    30    56    1
57    31    32    ar
58    31    57    1
59    32    33    ar
60    32    58    1
61    33    34    ar
62    33    59    1
63    34    60    1
@<TRIPOS>SUBSTRUCTURE
1   ZINC000049756486 1     RESIDUE    1   A     ZIN   1
