@<TRIPOS>MOLECULE
ZINC000004825704
  56   56    0    0    0
SMALL
USER_CHARGES
NO_NAME
@<TRIPOS>ATOM
    1 C1       -0.1197     1.5007     0.0169 C.3    1 <0>      -0.1000
    2 C2       -0.0197    -0.0029     0.0031 C.2    1 <0>      -0.0800
    3 C3        0.1590    -0.7057     1.2054 C.2    1 <0>      -0.0800
    4 C4        0.2421    -0.0281     2.3849 C.2    1 <0>      -0.1500
    5 C5        0.4214    -0.7332     3.5910 C.2    1 <0>      -0.1000
    6 C6        0.5039    -0.0596     4.7636 C.2    1 <0>      -0.1100
    7 C7        0.4039     1.4441     4.7775 C.3    1 <0>      -0.1100
    8 C8        0.6911    -0.7953     6.0223 C.ar   1 <0>      -0.0300
    9 C9       -0.3029    -1.6666     6.4824 C.ar   1 <0>      -0.1100
   10 C10      -0.1196    -2.3528     7.6639 C.ar   1 <0>      -0.0700
   11 C11      -1.1882    -3.2919     8.1611 C.3    1 <0>      -0.0300
   12 C12      -2.3596    -3.2984     7.1768 C.3    1 <0>      -0.1500
   13 C13      -0.6119    -4.7044     8.2774 C.3    1 <0>      -0.1400
   14 C14      -1.6780    -2.8262     9.5337 C.3    1 <0>      -0.1400
   15 C15       1.0437    -2.1820     8.3946 C.ar   1 <0>      -0.1100
   16 C16       2.0317    -1.3221     7.9466 C.ar   1 <0>      -0.0700
   17 C17       3.2942    -1.1443     8.7501 C.3    1 <0>      -0.0300
   18 C18       4.0074    -2.4913     8.8839 C.3    1 <0>      -0.1400
   19 C19       4.2141    -0.1484     8.0410 C.3    1 <0>      -0.1500
   20 C20       2.9428    -0.6129    10.1411 C.3    1 <0>      -0.1400
   21 C21       1.8666    -0.6327     6.7642 C.ar   1 <0>      -0.1100
   22 C22      -0.1029    -0.6812    -1.1777 C.2    1 <0>      -0.1300
   23 C23      -0.1242     0.0245    -2.3943 C.2    1 <0>       0.4400
   24 O24       0.0581     1.3451    -2.4020 O.co2  1 <0>      -0.6900
   25 O25      -0.3267    -0.6272    -3.5395 O.co2  1 <0>      -0.7100
   26 H26       0.8599     1.9319    -0.1893 H      1 <0>       0.0700
   27 H27      -0.8274     1.8248    -0.7462 H      1 <0>       0.1000
   28 H28      -0.4640     1.8329     0.9963 H      1 <0>       0.0300
   29 H29       0.2307    -1.7833     1.1954 H      1 <0>       0.1100
   30 H30       0.1704     1.0495     2.3948 H      1 <0>       0.1300
   31 H31       0.4931    -1.8108     3.5811 H      1 <0>       0.1100
   32 H32      -0.6395     1.7377     4.8922 H      1 <0>       0.0700
   33 H33       0.9862     1.8393     5.6099 H      1 <0>       0.0600
   34 H34       0.7927     1.8427     3.8405 H      1 <0>       0.0700
   35 H35      -1.2112    -1.8007     5.9136 H      1 <0>       0.1300
   36 H36      -2.0106    -3.6302     6.1989 H      1 <0>       0.0600
   37 H37      -3.1325    -3.9777     7.5365 H      1 <0>       0.0600
   38 H38      -2.7701    -2.2921     7.0940 H      1 <0>       0.0600
   39 H39       0.2226    -4.6998     8.9786 H      1 <0>       0.0600
   40 H40      -1.3849    -5.3837     8.6370 H      1 <0>       0.0600
   41 H41      -0.2630    -5.0362     7.2995 H      1 <0>       0.0600
   42 H42      -2.0885    -1.8199     9.4508 H      1 <0>       0.0600
   43 H43      -2.4509    -3.5055     9.8933 H      1 <0>       0.0600
   44 H44      -0.8434    -2.8216    10.2349 H      1 <0>       0.0600
   45 H45       1.1810    -2.7223     9.3196 H      1 <0>       0.1200
   46 H46       4.2578    -2.8699     7.8929 H      1 <0>       0.0600
   47 H47       4.9206    -2.3627     9.4651 H      1 <0>       0.0600
   48 H48       3.3521    -3.2008     9.3891 H      1 <0>       0.0600
   49 H49       3.7059     0.8112     7.9456 H      1 <0>       0.0600
   50 H50       5.1272    -0.0198     8.6221 H      1 <0>       0.0600
   51 H51       4.4644    -0.5270     7.0500 H      1 <0>       0.0600
   52 H52       2.2875    -1.3224    10.6463 H      1 <0>       0.0600
   53 H53       3.8559    -0.4843    10.7223 H      1 <0>       0.0600
   54 H54       2.4347     0.3467    10.0457 H      1 <0>       0.0600
   55 H55       2.6384     0.0378     6.4160 H      1 <0>       0.1300
   56 H56      -0.1523    -1.7601    -1.1784 H      1 <0>       0.1100
@<TRIPOS>BOND
   1    1    2 1
   2    1   26 1
   3    1   27 1
   4    1   28 1
   5    2    3 1
   6    2   22 2
   7    3    4 2
   8    3   29 1
   9    4    5 1
  10    4   30 1
  11    5    6 2
  12    5   31 1
  13    6    7 1
  14    6    8 1
  15    7   32 1
  16    7   33 1
  17    7   34 1
  18    8   21 ar
  19    8    9 ar
  20    9   10 ar
  21    9   35 1
  22   10   11 1
  23   10   15 ar
  24   11   12 1
  25   11   13 1
  26   11   14 1
  27   12   36 1
  28   12   37 1
  29   12   38 1
  30   13   39 1
  31   13   40 1
  32   13   41 1
  33   14   42 1
  34   14   43 1
  35   14   44 1
  36   15   16 ar
  37   15   45 1
  38   16   17 1
  39   16   21 ar
  40   17   18 1
  41   17   19 1
  42   17   20 1
  43   18   46 1
  44   18   47 1
  45   18   48 1
  46   19   49 1
  47   19   50 1
  48   19   51 1
  49   20   52 1
  50   20   53 1
  51   20   54 1
  52   21   55 1
  53   22   23 1
  54   22   56 1
  55   23   24 ar
  56   23   25 ar
