@<TRIPOS>MOLECULE
ZINC000016052719
70    77    1     0     0
SMALL
USER_CHARGES
@<TRIPOS>ATOM
1      C1     -0.2368    1.4010    0.2571 C.3      1 ZINC000016052719   -0.0500
2      N2     -0.2063   -0.0674    0.2258 N.4      1 ZINC000016052719   -0.5300
3      H3      0.0506   -0.4179    1.1364 H        1 ZINC000016052719    0.4300
4      H4     -1.1191   -0.4174   -0.0241 H        1 ZINC000016052719    0.4200
5      C5      0.7788   -0.5156   -0.7674 C.3      1 ZINC000016052719   -0.0100
6      H6      1.7394   -0.0381   -0.5741 H        1 ZINC000016052719    0.1500
7      C7      0.2951   -0.1530   -2.1758 C.3      1 ZINC000016052719   -0.1800
8      C8     -1.0446   -0.8298   -2.4413 C.3      1 ZINC000016052719    0.2900
9      H9     -1.2517   -0.7379   -3.5074 H        1 ZINC000016052719    0.1600
10     O10    -1.0185   -2.2069   -2.1313 O.3      1 ZINC000016052719   -0.3300
11     C11    -0.4302   -2.6764   -0.9384 C.3      1 ZINC000016052719    0.3200
12     C12    -0.1707   -4.1732   -1.1200 C.3      1 ZINC000016052719   -0.1700
13     C13     0.9337   -2.0386   -0.6913 C.3      1 ZINC000016052719    0.0400
14     H14     1.6466   -2.4074   -1.4288 H        1 ZINC000016052719    0.1400
15     O15     1.3874   -2.3768    0.6209 O.3      1 ZINC000016052719   -0.3700
16     C16     2.8092   -2.4511    0.7431 C.3      1 ZINC000016052719    0.0200
17     N17    -1.3143   -2.5286    0.2177 N.pl3    1 ZINC000016052719   -0.4800
18     C18    -1.3640   -3.3296    1.3256 C.2      1 ZINC000016052719    0.1100
19     C19    -2.3042   -2.8755    2.1785 C.2      1 ZINC000016052719   -0.1400
20     C20    -2.6379   -3.5107    3.5035 C.3      1 ZINC000016052719   -0.0500
21     C21    -2.0606   -4.9317    3.5199 C.3      1 ZINC000016052719   -0.1300
22     C22    -0.5931   -4.8859    3.0850 C.3      1 ZINC000016052719   -0.1200
23     C23    -0.5120   -4.5495    1.5921 C.3      1 ZINC000016052719   -0.0700
24     C24    -2.9105   -1.6903    1.5765 C.ar     1 ZINC000016052719   -0.0400
25     C25    -3.9073   -0.7921    1.9595 C.ar     1 ZINC000016052719   -0.0300
26     C26    -4.7732   -0.6841    3.1910 C.3      1 ZINC000016052719    0.1400
27     N27    -5.6302    0.4891    2.9868 N.am     1 ZINC000016052719   -0.7200
28     C28    -5.3345    1.0309    1.7932 C.2      1 ZINC000016052719    0.5600
29     O29    -5.8710    2.0181    1.3274 O.2      1 ZINC000016052719   -0.5100
30     C30    -4.2716    0.2635    1.1307 C.ar     1 ZINC000016052719   -0.1200
31     C31    -3.5973    0.4268   -0.1565 C.ar     1 ZINC000016052719    0.0000
32     C32    -3.7005    1.3330   -1.2327 C.2      1 ZINC000016052719   -0.1100
33     C33    -2.7913    0.9810   -2.1701 C.2      1 ZINC000016052719    0.0700
34     C34    -2.6019    1.7195   -3.4747 C.3      1 ZINC000016052719   -0.0500
35     C35    -3.8369    2.5920   -3.7250 C.3      1 ZINC000016052719   -0.1200
36     C36    -4.1339    3.4240   -2.4742 C.3      1 ZINC000016052719   -0.1200
37     C37    -4.6442    2.5030   -1.3602 C.3      1 ZINC000016052719   -0.0500
38     N38    -2.1186   -0.1439   -1.7254 N.pl3    1 ZINC000016052719   -0.4900
39     C39    -2.5949   -0.4799   -0.5096 C.ar     1 ZINC000016052719    0.0200
40     C40    -2.2543   -1.5286    0.3473 C.ar     1 ZINC000016052719    0.0400
41     H41     0.7492    1.7792    0.5270 H        1 ZINC000016052719    0.1200
42     H42    -0.5144    1.7797   -0.7266 H        1 ZINC000016052719    0.1200
43     H43    -0.9678    1.7336    0.9941 H        1 ZINC000016052719    0.1300
44     H44     0.1778    0.9279   -2.2528 H        1 ZINC000016052719    0.1200
45     H45     1.0258   -0.4928   -2.9098 H        1 ZINC000016052719    0.1500
46     H46     0.3269   -4.3425   -2.0749 H        1 ZINC000016052719    0.1000
47     H47     0.4645   -4.5327   -0.3105 H        1 ZINC000016052719    0.1100
48     H48    -1.1188   -4.7109   -1.1041 H        1 ZINC000016052719    0.0900
49     H49     3.1930   -3.2125    0.0640 H        1 ZINC000016052719    0.0600
50     H50     3.2466   -1.4852    0.4905 H        1 ZINC000016052719    0.0500
51     H51     3.0727   -2.7124    1.7680 H        1 ZINC000016052719    0.1100
52     H52    -2.1967   -2.9268    4.3113 H        1 ZINC000016052719    0.0800
53     H53    -3.7200   -3.5535    3.6271 H        1 ZINC000016052719    0.0800
54     H54    -2.1289   -5.3406    4.5280 H        1 ZINC000016052719    0.0800
55     H55    -2.6246   -5.5616    2.8320 H        1 ZINC000016052719    0.0700
56     H56    -0.0680   -4.1222    3.6587 H        1 ZINC000016052719    0.0700
57     H57    -0.1308   -5.8566    3.2642 H        1 ZINC000016052719    0.0800
58     H58    -0.8836   -5.3906    1.0068 H        1 ZINC000016052719    0.0900
59     H59     0.5224   -4.3397    1.3200 H        1 ZINC000016052719    0.0900
60     H60    -5.3842   -1.5803    3.2993 H        1 ZINC000016052719    0.1100
61     H61    -4.1514   -0.5447    4.0754 H        1 ZINC000016052719    0.1100
62     H62    -6.2981    0.8180    3.6086 H        1 ZINC000016052719    0.4300
63     H63    -1.7148    2.3498   -3.4131 H        1 ZINC000016052719    0.0900
64     H64    -2.4892    1.0027   -4.2881 H        1 ZINC000016052719    0.0800
65     H65    -3.6474    3.2571   -4.5675 H        1 ZINC000016052719    0.0800
66     H66    -4.6925    1.9551   -3.9495 H        1 ZINC000016052719    0.0700
67     H67    -3.2226    3.9229   -2.1445 H        1 ZINC000016052719    0.0600
68     H68    -4.8939    4.1702   -2.7059 H        1 ZINC000016052719    0.0800
69     H69    -5.6417    2.1426   -1.6117 H        1 ZINC000016052719    0.0800
70     H70    -4.6770    3.0511   -0.4186 H        1 ZINC000016052719    0.0900
@<TRIPOS>BOND
1     1     2     1
2     1     41    1
3     1     42    1
4     1     43    1
5     2     3     1
6     2     4     1
7     2     5     1
8     5     6     1
9     5     13    1
10    5     7     1
11    7     8     1
12    7     44    1
13    7     45    1
14    8     9     1
15    8     38    1
16    8     10    1
17    10    11    1
18    11    12    1
19    11    13    1
20    11    17    1
21    12    46    1
22    12    47    1
23    12    48    1
24    13    14    1
25    13    15    1
26    15    16    1
27    16    49    1
28    16    50    1
29    16    51    1
30    17    40    1
31    17    18    1
32    18    23    1
33    18    19    2
34    19    20    1
35    19    24    1
36    20    21    1
37    20    52    1
38    20    53    1
39    21    22    1
40    21    54    1
41    21    55    1
42    22    23    1
43    22    56    1
44    22    57    1
45    23    58    1
46    23    59    1
47    24    40    ar
48    24    25    ar
49    25    30    ar
50    25    26    1
51    26    27    1
52    26    60    1
53    26    61    1
54    27    28    am
55    27    62    1
56    28    29    2
57    28    30    1
58    30    31    ar
59    31    39    ar
60    31    32    1
61    32    37    1
62    32    33    2
63    33    34    1
64    33    38    1
65    34    35    1
66    34    63    1
67    34    64    1
68    35    36    1
69    35    65    1
70    35    66    1
71    36    37    1
72    36    67    1
73    36    68    1
74    37    69    1
75    37    70    1
76    38    39    1
77    39    40    ar
@<TRIPOS>SUBSTRUCTURE
1   ZINC000016052719 1     RESIDUE    1   A     ZIN   1
