@<TRIPOS>MOLECULE
ZINC000000391921
  35   37    0    0    0
SMALL
USER_CHARGES
NO_NAME
@<TRIPOS>ATOM
    1 C1        0.0077     1.4848    -0.0068 C.3    1 <0>      -0.1300
    2 C2        0.0330    -0.0220    -0.0093 C.2    1 <0>       0.0300
    3 C3        0.0491    -0.7175    -1.1762 C.2    1 <0>      -0.2600
    4 C4        0.0726    -2.1272    -1.1522 C.2    1 <0>       0.5100
    5 O5        0.0872    -2.7383    -2.2056 O.2    1 <0>      -0.4600
    6 O6        0.0798    -2.8128     0.0017 O.3    1 <0>      -0.2700
    7 C7        0.0647    -2.1827     1.1960 C.ar   1 <0>       0.1700
    8 C8        0.0725    -2.9061     2.3783 C.ar   1 <0>      -0.1400
    9 C9        0.0568    -2.2388     3.5941 C.ar   1 <0>       0.2000
   10 N10       0.0646    -2.9675     4.7839 N.am   1 <0>      -0.6700
   11 C11      -0.5885    -4.1441     4.8578 C.2    1 <0>       0.5000
   12 O12      -1.1131    -4.6097     3.8683 O.2    1 <0>      -0.4900
   13 C13      -0.6670    -4.8813     6.1698 C.3    1 <0>       0.1200
   14 H14       0.2888    -4.8256     6.6909 H      1 <0>       0.1100
   15 C15      -1.7905    -4.2893     7.0493 C.3    1 <0>      -0.1200
   16 C16      -2.3326    -5.5511     7.7599 C.3    1 <0>      -0.1600
   17 C17      -1.9733    -6.6859     6.8263 C.2    1 <0>       0.5200
   18 O18      -2.4545    -7.7984     6.8678 O.2    1 <0>      -0.5200
   19 N19      -1.0412    -6.2823     5.9436 N.am   1 <0>      -0.7100
   20 C20       0.0336    -0.8450     3.6365 C.ar   1 <0>      -0.1600
   21 C21       0.0252    -0.1187     2.4813 C.ar   1 <0>      -0.0400
   22 C22       0.0470    -0.7760     1.2459 C.ar   1 <0>      -0.1700
   23 H23       1.0291     1.8654    -0.0073 H      1 <0>       0.0900
   24 H24      -0.5132     1.8409    -0.8956 H      1 <0>       0.0900
   25 H25      -0.5112     1.8380     0.8843 H      1 <0>       0.0800
   26 H26       0.0435    -0.1921    -2.1197 H      1 <0>       0.1600
   27 H27       0.0905    -3.9856     2.3529 H      1 <0>       0.1600
   28 H28       0.5402    -2.6273     5.5578 H      1 <0>       0.4200
   29 H29      -1.3877    -3.5782     7.7705 H      1 <0>       0.1100
   30 H30      -2.5626    -3.8252     6.4356 H      1 <0>       0.0900
   31 H31      -1.8459    -5.6834     8.7262 H      1 <0>       0.1100
   32 H32      -3.4137    -5.4853     7.8821 H      1 <0>       0.1100
   33 H33      -0.6671    -6.8444     5.2473 H      1 <0>       0.4200
   34 H34       0.0218    -0.3373     4.5897 H      1 <0>       0.1400
   35 H35       0.0069     0.9605     2.5202 H      1 <0>       0.1500
@<TRIPOS>BOND
   1    1    2 1
   2    1   23 1
   3    1   24 1
   4    1   25 1
   5    2   22 1
   6    2    3 2
   7    3    4 1
   8    3   26 1
   9    4    5 2
  10    4    6 1
  11    6    7 1
  12    7   22 ar
  13    7    8 ar
  14    8    9 ar
  15    8   27 1
  16    9   10 1
  17    9   20 ar
  18   10   11 am
  19   10   28 1
  20   11   12 2
  21   11   13 1
  22   13   14 1
  23   13   19 1
  24   13   15 1
  25   15   16 1
  26   15   29 1
  27   15   30 1
  28   16   17 1
  29   16   31 1
  30   16   32 1
  31   17   18 2
  32   17   19 am
  33   19   33 1
  34   20   21 ar
  35   20   34 1
  36   21   22 ar
  37   21   35 1
