@<TRIPOS>MOLECULE
ZINC000013579814
  34   34    0    0    0
SMALL
USER_CHARGES
NO_NAME
@<TRIPOS>ATOM
    1 C1        1.9329     0.3689     1.6594 C.3    1 <0>      -0.1600
    2 C2        1.7276    -0.9733     0.9543 C.3    1 <0>      -0.0900
    3 C3        2.1878    -0.8609    -0.5005 C.3    1 <0>       0.1100
    4 C4        1.3706     0.2193    -1.2119 C.3    1 <0>      -0.1800
    5 C5        3.6708    -0.4864    -0.5387 C.3    1 <0>      -0.1800
    6 N6        1.9912    -2.1461    -1.1756 N.2    1 <0>      -0.5900
    7 C7        2.3235    -2.2816    -2.4276 C.2    1 <0>       0.6200
    8 N8        2.7701    -1.1907    -3.1448 N.pl3  1 <0>      -0.6300
    9 C9        2.9782    -1.2965    -4.4795 C.1    1 <0>       0.3900
   10 N10       3.1527    -1.3852    -5.5985 N.1    1 <0>      -0.3900
   11 N11       2.2293    -3.5129    -3.0352 N.pl3  1 <0>      -0.6600
   12 C12       1.6581    -4.5897    -2.3488 C.ar   1 <0>       0.1200
   13 C13       2.1232    -5.8859    -2.5552 C.ar   1 <0>      -0.1100
   14 C14       1.5259    -6.9193    -1.8518 C.ar   1 <0>      -0.1500
   15 C15       0.4962    -6.6327    -0.9753 C.ar   1 <0>       0.0800
   16 N16       0.0786    -5.3937    -0.8022 N.ar   1 <0>      -0.4700
   17 C17       0.6224    -4.3811    -1.4470 C.ar   1 <0>       0.1100
   18 H18       2.9894     0.6357     1.6322 H      1 <0>       0.0600
   19 H19       1.3507     1.1384     1.1525 H      1 <0>       0.0600
   20 H20       1.6050     0.2888     2.6958 H      1 <0>       0.0600
   21 H21       2.3098    -1.7428     1.4612 H      1 <0>       0.0700
   22 H22       0.6711    -1.2401     0.9816 H      1 <0>       0.0700
   23 H23       1.6260     1.1967    -0.8028 H      1 <0>       0.0700
   24 H24       1.5955     0.2017    -2.2783 H      1 <0>       0.0600
   25 H25       0.3079     0.0289    -1.0616 H      1 <0>       0.0700
   26 H26       4.2449    -1.2174     0.0307 H      1 <0>       0.0700
   27 H27       4.0169    -0.4778    -1.5722 H      1 <0>       0.0500
   28 H28       3.8071     0.5028    -0.1016 H      1 <0>       0.0700
   29 H29       2.9350    -0.3481    -2.6935 H      1 <0>       0.4500
   30 H30       2.5589    -3.6340    -3.9394 H      1 <0>       0.4200
   31 H31       2.9295    -6.0809    -3.2469 H      1 <0>       0.1400
   32 H32       1.8607    -7.9371    -1.9871 H      1 <0>       0.1400
   33 H33       0.0269    -7.4346    -0.4248 H      1 <0>       0.1600
   34 H34       0.2533    -3.3801    -1.2790 H      1 <0>       0.1700
@<TRIPOS>BOND
   1    1    2 1
   2    1   18 1
   3    1   19 1
   4    1   20 1
   5    2    3 1
   6    2   21 1
   7    2   22 1
   8    3    4 1
   9    3    5 1
  10    3    6 1
  11    4   23 1
  12    4   24 1
  13    4   25 1
  14    5   26 1
  15    5   27 1
  16    5   28 1
  17    6    7 2
  18    7    8 1
  19    7   11 1
  20    8    9 1
  21    8   29 1
  22    9   10 3
  23   11   12 1
  24   11   30 1
  25   12   17 ar
  26   12   13 ar
  27   13   14 ar
  28   13   31 1
  29   14   15 ar
  30   14   32 1
  31   15   16 ar
  32   15   33 1
  33   16   17 ar
  34   17   34 1
