@<TRIPOS>MOLECULE
ZINC000005419379
  38   40    0    0    0
SMALL
USER_CHARGES
NO_NAME
@<TRIPOS>ATOM
    1 C1       -0.0184     1.5028     0.0103 C.3    1 <0>      -0.1200
    2 C2        0.0021    -0.0041     0.0020 C.ar   1 <0>      -0.1000
    3 C3        0.0056    -0.6855    -1.2163 C.ar   1 <0>       0.0800
    4 O4       -0.0094     0.0178    -2.3802 O.3    1 <0>      -0.2800
    5 C5        1.1842     0.3505    -2.9094 C.2    1 <0>       0.5100
    6 O6        2.2107     0.0221    -2.3477 O.2    1 <0>      -0.5000
    7 C7        1.2451     1.1126    -4.1693 C.ar   1 <0>      -0.2000
    8 C8        0.0647     1.4963    -4.8140 C.ar   1 <0>      -0.0100
    9 C9        0.1249     2.2053    -5.9860 C.ar   1 <0>      -0.2100
   10 C10       1.3593     2.5433    -6.5345 C.ar   1 <0>       0.2600
   11 N11       1.4166     3.2621    -7.7230 N.pl3  1 <0>      -0.8600
   12 C12       2.5363     2.1633    -5.8950 C.ar   1 <0>      -0.2100
   13 C13       2.4832     1.4588    -4.7199 C.ar   1 <0>       0.0000
   14 C14       0.0247    -2.0656    -1.2527 C.ar   1 <0>       0.1200
   15 O15       0.0284    -2.7193    -2.4456 O.3    1 <0>      -0.4800
   16 C16       0.0407    -2.7912    -0.0467 C.ar   1 <0>      -0.0600
   17 C17       0.0609    -4.1964    -0.0428 C.ar   1 <0>      -0.1000
   18 C18       0.0764    -4.8664     1.1418 C.ar   1 <0>      -0.1100
   19 C19       0.0726    -4.1792     2.3544 C.ar   1 <0>      -0.1100
   20 C20       0.0533    -2.8186     2.3889 C.ar   1 <0>      -0.1000
   21 C21       0.0369    -2.0924     1.1866 C.ar   1 <0>      -0.0600
   22 C22       0.0225    -0.6834     1.1861 C.ar   1 <0>       0.1200
   23 O23       0.0240    -0.0020     2.3622 O.3    1 <0>      -0.4800
   24 H24       1.0042     1.8801     0.0026 H      1 <0>       0.0700
   25 H25      -0.5455     1.8639    -0.8728 H      1 <0>       0.0700
   26 H26      -0.5286     1.8543     0.9071 H      1 <0>       0.0800
   27 H27      -0.8930     1.2342    -4.3893 H      1 <0>       0.1400
   28 H28      -0.7862     2.5016    -6.4846 H      1 <0>       0.1300
   29 H29       0.5973     3.5277    -8.1692 H      1 <0>       0.4000
   30 H30       2.2760     3.4982    -8.1060 H      1 <0>       0.4000
   31 H31       3.4921     2.4270    -6.3231 H      1 <0>       0.1300
   32 H32       3.3966     1.1646    -4.2242 H      1 <0>       0.1400
   33 H33       0.9128    -2.8960    -2.7945 H      1 <0>       0.3900
   34 H34       0.0637    -4.7417    -0.9750 H      1 <0>       0.1400
   35 H35       0.0915    -5.9463     1.1422 H      1 <0>       0.1300
   36 H36       0.0848    -4.7346     3.2806 H      1 <0>       0.1300
   37 H37       0.0503    -2.2999     3.3361 H      1 <0>       0.1400
   38 H38       0.9077     0.2042     2.6962 H      1 <0>       0.3900
@<TRIPOS>BOND
   1    1    2 1
   2    1   24 1
   3    1   25 1
   4    1   26 1
   5    2   22 ar
   6    2    3 ar
   7    3    4 1
   8    3   14 ar
   9    4    5 1
  10    5    6 2
  11    5    7 1
  12    7   13 ar
  13    7    8 ar
  14    8    9 ar
  15    8   27 1
  16    9   10 ar
  17    9   28 1
  18   10   11 1
  19   10   12 ar
  20   11   29 1
  21   11   30 1
  22   12   13 ar
  23   12   31 1
  24   13   32 1
  25   14   15 1
  26   14   16 ar
  27   15   33 1
  28   16   21 ar
  29   16   17 ar
  30   17   18 ar
  31   17   34 1
  32   18   19 ar
  33   18   35 1
  34   19   20 ar
  35   19   36 1
  36   20   21 ar
  37   20   37 1
  38   21   22 ar
  39   22   23 1
  40   23   38 1
