@<TRIPOS>MOLECULE
ZINC000008214697
83    82    1     0     0
SMALL
USER_CHARGES
@<TRIPOS>ATOM
1      C1     -0.0187    1.5258    0.0104 C.3      1 ZINC000008214697   -0.1500
2      C2      0.0021   -0.0041    0.0020 C.3      1 ZINC000008214697   -0.1300
3      C3      0.7421   -0.5109    1.2415 C.3      1 ZINC000008214697   -0.1200
4      C4      0.7628   -2.0407    1.2331 C.3      1 ZINC000008214697   -0.1200
5      C5      1.5028   -2.5476    2.4727 C.3      1 ZINC000008214697   -0.1200
6      C6      1.5236   -4.0774    2.4642 C.3      1 ZINC000008214697   -0.1100
7      C7      2.2636   -4.5842    3.7038 C.3      1 ZINC000008214697   -0.1100
8      C8      2.2840   -6.0911    3.6955 C.2      1 ZINC000008214697    0.4600
9      O9      1.7604   -6.6974    2.7910 O.2      1 ZINC000008214697   -0.5000
10     O10     2.8838   -6.7597    4.6929 O.3      1 ZINC000008214697   -0.3500
11     C11     2.8649   -8.2097    4.6195 C.3      1 ZINC000008214697    0.0700
12     C12     3.5913   -8.7914    5.8339 C.3      1 ZINC000008214697    0.0900
13     C13     3.4641  -10.3160    5.8223 C.3      1 ZINC000008214697    0.0500
14     O14     4.0503  -10.8599    7.0343 O.3      1 ZINC000008214697   -0.3400
15     C15     4.0201  -12.1939    7.1804 C.2      1 ZINC000008214697    0.4600
16     O16     3.5204  -12.8842    6.3238 O.2      1 ZINC000008214697   -0.5100
17     C17     4.6094  -12.8305    8.4126 C.3      1 ZINC000008214697   -0.1100
18     C18     4.4457  -14.3494    8.3299 C.3      1 ZINC000008214697   -0.1100
19     C19     5.0440  -14.9958    9.5810 C.3      1 ZINC000008214697   -0.1200
20     C20     4.8803  -16.5147    9.4982 C.3      1 ZINC000008214697   -0.1200
21     C21     5.4786  -17.1611   10.7493 C.3      1 ZINC000008214697   -0.1200
22     C22     5.3149  -18.6800   10.6666 C.3      1 ZINC000008214697   -0.1300
23     C23     5.9132  -19.3264   11.9176 C.3      1 ZINC000008214697   -0.1500
24     O24     4.9947   -8.4224    5.7810 O.3      1 ZINC000008214697   -0.3500
25     C25     5.6322   -8.2807    6.9537 C.2      1 ZINC000008214697    0.4600
26     O26     5.0373   -8.4591    7.9902 O.2      1 ZINC000008214697   -0.4900
27     C27     7.0899   -7.8991    6.9777 C.3      1 ZINC000008214697   -0.1100
28     C28     7.5687   -7.8050    8.4278 C.3      1 ZINC000008214697   -0.1100
29     C29     9.0486   -7.4176    8.4521 C.3      1 ZINC000008214697   -0.1200
30     C30     9.5274   -7.3236    9.9022 C.3      1 ZINC000008214697   -0.1200
31     C31    11.0074   -6.9362    9.9265 C.3      1 ZINC000008214697   -0.1200
32     C32    11.4862   -6.8421   11.3766 C.3      1 ZINC000008214697   -0.1300
33     C33    12.9661   -6.4547   11.4009 C.3      1 ZINC000008214697   -0.1500
34     H34     1.0039    1.9031    0.0027 H        1 ZINC000008214697    0.0500
35     H35    -0.5459    1.8868   -0.8726 H        1 ZINC000008214697    0.0500
36     H36    -0.5289    1.8773    0.9072 H        1 ZINC000008214697    0.0500
37     H37    -1.0205   -0.3814    0.0098 H        1 ZINC000008214697    0.0600
38     H38     0.5123   -0.3556   -0.8948 H        1 ZINC000008214697    0.0600
39     H39     1.7647   -0.1336    1.2338 H        1 ZINC000008214697    0.0600
40     H40     0.2319   -0.1594    2.1383 H        1 ZINC000008214697    0.0600
41     H41    -0.2598   -2.4180    1.2409 H        1 ZINC000008214697    0.0600
42     H42     1.2730   -2.3923    0.3363 H        1 ZINC000008214697    0.0600
43     H43     2.5254   -2.1703    2.4649 H        1 ZINC000008214697    0.0700
44     H44     0.9926   -2.1961    3.3695 H        1 ZINC000008214697    0.0700
45     H45     0.5010   -4.4547    2.4720 H        1 ZINC000008214697    0.0700
46     H46     2.0337   -4.4289    1.5675 H        1 ZINC000008214697    0.0700
47     H47     3.2861   -4.2070    3.6960 H        1 ZINC000008214697    0.1100
48     H48     1.7534   -4.2327    4.6006 H        1 ZINC000008214697    0.1100
49     H49     1.8326   -8.5596    4.6116 H        1 ZINC000008214697    0.1000
50     H50     3.3654   -8.5338    3.7071 H        1 ZINC000008214697    0.0900
51     H51     3.1460   -8.3966    6.7472 H        1 ZINC000008214697    0.1100
52     H52     2.4109  -10.5923    5.7724 H        1 ZINC000008214697    0.0900
53     H53     3.9866  -10.7176    4.9541 H        1 ZINC000008214697    0.0900
54     H54     5.6687  -12.5823    8.4786 H        1 ZINC000008214697    0.1100
55     H55     4.0930  -12.4570    9.2969 H        1 ZINC000008214697    0.1100
56     H56     3.3864  -14.5977    8.2639 H        1 ZINC000008214697    0.0700
57     H57     4.9621  -14.7229    7.4456 H        1 ZINC000008214697    0.0700
58     H58     6.1033  -14.7476    9.6469 H        1 ZINC000008214697    0.0600
59     H59     4.5276  -14.6223   10.4652 H        1 ZINC000008214697    0.0700
60     H60     3.8210  -16.7629    9.4323 H        1 ZINC000008214697    0.0600
61     H61     5.3967  -16.8882    8.6140 H        1 ZINC000008214697    0.0600
62     H62     6.5379  -16.9129   10.8153 H        1 ZINC000008214697    0.0600
63     H63     4.9622  -16.7876   11.6336 H        1 ZINC000008214697    0.0600
64     H64     4.2556  -18.9282   10.6006 H        1 ZINC000008214697    0.0600
65     H65     5.8313  -19.0535    9.7823 H        1 ZINC000008214697    0.0600
66     H66     6.9725  -19.0781   11.9836 H        1 ZINC000008214697    0.0500
67     H67     5.3968  -18.9529   12.8019 H        1 ZINC000008214697    0.0500
68     H68     5.7966  -20.4085   11.8587 H        1 ZINC000008214697    0.0500
69     H69     7.6721   -8.6553    6.4511 H        1 ZINC000008214697    0.1000
70     H70     7.2209   -6.9339    6.4884 H        1 ZINC000008214697    0.1100
71     H71     6.9865   -7.0488    8.9543 H        1 ZINC000008214697    0.0700
72     H72     7.4377   -8.7702    8.9170 H        1 ZINC000008214697    0.0700
73     H73     9.6308   -8.1739    7.9255 H        1 ZINC000008214697    0.0600
74     H74     9.1796   -6.4525    7.9628 H        1 ZINC000008214697    0.0600
75     H75     8.9452   -6.5673   10.4287 H        1 ZINC000008214697    0.0600
76     H76     9.3964   -8.2888   10.3914 H        1 ZINC000008214697    0.0600
77     H77    11.5896   -7.6924    9.3999 H        1 ZINC000008214697    0.0600
78     H78    11.1384   -5.9710    9.4373 H        1 ZINC000008214697    0.0600
79     H79    10.9040   -6.0859   11.9031 H        1 ZINC000008214697    0.0600
80     H80    11.3552   -7.8073   11.8658 H        1 ZINC000008214697    0.0600
81     H81    13.5483   -7.2109   10.8743 H        1 ZINC000008214697    0.0500
82     H82    13.0971   -5.4895   10.9117 H        1 ZINC000008214697    0.0500
83     H83    13.3072   -6.3877   12.4340 H        1 ZINC000008214697    0.0500
@<TRIPOS>BOND
1     1     2     1
2     1     34    1
3     1     35    1
4     1     36    1
5     2     3     1
6     2     37    1
7     2     38    1
8     3     4     1
9     3     39    1
10    3     40    1
11    4     5     1
12    4     41    1
13    4     42    1
14    5     6     1
15    5     43    1
16    5     44    1
17    6     7     1
18    6     45    1
19    6     46    1
20    7     8     1
21    7     47    1
22    7     48    1
23    8     9     2
24    8     10    1
25    10    11    1
26    11    12    1
27    11    49    1
28    11    50    1
29    12    13    1
30    12    24    1
31    12    51    1
32    13    14    1
33    13    52    1
34    13    53    1
35    14    15    1
36    15    16    2
37    15    17    1
38    17    18    1
39    17    54    1
40    17    55    1
41    18    19    1
42    18    56    1
43    18    57    1
44    19    20    1
45    19    58    1
46    19    59    1
47    20    21    1
48    20    60    1
49    20    61    1
50    21    22    1
51    21    62    1
52    21    63    1
53    22    23    1
54    22    64    1
55    22    65    1
56    23    66    1
57    23    67    1
58    23    68    1
59    24    25    1
60    25    26    2
61    25    27    1
62    27    28    1
63    27    69    1
64    27    70    1
65    28    29    1
66    28    71    1
67    28    72    1
68    29    30    1
69    29    73    1
70    29    74    1
71    30    31    1
72    30    75    1
73    30    76    1
74    31    32    1
75    31    77    1
76    31    78    1
77    32    33    1
78    32    79    1
79    32    80    1
80    33    81    1
81    33    82    1
82    33    83    1
@<TRIPOS>SUBSTRUCTURE
1   ZINC000008214697 1     RESIDUE    1   A     ZIN   1
