@<TRIPOS>MOLECULE
ZINC000019372271
44    46    1     0     0
SMALL
USER_CHARGES
@<TRIPOS>ATOM
1      C1     -2.7685   -0.8754   -1.4517 C.3      1 ZINC000019372271   -0.1900
2      C2     -1.3513   -0.9357   -0.8782 C.3      1 ZINC000019372271   -0.0200
3      N3     -0.4919   -1.7171   -1.7775 N.4      1 ZINC000019372271   -0.5200
4      H4     -0.8594   -2.6527   -1.8651 H        1 ZINC000019372271    0.4300
5      H5     -0.4688   -1.2785   -2.6859 H        1 ZINC000019372271    0.4200
6      C6      0.8688   -1.7749   -1.2269 C.3      1 ZINC000019372271   -0.0100
7      H7      0.8301   -2.1394   -0.2003 H        1 ZINC000019372271    0.1500
8      C8      1.4875   -0.3758   -1.2483 C.3      1 ZINC000019372271   -0.2000
9      C9      1.7214   -2.7227   -2.0728 C.3      1 ZINC000019372271    0.0300
10     N10     1.5779   -2.3749   -3.4928 N.3      1 ZINC000019372271   -0.5300
11     C11     1.6114   -0.9158   -3.6845 C.3      1 ZINC000019372271    0.0300
12     C12     1.8047   -0.6300   -5.1746 C.3      1 ZINC000019372271   -0.1000
13     C13     0.8164   -1.4248   -5.9833 C.2      1 ZINC000019372271    0.0600
14     C14     0.1480   -2.4810   -5.4713 C.2      1 ZINC000019372271   -0.2500
15     C15     0.3395   -2.9307   -4.0474 C.3      1 ZINC000019372271    0.1100
16     C16    -0.7633   -3.1913   -6.2920 C.2      1 ZINC000019372271    0.5200
17     O17    -1.3572   -4.1466   -5.8256 O.2      1 ZINC000019372271   -0.4600
18     O18    -0.9912   -2.8427   -7.5657 O.3      1 ZINC000019372271   -0.2600
19     C19    -0.3588   -1.7935   -8.1331 C.ar     1 ZINC000019372271    0.1500
20     C20    -0.6058   -1.4420   -9.4533 C.ar     1 ZINC000019372271   -0.1300
21     C21     0.0524   -0.3671  -10.0137 C.ar     1 ZINC000019372271   -0.0500
22     C22     0.9627    0.3711   -9.2713 C.ar     1 ZINC000019372271   -0.1300
23     C23     1.2224    0.0403   -7.9602 C.ar     1 ZINC000019372271   -0.0600
24     C24     0.5622   -1.0466   -7.3792 C.ar     1 ZINC000019372271   -0.1700
25     H25    -2.7435   -0.4016   -2.4330 H        1 ZINC000019372271    0.0800
26     H26    -3.1654   -1.8862   -1.5463 H        1 ZINC000019372271    0.0800
27     H27    -3.4061   -0.2956   -0.7844 H        1 ZINC000019372271    0.1100
28     H28    -0.9543    0.0751   -0.7836 H        1 ZINC000019372271    0.1300
29     H29    -1.3763   -1.4095    0.1031 H        1 ZINC000019372271    0.1300
30     H30     1.2382    0.1460   -0.3244 H        1 ZINC000019372271    0.0900
31     H31     2.5707   -0.4589   -1.3377 H        1 ZINC000019372271    0.1100
32     H32     1.0945    0.1823   -2.0981 H        1 ZINC000019372271    0.0900
33     H33     2.7672   -2.6298   -1.7799 H        1 ZINC000019372271    0.1300
34     H34     1.3896   -3.7489   -1.9147 H        1 ZINC000019372271    0.1100
35     H35     0.6718   -0.4793   -3.3458 H        1 ZINC000019372271    0.0300
36     H36     2.4399   -0.4900   -3.1184 H        1 ZINC000019372271    0.1200
37     H37     1.6534    0.4331   -5.3617 H        1 ZINC000019372271    0.1100
38     H38     2.8175   -0.9067   -5.4676 H        1 ZINC000019372271    0.1200
39     H39     0.3890   -4.0192   -4.0179 H        1 ZINC000019372271    0.1200
40     H40    -0.5057   -2.5936   -3.4473 H        1 ZINC000019372271    0.0200
41     H41    -1.3122   -2.0097  -10.0409 H        1 ZINC000019372271    0.1500
42     H42    -0.1426   -0.0975  -11.0412 H        1 ZINC000019372271    0.1500
43     H43     1.4707    1.2096   -9.7244 H        1 ZINC000019372271    0.1400
44     H44     1.9317    0.6164   -7.3845 H        1 ZINC000019372271    0.1400
@<TRIPOS>BOND
1     1     2     1
2     1     25    1
3     1     26    1
4     1     27    1
5     2     3     1
6     2     28    1
7     2     29    1
8     3     4     1
9     3     5     1
10    3     6     1
11    6     7     1
12    6     8     1
13    6     9     1
14    8     30    1
15    8     31    1
16    8     32    1
17    9     10    1
18    9     33    1
19    9     34    1
20    10    15    1
21    10    11    1
22    11    12    1
23    11    35    1
24    11    36    1
25    12    13    1
26    12    37    1
27    12    38    1
28    13    24    1
29    13    14    2
30    14    15    1
31    14    16    1
32    15    39    1
33    15    40    1
34    16    17    2
35    16    18    1
36    18    19    1
37    19    24    ar
38    19    20    ar
39    20    21    ar
40    20    41    1
41    21    22    ar
42    21    42    1
43    22    23    ar
44    22    43    1
45    23    24    ar
46    23    44    1
@<TRIPOS>SUBSTRUCTURE
1   ZINC000019372271 1     RESIDUE    1   A     ZIN   1
