@<TRIPOS>MOLECULE
ZINC000006094311
  28   30    0    0    0
SMALL
USER_CHARGES
NO_NAME
@<TRIPOS>ATOM
    1 F1        0.0091    -0.0033    -0.0599 F      1 <0>      -0.1200
    2 C2       -0.0116     1.3474    -0.0376 C.ar   1 <0>       0.1300
    3 C3        0.0629     2.0202     1.1699 C.ar   1 <0>      -0.1300
    4 C4        0.0418     3.4017     1.1949 C.ar   1 <0>      -0.0700
    5 C5       -0.0541     4.1148     0.0094 C.ar   1 <0>       0.0700
    6 O6       -0.0745     5.4739     0.0326 O.3    1 <0>      -0.2300
    7 C7       -1.2771     6.0938    -0.0507 C.ar   1 <0>       0.1900
    8 C8       -1.3660     7.5004    -0.1593 C.ar   1 <0>      -0.1000
    9 C9       -0.2172     8.3045    -0.1849 C.ar   1 <0>      -0.0700
   10 C10      -0.3433     9.6567    -0.2910 C.ar   1 <0>      -0.1200
   11 C11      -1.5995    10.2524    -0.3744 C.ar   1 <0>      -0.0800
   12 C12      -2.7357     9.5013    -0.3524 C.ar   1 <0>      -0.0200
   13 Cl13     -4.2895    10.2682    -0.4573 Cl     1 <0>      -0.0400
   14 C14      -2.6448     8.1015    -0.2440 C.ar   1 <0>       0.1600
   15 N15      -3.7437     7.3397    -0.2206 N.ar   1 <0>      -0.4800
   16 C16      -3.6733     6.0331    -0.1201 C.ar   1 <0>       0.1700
   17 C17      -2.4558     5.3691    -0.0379 C.ar   1 <0>      -0.2600
   18 C18      -0.1288     3.4390    -1.2014 C.ar   1 <0>      -0.0200
   19 Cl19     -0.2490     4.3291    -2.6870 Cl     1 <0>      -0.0300
   20 C20      -0.1017     2.0574    -1.2232 C.ar   1 <0>      -0.1400
   21 H21       0.1373     1.4649     2.0933 H      1 <0>       0.1600
   22 H22       0.0997     3.9258     2.1374 H      1 <0>       0.1600
   23 H23       0.7622     7.8540    -0.1206 H      1 <0>       0.1400
   24 H24       0.5422    10.2748    -0.3102 H      1 <0>       0.1400
   25 H25      -1.6740    11.3266    -0.4574 H      1 <0>       0.1400
   26 H26      -4.5871     5.4577    -0.1051 H      1 <0>       0.1700
   27 H27      -2.4296     4.2925     0.0440 H      1 <0>       0.1400
   28 H28      -0.1595     1.5311    -2.1645 H      1 <0>       0.1600
@<TRIPOS>BOND
   1    1    2 1
   2    2   20 ar
   3    2    3 ar
   4    3    4 ar
   5    3   21 1
   6    4    5 ar
   7    4   22 1
   8    5    6 1
   9    5   18 ar
  10    6    7 1
  11    7   17 ar
  12    7    8 ar
  13    8   14 ar
  14    8    9 ar
  15    9   10 ar
  16    9   23 1
  17   10   11 ar
  18   10   24 1
  19   11   12 ar
  20   11   25 1
  21   12   13 1
  22   12   14 ar
  23   14   15 ar
  24   15   16 ar
  25   16   17 ar
  26   16   26 1
  27   17   27 1
  28   18   19 1
  29   18   20 ar
  30   20   28 1
