@<TRIPOS>MOLECULE
ZINC000040393428
43    46    1     0     0
SMALL
USER_CHARGES
@<TRIPOS>ATOM
1      O1      0.0022   -0.0039   -0.0079 O.2      1 ZINC000040393428   -0.5000
2      C2     -0.0144    1.2118    0.0071 C.2      1 ZINC000040393428    0.7000
3      N3      1.1435    1.9016    0.0073 N.am     1 ZINC000040393428   -0.6400
4      C4      2.3566    1.2232   -0.0096 C.2      1 ZINC000040393428    0.2800
5      N5      2.4859   -0.0664   -0.0319 N.2      1 ZINC000040393428   -0.4700
6      C6      3.7169   -0.5433   -0.0455 C.2      1 ZINC000040393428    0.0800
7      C7      4.6725    0.3876   -0.0341 C.2      1 ZINC000040393428   -0.2400
8      C8      6.1576    0.1315   -0.0458 C.3      1 ZINC000040393428   -0.0500
9      C9      6.6530    0.0698   -1.4921 C.3      1 ZINC000040393428    0.1300
10     N10     8.0967   -0.1791   -1.5035 N.pl3    1 ZINC000040393428   -0.7100
11     C11     8.7734   -0.2760   -2.7085 C.ar     1 ZINC000040393428    0.4900
12     C12    10.1560   -0.5201   -2.7333 C.ar     1 ZINC000040393428   -0.3200
13     S13    11.3248   -0.7506   -1.4412 S.3      1 ZINC000040393428    0.1300
14     C14    12.6296   -0.9593   -2.5972 C.2      1 ZINC000040393428   -0.1500
15     C15    12.1785   -0.8564   -3.8374 C.2      1 ZINC000040393428   -0.1300
16     C16    10.8026   -0.6110   -3.9682 C.ar     1 ZINC000040393428    0.2000
17     N17    10.0541   -0.4580   -5.0847 N.ar     1 ZINC000040393428   -0.5400
18     C18     8.7667   -0.2321   -5.0108 C.ar     1 ZINC000040393428    0.3500
19     N19     8.1247   -0.1451   -3.8594 N.ar     1 ZINC000040393428   -0.5700
20     S20     3.8953    1.9684   -0.0114 S.3      1 ZINC000040393428    0.1400
21     N21    -1.1906    1.8696    0.0179 N.am     1 ZINC000040393428   -0.6800
22     C22    -2.3911    1.1581   -0.0859 C.ar     1 ZINC000040393428    0.1700
23     C23    -3.4644    1.7020   -0.7791 C.ar     1 ZINC000040393428   -0.1400
24     C24    -4.6483    0.9976   -0.8806 C.ar     1 ZINC000040393428   -0.0900
25     C25    -4.7660   -0.2480   -0.2926 C.ar     1 ZINC000040393428   -0.1200
26     C26    -3.6985   -0.7933    0.3996 C.ar     1 ZINC000040393428   -0.0200
27     Cl27   -3.8506   -2.3577    1.1365 Cl       1 ZINC000040393428   -0.0600
28     C28    -2.5095   -0.0957    0.4991 C.ar     1 ZINC000040393428   -0.1100
29     H29     1.1303    2.8714    0.0193 H        1 ZINC000040393428    0.4200
30     H30     3.9327   -1.6013   -0.0643 H        1 ZINC000040393428    0.1800
31     H31     6.6695    0.9378    0.4795 H        1 ZINC000040393428    0.0800
32     H32     6.3669   -0.8160    0.4506 H        1 ZINC000040393428    0.1000
33     H33     6.1412   -0.7365   -2.0174 H        1 ZINC000040393428    0.0800
34     H34     6.4438    1.0174   -1.9886 H        1 ZINC000040393428    0.0700
35     H35     8.5788   -0.2760   -0.6674 H        1 ZINC000040393428    0.4100
36     H36    13.6600   -1.1458   -2.3325 H        1 ZINC000040393428    0.1800
37     H37    12.8282   -0.9547   -4.6946 H        1 ZINC000040393428    0.1600
38     H38     8.2069   -0.1160   -5.9271 H        1 ZINC000040393428    0.2000
39     H39    -1.2050    2.8362    0.0976 H        1 ZINC000040393428    0.4100
40     H40    -3.3737    2.6754   -1.2382 H        1 ZINC000040393428    0.1300
41     H41    -5.4831    1.4206   -1.4197 H        1 ZINC000040393428    0.1400
42     H42    -5.6929   -0.7966   -0.3731 H        1 ZINC000040393428    0.1400
43     H43    -1.6766   -0.5212    1.0392 H        1 ZINC000040393428    0.1500
@<TRIPOS>BOND
1     1     2     2
2     2     3     am
3     2     21    am
4     3     4     1
5     3     29    1
6     4     20    1
7     4     5     2
8     5     6     1
9     6     7     2
10    6     30    1
11    7     8     1
12    7     20    1
13    8     9     1
14    8     31    1
15    8     32    1
16    9     10    1
17    9     33    1
18    9     34    1
19    10    11    1
20    10    35    1
21    11    19    ar
22    11    12    ar
23    12    16    ar
24    12    13    1
25    13    14    1
26    14    15    2
27    14    36    1
28    15    16    1
29    15    37    1
30    16    17    ar
31    17    18    ar
32    18    19    ar
33    18    38    1
34    21    22    1
35    21    39    1
36    22    28    ar
37    22    23    ar
38    23    24    ar
39    23    40    1
40    24    25    ar
41    24    41    1
42    25    26    ar
43    25    42    1
44    26    27    1
45    26    28    ar
46    28    43    1
@<TRIPOS>SUBSTRUCTURE
1   ZINC000040393428 1     RESIDUE    1   A     ZIN   1
