@<TRIPOS>MOLECULE
ZINC000003950132
  46   49    0    0    0
SMALL
USER_CHARGES
NO_NAME
@<TRIPOS>ATOM
    1 C1       -0.7208     1.1031    -0.2122 C.3    1 <0>      -0.0900
    2 C2        0.0922    -0.1623    -0.1190 C.2    1 <0>       0.1900
    3 C3        0.8837    -0.6004    -1.1223 C.2    1 <0>      -0.2700
    4 C4        1.0777     0.0605    -2.4250 C.ar   1 <0>       0.3200
    5 C5        1.9261    -0.5011    -3.3895 C.ar   1 <0>      -0.2900
    6 C6        2.0755     0.1549    -4.5956 C.ar   1 <0>       0.2000
    7 N7        1.4186     1.2863    -4.8049 N.ar   1 <0>      -0.5600
    8 C8        0.6221     1.7966    -3.8762 C.ar   1 <0>       0.5700
    9 N9       -0.0459     2.9814    -4.1375 N.pl3  1 <0>      -0.6400
   10 C10       0.0306     3.5629    -5.4098 C.ar   1 <0>       0.1100
   11 C11       0.0286     2.7588    -6.5419 C.ar   1 <0>      -0.0600
   12 C12       0.1040     3.3318    -7.7958 C.ar   1 <0>      -0.1800
   13 C13       0.1819     4.7123    -7.9249 C.ar   1 <0>       0.2100
   14 N14       0.2579     5.2932    -9.1959 N.pl3  1 <0>      -0.6300
   15 C15       0.4673     6.7409    -9.3558 C.3    1 <0>       0.0900
   16 C16       1.6273     6.9565   -10.3344 C.3    1 <0>       0.0500
   17 O17       1.3776     6.2151   -11.5310 O.3    1 <0>      -0.3800
   18 C18       1.3077     4.8002   -11.3390 C.3    1 <0>       0.0500
   19 C19       0.1369     4.4734   -10.4118 C.3    1 <0>       0.0900
   20 C20       0.1840     5.5164    -6.7926 C.ar   1 <0>      -0.1800
   21 C21       0.1028     4.9436    -5.5389 C.ar   1 <0>      -0.0900
   22 N22       0.4443     1.2006    -2.7081 N.ar   1 <0>      -0.5600
   23 S23       1.6437    -2.1008    -0.5979 S.3    1 <0>       0.1400
   24 C24       0.8346    -1.9989     0.9045 C.2    1 <0>       0.3300
   25 N25       0.9536    -2.9181     1.9295 N.pl3  1 <0>      -0.8100
   26 N26       0.0955    -0.9302     0.9471 N.2    1 <0>      -0.5500
   27 H27      -0.1277     1.9434     0.1487 H      1 <0>       0.0800
   28 H28      -1.0038     1.2775    -1.2503 H      1 <0>       0.1100
   29 H29      -1.6189     1.0038     0.3975 H      1 <0>       0.0700
   30 H30       2.4506    -1.4246    -3.1938 H      1 <0>       0.1400
   31 H31       2.7217    -0.2501    -5.3603 H      1 <0>       0.1700
   32 H32      -0.5667     3.4086    -3.4395 H      1 <0>       0.4200
   33 H33      -0.0317     1.6851    -6.4415 H      1 <0>       0.1300
   34 H34       0.1027     2.7063    -8.6763 H      1 <0>       0.1200
   35 H35      -0.4378     7.2012    -9.7522 H      1 <0>       0.0700
   36 H36       0.7133     7.1850    -8.3912 H      1 <0>       0.0900
   37 H37       1.7097     8.0167   -10.5735 H      1 <0>       0.1000
   38 H38       2.5561     6.6118    -9.8797 H      1 <0>       0.0600
   39 H39       1.1601     4.3091   -12.3009 H      1 <0>       0.1100
   40 H40       2.2353     4.4477   -10.8879 H      1 <0>       0.0600
   41 H41       0.1618     3.4162   -10.1477 H      1 <0>       0.0900
   42 H42      -0.8034     4.7051   -10.9122 H      1 <0>       0.0700
   43 H43       0.2449     6.5900    -6.8929 H      1 <0>       0.1300
   44 H44       0.1045     5.5689    -4.6583 H      1 <0>       0.1200
   45 H45       1.5303    -3.6908     1.8234 H      1 <0>       0.4200
   46 H46       0.4605    -2.7906     2.7550 H      1 <0>       0.4200
@<TRIPOS>BOND
   1    1    2 1
   2    1   27 1
   3    1   28 1
   4    1   29 1
   5    2   26 1
   6    2    3 2
   7    3    4 1
   8    3   23 1
   9    4   22 ar
  10    4    5 ar
  11    5    6 ar
  12    5   30 1
  13    6    7 ar
  14    6   31 1
  15    7    8 ar
  16    8    9 1
  17    8   22 ar
  18    9   10 1
  19    9   32 1
  20   10   21 ar
  21   10   11 ar
  22   11   12 ar
  23   11   33 1
  24   12   13 ar
  25   12   34 1
  26   13   14 1
  27   13   20 ar
  28   14   19 1
  29   14   15 1
  30   15   16 1
  31   15   35 1
  32   15   36 1
  33   16   17 1
  34   16   37 1
  35   16   38 1
  36   17   18 1
  37   18   19 1
  38   18   39 1
  39   18   40 1
  40   19   41 1
  41   19   42 1
  42   20   21 ar
  43   20   43 1
  44   21   44 1
  45   23   24 1
  46   24   25 1
  47   24   26 2
  48   25   45 1
  49   25   46 1
