@<TRIPOS>MOLECULE
ZINC000027657184
73    78    1     0     0
SMALL
USER_CHARGES
@<TRIPOS>ATOM
1      C1     -2.3952    1.0742   -1.7958 C.3      1 ZINC000027657184   -0.1500
2      C2     -1.9322   -0.3390   -1.4361 C.3      1 ZINC000027657184    0.0700
3      O3     -0.7991   -0.6867   -2.2343 O.3      1 ZINC000027657184   -0.3400
4      C4     -0.2641   -1.9112   -2.0390 C.2      1 ZINC000027657184    0.5200
5      O5     -0.7485   -2.6625   -1.2121 O.2      1 ZINC000027657184   -0.5100
6      C6      0.8532   -2.3189   -2.7910 C.2      1 ZINC000027657184   -0.2300
7      C7      1.4588   -3.5020   -2.4989 C.2      1 ZINC000027657184    0.2700
8      C8      0.9445   -4.3353   -1.3959 C.ar     1 ZINC000027657184   -0.0500
9      C9      0.3999   -5.5946   -1.6641 C.ar     1 ZINC000027657184   -0.0800
10     C10    -0.0793   -6.3696   -0.6317 C.ar     1 ZINC000027657184   -0.1100
11     C11    -0.0219   -5.9010    0.6766 C.ar     1 ZINC000027657184    0.1300
12     N12    -0.5094   -6.6906    1.7218 N.pl3    1 ZINC000027657184   -0.4400
13     C13    -1.8059   -7.0719    1.9113 C.2      1 ZINC000027657184    0.3000
14     C14    -2.9556   -6.7010    1.0103 C.3      1 ZINC000027657184   -0.0800
15     N15    -1.9045   -7.8027    2.9834 N.2      1 ZINC000027657184   -0.4700
16     C16    -0.6822   -7.9415    3.5556 C.ar     1 ZINC000027657184    0.0000
17     C17    -0.2029   -8.5987    4.6883 C.ar     1 ZINC000027657184    0.1700
18     N18     1.0770   -8.5486    4.9930 N.ar     1 ZINC000027657184   -0.4800
19     C19     1.9548   -7.8876    4.2574 C.ar     1 ZINC000027657184    0.1000
20     C20     1.5688   -7.2093    3.1207 C.ar     1 ZINC000027657184   -0.1600
21     C21     0.2303   -7.2335    2.7486 C.ar     1 ZINC000027657184    0.0800
22     C22     0.5195   -4.6489    0.9475 C.ar     1 ZINC000027657184   -0.1100
23     C23     1.0056   -3.8702   -0.0790 C.ar     1 ZINC000027657184   -0.0300
24     N24     2.5487   -3.9271   -3.2264 N.pl3    1 ZINC000027657184   -0.6200
25     C25     2.8175   -3.3742   -4.4487 C.2      1 ZINC000027657184    0.2300
26     C26     3.7397   -4.0915   -5.4005 C.3      1 ZINC000027657184   -0.1100
27     C27     2.2722   -2.2028   -4.8135 C.2      1 ZINC000027657184   -0.2700
28     C28     2.5706   -1.6723   -6.0917 C.2      1 ZINC000027657184    0.5600
29     O29     3.3130   -2.2772   -6.8437 O.2      1 ZINC000027657184   -0.4800
30     N30     2.0330   -0.4977   -6.4761 N.am     1 ZINC000027657184   -0.6600
31     C31     2.2381   -0.0286   -7.7715 C.ar     1 ZINC000027657184    0.3600
32     C32     1.5822    1.1198   -8.2001 C.ar     1 ZINC000027657184   -0.2100
33     C33     1.7953    1.5752   -9.4894 C.ar     1 ZINC000027657184   -0.0500
34     C34     2.6606    0.8633  -10.3086 C.ar     1 ZINC000027657184   -0.2100
35     C35     3.2787   -0.2697   -9.8170 C.ar     1 ZINC000027657184    0.1300
36     N36     3.0601   -0.6774   -8.5816 N.ar     1 ZINC000027657184   -0.4800
37     C37     1.3512   -1.4428   -3.9053 C.3      1 ZINC000027657184    0.0600
38     H38     0.5041   -1.0720   -4.4825 H        1 ZINC000027657184    0.1000
39     C39     2.0945   -0.2748   -3.3100 C.ar     1 ZINC000027657184   -0.0700
40     C40     3.2256   -0.4922   -2.5465 C.ar     1 ZINC000027657184   -0.0900
41     C41     3.9077    0.5793   -2.0002 C.ar     1 ZINC000027657184   -0.1100
42     C42     3.4584    1.8683   -2.2170 C.ar     1 ZINC000027657184   -0.1100
43     C43     2.3269    2.0870   -2.9806 C.ar     1 ZINC000027657184   -0.1000
44     C44     1.6477    1.0157   -3.5325 C.ar     1 ZINC000027657184   -0.0300
45     Cl45    0.2268    1.2895   -4.4915 Cl       1 ZINC000027657184   -0.0600
46     H46    -1.5869    1.7805   -1.6066 H        1 ZINC000027657184    0.0700
47     H47    -2.6690    1.1094   -2.8503 H        1 ZINC000027657184    0.0700
48     H48    -3.2595    1.3394   -1.1870 H        1 ZINC000027657184    0.0800
49     H49    -1.6584   -0.3742   -0.3816 H        1 ZINC000027657184    0.0600
50     H50    -2.7405   -1.0454   -1.6253 H        1 ZINC000027657184    0.0700
51     H51     0.3547   -5.9590   -2.6798 H        1 ZINC000027657184    0.1400
52     H52    -0.5005   -7.3424   -0.8381 H        1 ZINC000027657184    0.1300
53     H53    -3.0661   -7.4568    0.2327 H        1 ZINC000027657184    0.0900
54     H54    -3.8731   -6.6455    1.5961 H        1 ZINC000027657184    0.1000
55     H55    -2.7590   -5.7326    0.5504 H        1 ZINC000027657184    0.0800
56     H56    -0.8845   -9.1508    5.3185 H        1 ZINC000027657184    0.1700
57     H57     2.9936   -7.8784    4.5528 H        1 ZINC000027657184    0.1600
58     H58     2.2946   -6.6725    2.5278 H        1 ZINC000027657184    0.1300
59     H59     0.5627   -4.2886    1.9647 H        1 ZINC000027657184    0.1300
60     H60     1.4259   -2.8981    0.1322 H        1 ZINC000027657184    0.1300
61     H61     3.1271   -4.6200   -2.8711 H        1 ZINC000027657184    0.4300
62     H62     4.0856   -5.0181   -4.9424 H        1 ZINC000027657184    0.0600
63     H63     3.2046   -4.3197   -6.3223 H        1 ZINC000027657184    0.1100
64     H64     4.5960   -3.4556   -5.6254 H        1 ZINC000027657184    0.1000
65     H65     1.5032    0.0210   -5.8506 H        1 ZINC000027657184    0.4100
66     H66     0.9150    1.6492   -7.5360 H        1 ZINC000027657184    0.1300
67     H67     1.2993    2.4642   -9.8502 H        1 ZINC000027657184    0.1400
68     H68     2.8484    1.1917  -11.3202 H        1 ZINC000027657184    0.1400
69     H69     3.9524   -0.8271  -10.4509 H        1 ZINC000027657184    0.1600
70     H70     3.5768   -1.4992   -2.3762 H        1 ZINC000027657184    0.1200
71     H71     4.7917    0.4090   -1.4036 H        1 ZINC000027657184    0.1300
72     H72     3.9911    2.7048   -1.7894 H        1 ZINC000027657184    0.1300
73     H73     1.9760    3.0942   -3.1499 H        1 ZINC000027657184    0.1400
@<TRIPOS>BOND
1     1     2     1
2     1     46    1
3     1     47    1
4     1     48    1
5     2     3     1
6     2     49    1
7     2     50    1
8     3     4     1
9     4     5     2
10    4     6     1
11    6     37    1
12    6     7     2
13    7     8     1
14    7     24    1
15    8     23    ar
16    8     9     ar
17    9     10    ar
18    9     51    1
19    10    11    ar
20    10    52    1
21    11    12    1
22    11    22    ar
23    12    21    1
24    12    13    1
25    13    14    1
26    13    15    2
27    14    53    1
28    14    54    1
29    14    55    1
30    15    16    1
31    16    21    ar
32    16    17    ar
33    17    18    ar
34    17    56    1
35    18    19    ar
36    19    20    ar
37    19    57    1
38    20    21    ar
39    20    58    1
40    22    23    ar
41    22    59    1
42    23    60    1
43    24    25    1
44    24    61    1
45    25    26    1
46    25    27    2
47    26    62    1
48    26    63    1
49    26    64    1
50    27    28    1
51    27    37    1
52    28    29    2
53    28    30    am
54    30    31    1
55    30    65    1
56    31    36    ar
57    31    32    ar
58    32    33    ar
59    32    66    1
60    33    34    ar
61    33    67    1
62    34    35    ar
63    34    68    1
64    35    36    ar
65    35    69    1
66    37    38    1
67    37    39    1
68    39    44    ar
69    39    40    ar
70    40    41    ar
71    40    70    1
72    41    42    ar
73    41    71    1
74    42    43    ar
75    42    72    1
76    43    44    ar
77    43    73    1
78    44    45    1
@<TRIPOS>SUBSTRUCTURE
1   ZINC000027657184 1     RESIDUE    1   A     ZIN   1
