@<TRIPOS>MOLECULE
ZINC000021297308
  28   29    0    0    0
SMALL
USER_CHARGES
NO_NAME
@<TRIPOS>ATOM
    1 N1       -0.0167     1.3797     0.0096 N.pl3  1 <0>      -0.8300
    2 C2        0.0021    -0.0041     0.0020 C.ar   1 <0>       0.5000
    3 C3       -1.1953    -0.7393     0.0036 C.ar   1 <0>      -0.1000
    4 N4       -2.5111    -0.4171     0.0123 N.2    1 <0>      -0.4800
    5 C5       -3.2237    -1.5060     0.0097 C.2    1 <0>       0.2800
    6 N6       -2.4068    -2.5973    -0.0008 N.pl3  1 <0>      -0.4500
    7 C7       -2.8327    -3.9990    -0.0071 C.3    1 <0>       0.1200
    8 C8       -2.8531    -4.5322     1.4268 C.3    1 <0>       0.0200
    9 O9       -3.2686    -5.8995     1.4207 O.3    1 <0>      -0.3800
   10 C10      -3.3218    -6.4966     2.7179 C.3    1 <0>      -0.5400
   11 P11      -4.7918    -5.8875     3.6074 P.3    1 <0>       2.1800
   12 O12      -4.7062    -4.3299     3.7526 O.co2  1 <0>      -1.1600
   13 O13      -6.0825    -6.2669     2.8045 O.co2  1 <0>      -1.1700
   14 O14      -4.8502    -6.5421     5.0295 O.co2  1 <0>      -1.1800
   15 C15      -1.1125    -2.1421    -0.0049 C.ar   1 <0>       0.2900
   16 N16       0.0849    -2.7183    -0.0145 N.ar   1 <0>      -0.5500
   17 C17       1.1806    -1.9886    -0.0159 C.ar   1 <0>       0.3500
   18 N18       1.1531    -0.6685    -0.0125 N.ar   1 <0>      -0.6000
   19 H19       0.8167     1.8761     0.0043 H      1 <0>       0.4000
   20 H20      -0.8632     1.8532     0.0162 H      1 <0>       0.4200
   21 H21      -4.3032    -1.5401     0.0154 H      1 <0>       0.2300
   22 H22      -3.8318    -4.0732    -0.4366 H      1 <0>       0.1100
   23 H23      -2.1361    -4.5877    -0.6038 H      1 <0>       0.0900
   24 H24      -1.8540    -4.4580     1.8563 H      1 <0>       0.0300
   25 H25      -3.5498    -3.9435     2.0236 H      1 <0>       0.1100
   26 H26      -3.3814    -7.5803     2.6168 H      1 <0>       0.0700
   27 H27      -2.4238    -6.2326     3.2765 H      1 <0>       0.0300
   28 H28       2.1380    -2.4885    -0.0238 H      1 <0>       0.2000
@<TRIPOS>BOND
   1    1    2 1
   2    1   19 1
   3    1   20 1
   4    2   18 ar
   5    2    3 ar
   6    3   15 ar
   7    3    4 1
   8    4    5 2
   9    5    6 1
  10    5   21 1
  11    6    7 1
  12    6   15 1
  13    7    8 1
  14    7   22 1
  15    7   23 1
  16    8    9 1
  17    8   24 1
  18    8   25 1
  19    9   10 1
  20   10   11 1
  21   10   26 1
  22   10   27 1
  23   11   12 ar
  24   11   13 ar
  25   11   14 ar
  26   15   16 ar
  27   16   17 ar
  28   17   18 ar
  29   17   28 1
