@<TRIPOS>MOLECULE
ZINC000043195878
44    47    1     0     0
SMALL
USER_CHARGES
@<TRIPOS>ATOM
1      O1     -0.8548    1.1758   -0.5413 O.co2    1 ZINC000043195878   -0.6700
2      C2     -1.0506    2.3726   -0.6669 C.2      1 ZINC000043195878    0.4900
3      O3     -0.1064    3.1406   -0.7389 O.co2    1 ZINC000043195878   -0.6700
4      C4     -2.4597    2.9020   -0.7393 C.3      1 ZINC000043195878    0.0400
5      N5     -3.4057    1.7881   -0.6369 N.pl3    1 ZINC000043195878   -0.0700
6      N6     -3.8687    1.1113   -1.6291 N.2      1 ZINC000043195878   -0.0500
7      N7     -4.6741    0.2085   -1.1819 N.2      1 ZINC000043195878   -0.2700
8      C8     -4.7105    0.3339    0.1536 C.2      1 ZINC000043195878    0.2000
9      C9     -5.5003   -0.4874    1.0977 C.2      1 ZINC000043195878    0.0900
10     C10    -6.3309   -1.5244    0.7835 C.2      1 ZINC000043195878   -0.1900
11     C11    -6.8274   -1.9543    2.0400 C.2      1 ZINC000043195878    0.2000
12     N12    -7.7207   -2.9958    2.2714 N.3      1 ZINC000043195878   -0.4400
13     C13    -8.9596   -2.8063    1.5062 C.3      1 ZINC000043195878    0.0600
14     C14    -9.8552   -4.0364    1.6702 C.3      1 ZINC000043195878   -0.1100
15     C15   -10.1752   -4.2346    3.1544 C.3      1 ZINC000043195878    0.0800
16     O16   -10.9643   -5.4145    3.3193 O.3      1 ZINC000043195878   -0.2800
17     C17   -11.7579   -5.4770    4.4210 C.ar     1 ZINC000043195878    0.1900
18     C18   -11.6927   -4.4788    5.3810 C.ar     1 ZINC000043195878   -0.2500
19     C19   -12.5018   -4.5449    6.5019 C.ar     1 ZINC000043195878    0.1600
20     F20   -12.4396   -3.5727    7.4379 F        1 ZINC000043195878   -0.1300
21     C21   -13.3755   -5.6068    6.6640 C.ar     1 ZINC000043195878   -0.1900
22     C22   -13.4409   -6.6029    5.7074 C.ar     1 ZINC000043195878   -0.0200
23     C23   -12.6391   -6.5375    4.5837 C.ar     1 ZINC000043195878   -0.1400
24     Br24  -12.7300   -7.9008    3.2763 Br       1 ZINC000043195878   -0.0300
25     C25    -8.8664   -4.3811    3.9355 C.3      1 ZINC000043195878   -0.1400
26     C26    -7.9994   -3.1410    3.7059 C.3      1 ZINC000043195878    0.0600
27     N27    -6.2783   -1.1780    2.9388 N.2      1 ZINC000043195878   -0.3900
28     O28    -5.5381   -0.3647    2.4369 O.3      1 ZINC000043195878    0.1200
29     N29    -3.9002    1.3292    0.4611 N.2      1 ZINC000043195878   -0.2700
30     H30    -2.6286    3.5989    0.0816 H        1 ZINC000043195878    0.1200
31     H31    -2.6060    3.4168   -1.6889 H        1 ZINC000043195878    0.1200
32     H32    -6.5572   -1.9238   -0.1941 H        1 ZINC000043195878    0.1900
33     H33    -9.4830   -1.9243    1.8752 H        1 ZINC000043195878    0.0500
34     H34    -8.7182   -2.6707    0.4520 H        1 ZINC000043195878    0.1000
35     H35   -10.7814   -3.8888    1.1147 H        1 ZINC000043195878    0.0900
36     H36    -9.3378   -4.9167    1.2887 H        1 ZINC000043195878    0.0900
37     H37   -10.7278   -3.3718    3.5262 H        1 ZINC000043195878    0.0800
38     H38   -11.0109   -3.6508    5.2545 H        1 ZINC000043195878    0.1500
39     H39   -14.0064   -5.6573    7.5391 H        1 ZINC000043195878    0.1500
40     H40   -14.1229   -7.4304    5.8361 H        1 ZINC000043195878    0.1500
41     H41    -9.0861   -4.4798    4.9985 H        1 ZINC000043195878    0.0800
42     H42    -8.3334   -5.2668    3.5897 H        1 ZINC000043195878    0.0900
43     H43    -7.0607   -3.2485    4.2492 H        1 ZINC000043195878    0.1000
44     H44    -8.5274   -2.2574    4.0645 H        1 ZINC000043195878    0.0500
@<TRIPOS>BOND
1     1     2     ar
2     2     3     ar
3     2     4     1
4     4     5     1
5     4     30    1
6     4     31    1
7     5     29    1
8     5     6     1
9     6     7     2
10    7     8     1
11    8     9     1
12    8     29    2
13    9     28    1
14    9     10    2
15    10    11    1
16    10    32    1
17    11    12    1
18    11    27    2
19    12    26    1
20    12    13    1
21    13    14    1
22    13    33    1
23    13    34    1
24    14    15    1
25    14    35    1
26    14    36    1
27    15    16    1
28    15    25    1
29    15    37    1
30    16    17    1
31    17    23    ar
32    17    18    ar
33    18    19    ar
34    18    38    1
35    19    20    1
36    19    21    ar
37    21    22    ar
38    21    39    1
39    22    23    ar
40    22    40    1
41    23    24    1
42    25    26    1
43    25    41    1
44    25    42    1
45    26    43    1
46    26    44    1
47    27    28    1
@<TRIPOS>SUBSTRUCTURE
1   ZINC000043195878 1     RESIDUE    1   A     ZIN   1
