@<TRIPOS>MOLECULE
ZINC000000596981
  50   53    0    0    0
SMALL
USER_CHARGES
NO_NAME
@<TRIPOS>ATOM
    1 C1        5.8702    -4.8768    -8.9697 C.3    1 <0>      -0.6500
    2 S2        5.3155    -5.4606    -7.3442 S.o2   1 <0>       2.5000
    3 O3        4.2032    -6.3344    -7.4812 O.2    1 <0>      -0.9300
    4 O4        6.4287    -5.8131    -6.5344 O.2    1 <0>      -0.9400
    5 C5        4.6487    -4.0271    -6.5662 C.ar   1 <0>      -0.6600
    6 C6        5.4653    -3.2095    -5.8076 C.ar   1 <0>      -0.0300
    7 C7        4.9422    -2.0849    -5.1972 C.ar   1 <0>      -0.1200
    8 C8        3.6027    -1.7777    -5.3459 C.ar   1 <0>      -0.0500
    9 C9        3.0323    -0.5519    -4.6801 C.3    1 <0>       0.1100
   10 N10       3.2764     0.6204    -5.5239 N.pl3  1 <0>      -0.4500
   11 C11       2.5060     0.9967    -6.5922 C.2    1 <0>       0.1200
   12 C12       3.0119     2.1188    -7.1483 C.2    1 <0>      -0.1800
   13 C13       2.4205     2.8163    -8.3470 C.3    1 <0>      -0.0400
   14 C14       1.4552     1.8521    -9.0464 C.3    1 <0>      -0.1200
   15 C15       0.4989     1.2529    -8.0112 C.3    1 <0>      -0.1200
   16 C16       1.2704     0.2917    -7.1008 C.3    1 <0>       0.0000
   17 H17       1.5616    -0.5935    -7.6662 H      1 <0>       0.0800
   18 C18       0.3865    -0.1198    -5.9217 C.3    1 <0>      -0.2000
   19 C19      -0.9500    -0.5895    -6.4357 C.2    1 <0>       0.5000
   20 O20      -1.1747    -0.5947    -7.6340 O.co2  1 <0>      -0.6800
   21 O21      -1.8066    -0.9644    -5.6532 O.co2  1 <0>      -0.7000
   22 C22       4.1842     2.4843    -6.3806 C.ar   1 <0>      -0.0500
   23 C23       5.0976     3.5384    -6.4886 C.ar   1 <0>      -0.1100
   24 C24       6.1217     3.5754    -5.5571 C.ar   1 <0>       0.0900
   25 F25       7.0290     4.5745    -5.6191 F      1 <0>      -0.1400
   26 C26       6.2426     2.6166    -4.5623 C.ar   1 <0>      -0.1800
   27 C27       5.3493     1.5642    -4.4384 C.ar   1 <0>       0.1100
   28 F28       5.4815     0.6379    -3.4639 F      1 <0>      -0.1300
   29 C29       4.3043     1.5071    -5.3603 C.ar   1 <0>       0.0600
   30 C30       2.7864    -2.5946    -6.1057 C.ar   1 <0>      -0.1200
   31 C31       3.3103    -3.7171    -6.7192 C.ar   1 <0>      -0.0200
   32 H32       5.0204    -4.4731    -9.5201 H      1 <0>       0.1300
   33 H33       6.6216    -4.0980    -8.8390 H      1 <0>       0.1300
   34 H34       6.3019    -5.7084    -9.5265 H      1 <0>       0.1300
   35 H35       6.5119    -3.4495    -5.6914 H      1 <0>       0.1400
   36 H36       5.5800    -1.4465    -4.6039 H      1 <0>       0.1300
   37 H37       1.9592    -0.6811    -4.5392 H      1 <0>       0.1300
   38 H38       3.5112    -0.4085    -3.7115 H      1 <0>       0.1100
   39 H39       1.8792     3.7052    -8.0230 H      1 <0>       0.0700
   40 H40       3.2168     3.1001    -9.0350 H      1 <0>       0.0600
   41 H41       0.8830     2.3931    -9.8000 H      1 <0>       0.0600
   42 H42       2.0218     1.0527    -9.5238 H      1 <0>       0.0600
   43 H43       0.0657     2.0528    -7.4107 H      1 <0>       0.0500
   44 H44      -0.2964     0.7103    -8.5223 H      1 <0>       0.1300
   45 H45       0.8683    -0.9277    -5.3710 H      1 <0>       0.0700
   46 H46       0.2416     0.7346    -5.2606 H      1 <0>       0.0600
   47 H47       5.0085     4.2874    -7.2616 H      1 <0>       0.1500
   48 H48       7.0603     2.6925    -3.8609 H      1 <0>       0.1400
   49 H49       1.7399    -2.3543    -6.2221 H      1 <0>       0.1500
   50 H50       2.6726    -4.3553    -7.3128 H      1 <0>       0.1500
@<TRIPOS>BOND
   1    1    2 1
   2    1   32 1
   3    1   33 1
   4    1   34 1
   5    2    3 2
   6    2    4 2
   7    2    5 1
   8    5   31 ar
   9    5    6 ar
  10    6    7 ar
  11    6   35 1
  12    7    8 ar
  13    7   36 1
  14    8    9 1
  15    8   30 ar
  16    9   10 1
  17    9   37 1
  18    9   38 1
  19   10   29 1
  20   10   11 1
  21   11   16 1
  22   11   12 2
  23   12   13 1
  24   12   22 1
  25   13   14 1
  26   13   39 1
  27   13   40 1
  28   14   15 1
  29   14   41 1
  30   14   42 1
  31   15   16 1
  32   15   43 1
  33   15   44 1
  34   16   17 1
  35   16   18 1
  36   18   19 1
  37   18   45 1
  38   18   46 1
  39   19   20 ar
  40   19   21 ar
  41   22   29 ar
  42   22   23 ar
  43   23   24 ar
  44   23   47 1
  45   24   25 1
  46   24   26 ar
  47   26   27 ar
  48   26   48 1
  49   27   28 1
  50   27   29 ar
  51   30   31 ar
  52   30   49 1
  53   31   50 1
