@<TRIPOS>MOLECULE
ZINC000002015900
  41   43    0    0    0
SMALL
USER_CHARGES
NO_NAME
@<TRIPOS>ATOM
    1 C1        2.6303     0.8838     0.1424 C.3    1 <0>      -0.1200
    2 C2        1.9467    -0.4585     0.0990 C.ar   1 <0>      -0.1100
    3 C3        1.4087    -0.9963     1.2539 C.ar   1 <0>      -0.0800
    4 C4        0.7819    -2.2263     1.2178 C.ar   1 <0>      -0.1900
    5 C5        0.6918    -2.9234     0.0193 C.ar   1 <0>       0.1800
    6 N6        0.0581    -4.1676    -0.0209 N.pl3  1 <0>      -0.5800
    7 C7       -0.4998    -4.7455     1.2043 C.3    1 <0>       0.1400
    8 C8       -1.9319    -4.3032     1.3614 C.cat  1 <0>       0.4900
    9 N9       -2.2643    -3.2068     2.0016 N.pl3  1 <0>      -0.6200
   10 H10      -1.6431    -2.5925     2.4230 H      1 <0>       0.4600
   11 C11      -3.7282    -3.0558     1.9787 C.3    1 <0>       0.0600
   12 C12      -4.1976    -4.2952     1.1888 C.3    1 <0>       0.0600
   13 N13      -2.9378    -4.9831     0.8634 N.pl3  1 <0>      -0.6300
   14 C14      -0.0438    -4.8622    -1.2317 C.ar   1 <0>       0.1100
   15 C15       0.9231    -5.7961    -1.5805 C.ar   1 <0>      -0.0900
   16 C16       0.8214    -6.4813    -2.7751 C.ar   1 <0>      -0.1300
   17 C17      -0.2460    -6.2370    -3.6266 C.ar   1 <0>       0.1300
   18 O18      -0.3452    -6.9123    -4.8029 O.3    1 <0>      -0.4900
   19 C19      -1.2124    -5.3048    -3.2789 C.ar   1 <0>      -0.1400
   20 C20      -1.1150    -4.6221    -2.0824 C.ar   1 <0>      -0.1000
   21 C21       1.2330    -2.3798    -1.1391 C.ar   1 <0>      -0.1600
   22 C22       1.8538    -1.1470    -1.0968 C.ar   1 <0>      -0.0700
   23 H23       1.8990     1.6703    -0.0440 H      1 <0>       0.0700
   24 H24       3.0799     1.0310     1.1244 H      1 <0>       0.0700
   25 H25       3.4066     0.9211    -0.6218 H      1 <0>       0.0700
   26 H26       1.4792    -0.4540     2.1851 H      1 <0>       0.1300
   27 H27       0.3627    -2.6461     2.1202 H      1 <0>       0.1100
   28 H28      -0.4600    -5.8331     1.1439 H      1 <0>       0.1400
   29 H29       0.0810    -4.4077     2.0625 H      1 <0>       0.1400
   30 H30      -4.1323    -3.0688     2.9909 H      1 <0>       0.1300
   31 H31      -4.0125    -2.1394     1.4614 H      1 <0>       0.1300
   32 H32      -4.8359    -4.9264     1.8070 H      1 <0>       0.1300
   33 H33      -4.7161    -3.9970     0.2775 H      1 <0>       0.1300
   34 H34      -2.8632    -5.8112     0.3639 H      1 <0>       0.4600
   35 H35       1.7544    -5.9862    -0.9178 H      1 <0>       0.1400
   36 H36       1.5735    -7.2073    -3.0467 H      1 <0>       0.1400
   37 H37      -0.8401    -7.7407    -4.7403 H      1 <0>       0.4000
   38 H38      -2.0434    -5.1155    -3.9423 H      1 <0>       0.1400
   39 H39      -1.8678    -3.8966    -1.8116 H      1 <0>       0.1200
   40 H40       1.1650    -2.9192    -2.0723 H      1 <0>       0.1300
   41 H41       2.2747    -0.7239    -1.9969 H      1 <0>       0.1300
@<TRIPOS>BOND
   1    1    2 1
   2    1   23 1
   3    1   24 1
   4    1   25 1
   5    2   22 ar
   6    2    3 ar
   7    3    4 ar
   8    3   26 1
   9    4    5 ar
  10    4   27 1
  11    5    6 1
  12    5   21 ar
  13    6    7 1
  14    6   14 1
  15    7    8 1
  16    7   28 1
  17    7   29 1
  18    8   13 ar
  19    8    9 ar
  20    9   10 1
  21    9   11 1
  22   11   12 1
  23   11   30 1
  24   11   31 1
  25   12   13 1
  26   12   32 1
  27   12   33 1
  28   13   34 1
  29   14   20 ar
  30   14   15 ar
  31   15   16 ar
  32   15   35 1
  33   16   17 ar
  34   16   36 1
  35   17   18 1
  36   17   19 ar
  37   18   37 1
  38   19   20 ar
  39   19   38 1
  40   20   39 1
  41   21   22 ar
  42   21   40 1
  43   22   41 1
