@<TRIPOS>MOLECULE
ZINC000000001436
  29   30    0    0    0
SMALL
USER_CHARGES
NO_NAME
@<TRIPOS>ATOM
    1 C1       -0.0206     1.4542     0.2340 C.3    1 <0>       0.1100
    2 N2        0.0029    -0.0062     0.3470 N.pl3  1 <0>      -0.5800
    3 C3       -1.1579    -0.8928     0.5308 C.3    1 <0>       0.0600
    4 C4       -0.5581    -2.2825     0.5816 C.2    1 <0>       0.5200
    5 O5       -1.1552    -3.3282     0.7222 O.2    1 <0>      -0.4600
    6 N6        0.7718    -2.1237     0.4386 N.am   1 <0>      -0.6700
    7 C7        1.1019    -0.8081     0.2964 C.2    1 <0>       0.7000
    8 N8        2.3368    -0.3657     0.1382 N.2    1 <0>      -0.6600
    9 C9        3.3713    -1.2137     0.2396 C.2    1 <0>       0.6900
   10 O10       3.1693    -2.4052     0.3911 O.2    1 <0>      -0.6100
   11 N11       4.6340    -0.7473     0.1739 N.am   1 <0>      -0.6500
   12 C12       5.7103    -1.6407     0.1689 C.ar   1 <0>       0.1700
   13 C13       6.9113    -1.2866     0.7696 C.ar   1 <0>      -0.1400
   14 C14       7.9725    -2.1709     0.7637 C.ar   1 <0>      -0.0900
   15 C15       7.8407    -3.4076     0.1602 C.ar   1 <0>      -0.1300
   16 C16       6.6452    -3.7642    -0.4396 C.ar   1 <0>      -0.0200
   17 Cl17      6.4840    -5.3183    -1.1962 Cl     1 <0>      -0.0600
   18 C18       5.5781    -2.8859    -0.4318 C.ar   1 <0>      -0.1100
   19 H19       0.9957     1.8247     0.0998 H      1 <0>       0.1000
   20 H20      -0.6286     1.7426    -0.6235 H      1 <0>       0.0700
   21 H21      -0.4464     1.8820     1.1416 H      1 <0>       0.0800
   22 H22      -1.6690    -0.6634     1.4658 H      1 <0>       0.1300
   23 H23      -1.8435    -0.8037    -0.3119 H      1 <0>       0.1300
   24 H24       1.4123    -2.8521     0.4333 H      1 <0>       0.4500
   25 H25       4.7965     0.2080     0.1301 H      1 <0>       0.4200
   26 H26       7.0156    -0.3204     1.2407 H      1 <0>       0.1300
   27 H27       8.9065    -1.8955     1.2308 H      1 <0>       0.1400
   28 H28       8.6722    -4.0968     0.1564 H      1 <0>       0.1400
   29 H29       4.6454    -3.1641    -0.8998 H      1 <0>       0.1500
@<TRIPOS>BOND
   1    1    2 1
   2    1   19 1
   3    1   20 1
   4    1   21 1
   5    2    7 1
   6    2    3 1
   7    3    4 1
   8    3   22 1
   9    3   23 1
  10    4    5 2
  11    4    6 am
  12    6    7 1
  13    6   24 1
  14    7    8 2
  15    8    9 1
  16    9   10 2
  17    9   11 am
  18   11   12 1
  19   11   25 1
  20   12   18 ar
  21   12   13 ar
  22   13   14 ar
  23   13   26 1
  24   14   15 ar
  25   14   27 1
  26   15   16 ar
  27   15   28 1
  28   16   17 1
  29   16   18 ar
  30   18   29 1
