@<TRIPOS>MOLECULE
ZINC000003982517
54    57    1     0     0
SMALL
USER_CHARGES
@<TRIPOS>ATOM
1      O1      0.0183    0.0082    0.0115 O.2      1 ZINC000003982517   -0.5200
2      C2     -0.0079    1.2208    0.0079 C.2      1 ZINC000003982517    0.5000
3      C3      1.2804    2.0023   -0.0135 C.3      1 ZINC000003982517    0.0900
4      H4      1.2976    2.6974    0.8259 H        1 ZINC000003982517    0.1300
5      O5      2.3853    1.1021    0.0908 O.3      1 ZINC000003982517   -0.5300
6      C6      1.3812    2.7837   -1.3250 C.3      1 ZINC000003982517    0.0400
7      O7      2.5438    3.6140   -1.2967 O.3      1 ZINC000003982517   -0.5600
8      N8     -1.1894    1.8692    0.0174 N.am     1 ZINC000003982517   -0.6100
9      C9     -1.2555    3.3376    0.0072 C.3      1 ZINC000003982517    0.1400
10     C10    -2.2994    3.7913    0.9895 C.2      1 ZINC000003982517   -0.1500
11     C11    -3.1542    2.9778    1.5628 C.2      1 ZINC000003982517   -0.0700
12     C12    -4.1401    3.5599    2.4957 C.ar     1 ZINC000003982517   -0.1500
13     C13    -3.8347    3.6776    3.8549 C.ar     1 ZINC000003982517    0.1800
14     F14    -2.6365    3.2588    4.3178 F        1 ZINC000003982517   -0.1200
15     C15    -4.7592    4.2228    4.7233 C.ar     1 ZINC000003982517   -0.2000
16     C16    -5.9919    4.6538    4.2482 C.ar     1 ZINC000003982517    0.2500
17     N17    -6.9252    5.2049    5.1314 N.am     1 ZINC000003982517   -0.5700
18     C18    -8.2148    5.8013    4.7507 C.3      1 ZINC000003982517    0.0700
19     C19    -8.8266    6.2414    6.0947 C.3      1 ZINC000003982517    0.0700
20     H20    -9.7668    5.7203    6.2755 H        1 ZINC000003982517    0.1400
21     C21    -9.0420    7.7561    6.1155 C.3      1 ZINC000003982517    0.0600
22     O22    -9.7152    8.1249    7.3209 O.3      1 ZINC000003982517   -0.2700
23     C23    -9.9846    9.4432    7.4975 C.2      1 ZINC000003982517    0.2100
24     N24    -9.6986   10.4185    6.6770 N.2      1 ZINC000003982517   -0.4100
25     O25   -10.0662   11.4853    7.1115 O.3      1 ZINC000003982517    0.1000
26     C26   -10.6594   11.3563    8.3070 C.2      1 ZINC000003982517   -0.0300
27     C27   -10.6391   10.0376    8.6078 C.2      1 ZINC000003982517   -0.2300
28     O28    -7.8283    5.8510    7.0814 O.3      1 ZINC000003982517   -0.3000
29     C29    -6.7934    5.2707    6.4633 C.2      1 ZINC000003982517    0.6500
30     O30    -5.8189    4.8498    7.0548 O.2      1 ZINC000003982517   -0.4900
31     C31    -6.2997    4.5392    2.8979 C.ar     1 ZINC000003982517   -0.2000
32     C32    -5.3793    4.0002    2.0214 C.ar     1 ZINC000003982517    0.1800
33     F33    -5.6795    3.8892    0.7088 F        1 ZINC000003982517   -0.1200
34     C34    -3.1974    1.4962    1.3336 C.3      1 ZINC000003982517   -0.1000
35     C35    -2.4663    1.1348    0.0323 C.3      1 ZINC000003982517    0.1100
36     H36     2.4331    0.4535   -0.6249 H        1 ZINC000003982517    0.3800
37     H37     1.4534    2.0858   -2.1592 H        1 ZINC000003982517    0.0600
38     H38     0.4939    3.4050   -1.4469 H        1 ZINC000003982517    0.0600
39     H39     2.6714    4.1396   -2.0982 H        1 ZINC000003982517    0.3900
40     H40    -0.2862    3.7479    0.2902 H        1 ZINC000003982517    0.1000
41     H41    -1.5208    3.6834   -0.9919 H        1 ZINC000003982517    0.0900
42     H42    -2.3478    4.8416    1.2363 H        1 ZINC000003982517    0.1300
43     H43    -4.5241    4.3141    5.7734 H        1 ZINC000003982517    0.1800
44     H44    -8.0613    6.6620    4.0998 H        1 ZINC000003982517    0.1100
45     H45    -8.8504    5.0611    4.2648 H        1 ZINC000003982517    0.1200
46     H46    -8.0771    8.2609    6.0692 H        1 ZINC000003982517    0.0800
47     H47    -9.6469    8.0489    5.2574 H        1 ZINC000003982517    0.1000
48     H48   -11.0758   12.1496    8.9101 H        1 ZINC000003982517    0.2300
49     H49   -11.0256    9.5507    9.4909 H        1 ZINC000003982517    0.1800
50     H50    -7.2589    4.8756    2.5331 H        1 ZINC000003982517    0.1500
51     H51    -2.7196    0.9877    2.1711 H        1 ZINC000003982517    0.0900
52     H52    -4.2359    1.1723    1.2639 H        1 ZINC000003982517    0.0900
53     H53    -3.0742    1.4247   -0.8248 H        1 ZINC000003982517    0.0800
54     H54    -2.2743    0.0623    0.0030 H        1 ZINC000003982517    0.1000
@<TRIPOS>BOND
1     1     2     2
2     2     3     1
3     2     8     am
4     3     4     1
5     3     5     1
6     3     6     1
7     5     36    1
8     6     7     1
9     6     37    1
10    6     38    1
11    7     39    1
12    8     35    1
13    8     9     1
14    9     10    1
15    9     40    1
16    9     41    1
17    10    11    2
18    10    42    1
19    11    12    1
20    11    34    1
21    12    32    ar
22    12    13    ar
23    13    14    1
24    13    15    ar
25    15    16    ar
26    15    43    1
27    16    17    1
28    16    31    ar
29    17    29    am
30    17    18    1
31    18    19    1
32    18    44    1
33    18    45    1
34    19    20    1
35    19    21    1
36    19    28    1
37    21    22    1
38    21    46    1
39    21    47    1
40    22    23    1
41    23    27    1
42    23    24    2
43    24    25    1
44    25    26    1
45    26    27    2
46    26    48    1
47    27    49    1
48    28    29    1
49    29    30    2
50    31    32    ar
51    31    50    1
52    32    33    1
53    34    35    1
54    34    51    1
55    34    52    1
56    35    53    1
57    35    54    1
@<TRIPOS>SUBSTRUCTURE
1   ZINC000003982517 1     RESIDUE    1   A     ZIN   1
