@<TRIPOS>MOLECULE
ZINC000003590980
  33   34    0    0    0
SMALL
USER_CHARGES
NO_NAME
@<TRIPOS>ATOM
    1 O1        0.0021    -0.0041     0.0020 O.2    1 <0>      -0.5800
    2 C2       -0.0144     1.2117     0.0087 C.2    1 <0>       0.7200
    3 N3       -1.1995     1.8396     0.0289 N.am   1 <0>      -0.7500
    4 C4       -1.2871     3.3008     0.0260 C.3    1 <0>       0.3200
    5 H5       -1.3432     3.6603    -1.0015 H      1 <0>       0.0700
    6 O6       -2.4552     3.7107     0.7398 O.3    1 <0>      -0.5600
    7 C7       -0.0411     3.8805     0.7040 C.3    1 <0>      -0.1400
    8 C8        1.2008     3.3348    -0.0088 C.3    1 <0>       0.1200
    9 N9        1.1533     1.8717     0.0011 N.am   1 <0>      -0.6100
   10 C10       2.4065     1.1130    -0.0064 C.3    1 <0>       0.3300
   11 H11       3.2587     1.7829    -0.1206 H      1 <0>       0.1100
   12 O12       2.3946     0.1220    -1.0564 O.3    1 <0>      -0.3400
   13 C13       3.3644    -0.8777    -0.7009 C.3    1 <0>       0.0600
   14 H14       4.3262    -0.6388    -1.1546 H      1 <0>       0.0900
   15 C15       2.8922    -2.2530    -1.1768 C.3    1 <0>       0.0800
   16 O16       2.8750    -2.2827    -2.6054 O.3    1 <0>      -0.5600
   17 C17       3.4921    -0.8664     0.8347 C.3    1 <0>       0.0400
   18 H18       3.1714    -1.8213     1.2512 H      1 <0>       0.0800
   19 O19       4.8372    -0.5795     1.2226 O.3    1 <0>      -0.5400
   20 C20       2.5431     0.2719     1.2882 C.3    1 <0>       0.0800
   21 H21       1.5758    -0.1268     1.5939 H      1 <0>       0.1000
   22 O22       3.1321     1.0377     2.3412 O.3    1 <0>      -0.5400
   23 H23      -2.0151     1.3148     0.0455 H      1 <0>       0.4100
   24 H24      -3.2819     3.3751     0.3670 H      1 <0>       0.3900
   25 H25      -0.0570     4.9679     0.6307 H      1 <0>       0.1100
   26 H26      -0.0224     3.5819     1.7521 H      1 <0>       0.0900
   27 H27       1.2183     3.6953    -1.0374 H      1 <0>       0.0700
   28 H28       2.0972     3.6719     0.5116 H      1 <0>       0.1000
   29 H29       3.5728    -3.0193    -0.8056 H      1 <0>       0.0600
   30 H30       1.8884    -2.4439    -0.7973 H      1 <0>       0.0600
   31 H31       2.5849    -3.1267    -2.9777 H      1 <0>       0.3800
   32 H32       5.4827    -1.2305     0.9150 H      1 <0>       0.3800
   33 H33       3.3181     0.5281     3.1416 H      1 <0>       0.3900
@<TRIPOS>BOND
   1    1    2 2
   2    2    9 am
   3    2    3 am
   4    3    4 1
   5    3   23 1
   6    4    5 1
   7    4    6 1
   8    4    7 1
   9    6   24 1
  10    7    8 1
  11    7   25 1
  12    7   26 1
  13    8    9 1
  14    8   27 1
  15    8   28 1
  16    9   10 1
  17   10   11 1
  18   10   20 1
  19   10   12 1
  20   12   13 1
  21   13   14 1
  22   13   15 1
  23   13   17 1
  24   15   16 1
  25   15   29 1
  26   15   30 1
  27   16   31 1
  28   17   18 1
  29   17   19 1
  30   17   20 1
  31   19   32 1
  32   20   21 1
  33   20   22 1
  34   22   33 1
