@<TRIPOS>MOLECULE
ZINC000100068360
45    47    1     0     0
SMALL
USER_CHARGES
@<TRIPOS>ATOM
1      C1     -0.0178    1.4648    0.0101 C.3      1 ZINC000100068360   -0.0400
2      N2      0.0021   -0.0041    0.0020 N.4      1 ZINC000100068360   -0.4000
3      H3      0.4597   -0.3483   -0.8287 H        1 ZINC000100068360    0.4300
4      C4     -1.3788   -0.5471    0.1024 C.3      1 ZINC000100068360    0.0400
5      H5     -2.0750   -0.0279   -0.5562 H        1 ZINC000100068360    0.1600
6      C6     -1.7469   -0.3755    1.5942 C.3      1 ZINC000100068360   -0.1500
7      C7     -0.3941   -0.3612    2.3360 C.3      1 ZINC000100068360   -0.1500
8      C8      0.6720   -0.5254    1.2231 C.3      1 ZINC000100068360    0.0400
9      H9      1.5929    0.0109    1.4522 H        1 ZINC000100068360    0.1600
10     C10     0.9132   -2.0300    1.0214 C.3      1 ZINC000100068360   -0.1400
11     C11    -0.4399   -2.7389    0.9133 C.3      1 ZINC000100068360    0.0700
12     H12    -0.9637   -2.6675    1.8666 H        1 ZINC000100068360    0.1100
13     O13    -0.2278   -4.1367    0.5823 O.3      1 ZINC000100068360   -0.3200
14     C14    -1.1387   -5.0143    1.0315 C.2      1 ZINC000100068360    0.4700
15     O15    -2.0821   -4.6273    1.6797 O.2      1 ZINC000100068360   -0.4900
16     C16    -0.9848   -6.4822    0.7272 C.3      1 ZINC000100068360   -0.0300
17     H17    -0.0442   -6.8428    1.1433 H        1 ZINC000100068360    0.1300
18     C18    -0.9856   -6.6917   -0.7884 C.3      1 ZINC000100068360    0.0900
19     O19     0.1662   -6.0651   -1.3565 O.3      1 ZINC000100068360   -0.5600
20     C20    -2.1307   -7.2451    1.3403 C.ar     1 ZINC000100068360   -0.0900
21     C21    -3.4299   -6.9645    0.9604 C.ar     1 ZINC000100068360   -0.0900
22     C22    -4.4809   -7.6644    1.5228 C.ar     1 ZINC000100068360   -0.1200
23     C23    -4.2328   -8.6451    2.4649 C.ar     1 ZINC000100068360   -0.1100
24     C24    -2.9336   -8.9264    2.8442 C.ar     1 ZINC000100068360   -0.1200
25     C25    -1.8823   -8.2295    2.2786 C.ar     1 ZINC000100068360   -0.1000
26     C26    -1.3007   -2.0506   -0.2072 C.3      1 ZINC000100068360   -0.1600
27     H27     1.0047    1.8421    0.0024 H        1 ZINC000100068360    0.1200
28     H28    -0.5450    1.8259   -0.8730 H        1 ZINC000100068360    0.1200
29     H29    -0.5280    1.8163    0.9069 H        1 ZINC000100068360    0.1200
30     H30    -2.2743    0.5657    1.7489 H        1 ZINC000100068360    0.1000
31     H31    -2.3565   -1.2131    1.9332 H        1 ZINC000100068360    0.1200
32     H32    -0.2564    0.5871    2.8554 H        1 ZINC000100068360    0.1000
33     H33    -0.3386   -1.1918    3.0397 H        1 ZINC000100068360    0.1100
34     H34     1.4827   -2.1889    0.1056 H        1 ZINC000100068360    0.1000
35     H35     1.4671   -2.4282    1.8715 H        1 ZINC000100068360    0.1200
36     H36    -0.9638   -7.7592   -1.0077 H        1 ZINC000100068360    0.0700
37     H37    -1.8866   -6.2514   -1.2156 H        1 ZINC000100068360    0.0500
38     H38     0.2310   -6.1578   -2.3168 H        1 ZINC000100068360    0.3900
39     H39    -3.6237   -6.1983    0.2244 H        1 ZINC000100068360    0.1200
40     H40    -5.4960   -7.4446    1.2265 H        1 ZINC000100068360    0.1300
41     H41    -5.0541   -9.1914    2.9048 H        1 ZINC000100068360    0.1300
42     H42    -2.7398   -9.6924    3.5804 H        1 ZINC000100068360    0.1300
43     H43    -0.8672   -8.4492    2.5749 H        1 ZINC000100068360    0.1300
44     H44    -2.3026   -2.4798   -0.2131 H        1 ZINC000100068360    0.1200
45     H45    -0.8290   -2.2067   -1.1774 H        1 ZINC000100068360    0.1000
@<TRIPOS>BOND
1     1     2     1
2     1     27    1
3     1     28    1
4     1     29    1
5     2     3     1
6     2     8     1
7     2     4     1
8     4     5     1
9     4     26    1
10    4     6     1
11    6     7     1
12    6     30    1
13    6     31    1
14    7     8     1
15    7     32    1
16    7     33    1
17    8     9     1
18    8     10    1
19    10    11    1
20    10    34    1
21    10    35    1
22    11    12    1
23    11    13    1
24    11    26    1
25    13    14    1
26    14    15    2
27    14    16    1
28    16    17    1
29    16    18    1
30    16    20    1
31    18    19    1
32    18    36    1
33    18    37    1
34    19    38    1
35    20    25    ar
36    20    21    ar
37    21    22    ar
38    21    39    1
39    22    23    ar
40    22    40    1
41    23    24    ar
42    23    41    1
43    24    25    ar
44    24    42    1
45    25    43    1
46    26    44    1
47    26    45    1
@<TRIPOS>SUBSTRUCTURE
1   ZINC000100068360 1     RESIDUE    1   A     ZIN   1
