@<TRIPOS>MOLECULE
ZINC000000597739
52    54    1     0     0
SMALL
USER_CHARGES
@<TRIPOS>ATOM
1      C1     -0.0219    1.6589    0.5531 C.3      1 ZINC000000597739    0.0600
2      O2      0.0661    0.2216    0.3670 O.3      1 ZINC000000597739   -0.3700
3      C3      0.6174   -0.4917    1.3670 C.2      1 ZINC000000597739    0.6500
4      O4      1.0141    0.0715    2.3680 O.2      1 ZINC000000597739   -0.5600
5      N5      0.7292   -1.8304    1.2579 N.am     1 ZINC000000597739   -0.6000
6      C6      0.2593   -2.5242    0.0506 C.3      1 ZINC000000597739    0.1000
7      C7     -0.7390   -3.6114    0.4674 C.3      1 ZINC000000597739    0.0900
8      N8     -0.1445   -4.4034    1.5534 N.am     1 ZINC000000597739   -0.6100
9      C9     -0.0319   -5.7420    1.4439 C.2      1 ZINC000000597739    0.5200
10     O10     0.5421   -6.3747    2.3047 O.2      1 ZINC000000597739   -0.5200
11     C11    -0.6192   -6.4525    0.2517 C.3      1 ZINC000000597739   -0.1000
12     C12    -0.3582   -7.9320    0.3700 C.ar     1 ZINC000000597739   -0.0500
13     C13     0.7973   -8.4741   -0.1605 C.ar     1 ZINC000000597739   -0.0900
14     C14     1.0380   -9.8312   -0.0527 C.ar     1 ZINC000000597739   -0.1000
15     C15     0.1222  -10.6473    0.5862 C.ar     1 ZINC000000597739   -0.0300
16     Cl16    0.4242  -12.3514    0.7223 Cl       1 ZINC000000597739   -0.0500
17     C17    -1.0355  -10.1042    1.1176 C.ar     1 ZINC000000597739   -0.0300
18     Cl18   -2.1860  -11.1272    1.9199 Cl       1 ZINC000000597739   -0.0500
19     C19    -1.2720   -8.7454    1.0139 C.ar     1 ZINC000000597739   -0.0800
20     C20     0.3254   -3.7095    2.7607 C.3      1 ZINC000000597739    0.1400
21     H21    -0.5212   -3.2520    3.2725 H        1 ZINC000000597739    0.0800
22     C22     1.0102   -4.7098    3.6941 C.3      1 ZINC000000597739    0.0600
23     N23     1.4357   -4.0228    4.9208 N.3      1 ZINC000000597739   -0.5300
24     C24     0.2874   -3.8132    5.8393 C.3      1 ZINC000000597739    0.0300
25     C25     0.9681   -3.5928    7.2135 C.3      1 ZINC000000597739   -0.1200
26     C26     2.1591   -4.5775    7.1712 C.3      1 ZINC000000597739   -0.1300
27     C27     2.4111   -4.8398    5.6748 C.3      1 ZINC000000597739    0.0400
28     C28     1.3287   -2.6217    2.3415 C.3      1 ZINC000000597739    0.1300
29     H29     0.9786    2.0696    0.6888 H        1 ZINC000000597739    0.0600
30     H30    -0.4844    2.1112   -0.3241 H        1 ZINC000000597739    0.1000
31     H31    -0.6259    1.8748    1.4344 H        1 ZINC000000597739    0.0600
32     H32    -0.2313   -1.8122   -0.6130 H        1 ZINC000000597739    0.1100
33     H33     1.1059   -2.9818   -0.4613 H        1 ZINC000000597739    0.0800
34     H34    -1.6614   -3.1469    0.8160 H        1 ZINC000000597739    0.0800
35     H35    -0.9513   -4.2588   -0.3835 H        1 ZINC000000597739    0.1000
36     H36    -1.6941   -6.2749    0.2161 H        1 ZINC000000597739    0.1100
37     H37    -0.1580   -6.0740   -0.6604 H        1 ZINC000000597739    0.1100
38     H38     1.5125   -7.8372   -0.6598 H        1 ZINC000000597739    0.1400
39     H39     1.9409  -10.2541   -0.4677 H        1 ZINC000000597739    0.1400
40     H40    -2.1745   -8.3212    1.4284 H        1 ZINC000000597739    0.1400
41     H41     0.3115   -5.5071    3.9479 H        1 ZINC000000597739    0.0700
42     H42     1.8810   -5.1351    3.1951 H        1 ZINC000000597739    0.0900
43     H43    -0.2832   -2.9317    5.5468 H        1 ZINC000000597739    0.0800
44     H44    -0.3518   -4.6958    5.8637 H        1 ZINC000000597739    0.0400
45     H45     1.3201   -2.5657    7.3093 H        1 ZINC000000597739    0.0800
46     H46     0.2872   -3.8458    8.0262 H        1 ZINC000000597739    0.0700
47     H47     3.0392   -4.1267    7.6297 H        1 ZINC000000597739    0.0700
48     H48     1.9004   -5.5063    7.6797 H        1 ZINC000000597739    0.0700
49     H49     2.2610   -5.8963    5.4526 H        1 ZINC000000597739    0.0500
50     H50     3.4264   -4.5429    5.4116 H        1 ZINC000000597739    0.0800
51     H51     2.2504   -3.0885    1.9940 H        1 ZINC000000597739    0.0800
52     H52     1.5420   -1.9736    3.1916 H        1 ZINC000000597739    0.1200
@<TRIPOS>BOND
1     1     2     1
2     1     29    1
3     1     30    1
4     1     31    1
5     2     3     1
6     3     4     2
7     3     5     am
8     5     28    1
9     5     6     1
10    6     7     1
11    6     32    1
12    6     33    1
13    7     8     1
14    7     34    1
15    7     35    1
16    8     9     am
17    8     20    1
18    9     10    2
19    9     11    1
20    11    12    1
21    11    36    1
22    11    37    1
23    12    19    ar
24    12    13    ar
25    13    14    ar
26    13    38    1
27    14    15    ar
28    14    39    1
29    15    16    1
30    15    17    ar
31    17    18    1
32    17    19    ar
33    19    40    1
34    20    21    1
35    20    22    1
36    20    28    1
37    22    23    1
38    22    41    1
39    22    42    1
40    23    27    1
41    23    24    1
42    24    25    1
43    24    43    1
44    24    44    1
45    25    26    1
46    25    45    1
47    25    46    1
48    26    27    1
49    26    47    1
50    26    48    1
51    27    49    1
52    27    50    1
53    28    51    1
54    28    52    1
@<TRIPOS>SUBSTRUCTURE
1   ZINC000000597739 1     RESIDUE    1   A     ZIN   1
