@<TRIPOS>MOLECULE
ZINC000003802658
  37   39    0    0    0
SMALL
USER_CHARGES
NO_NAME
@<TRIPOS>ATOM
    1 C1       -0.0173     1.4248     0.0099 C.3    1 <0>       0.0200
    2 O2        0.0021    -0.0041     0.0020 O.3    1 <0>      -0.3000
    3 C3       -1.2017    -0.6382     0.0101 C.ar   1 <0>       0.1100
    4 C4       -1.2515    -2.0346     0.0089 C.ar   1 <0>       0.1400
    5 O5       -0.0987    -2.7558    -0.0008 O.3    1 <0>      -0.3000
    6 C6       -0.2241    -4.1793    -0.0014 C.3    1 <0>       0.0200
    7 C7       -2.4691    -2.6814     0.0180 C.ar   1 <0>      -0.1500
    8 C8       -3.6586    -1.9486     0.0280 C.ar   1 <0>      -0.1200
    9 S9       -5.3328    -2.4925     0.0414 S.3    1 <0>       0.1400
   10 C10      -5.9229    -0.8401     0.0475 C.2    1 <0>      -0.1400
   11 C11      -7.3398    -0.4602     0.0595 C.2    1 <0>       0.1900
   12 N12      -7.6625     0.7940     0.0583 N.2    1 <0>      -0.2400
   13 N13      -8.9976     1.2052     0.0956 N.am   1 <0>      -0.5600
   14 C14      -9.9708     0.3395     0.4375 C.2    1 <0>       0.5000
   15 O15     -11.1340     0.6812     0.3935 O.2    1 <0>      -0.5200
   16 C16      -9.6069    -1.0577     0.8749 C.3    1 <0>      -0.1400
   17 C17      -8.3942    -1.5352     0.0668 C.3    1 <0>      -0.0900
   18 H18      -7.9855    -2.4362     0.5242 H      1 <0>       0.1100
   19 C19      -8.8279    -1.8443    -1.3675 C.3    1 <0>      -0.1500
   20 C20      -4.9031     0.0257     0.0398 C.2    1 <0>      -0.0600
   21 C21      -3.6202    -0.5496     0.0288 C.ar   1 <0>      -0.0800
   22 C22      -2.3607     0.0973     0.0251 C.ar   1 <0>      -0.1400
   23 H23       1.0053     1.8021     0.0021 H      1 <0>       0.1000
   24 H24      -0.5445     1.7859    -0.8732 H      1 <0>       0.0600
   25 H25      -0.5275     1.7763     0.9067 H      1 <0>       0.0600
   26 H26      -0.7609    -4.4972     0.8924 H      1 <0>       0.0600
   27 H27      -0.7747    -4.4952    -0.8876 H      1 <0>       0.0600
   28 H28       0.7677    -4.6314    -0.0096 H      1 <0>       0.1100
   29 H29      -2.5036    -3.7609     0.0171 H      1 <0>       0.1400
   30 H30      -9.2252     2.1216    -0.1261 H      1 <0>       0.4300
   31 H31      -9.3629    -1.0549     1.9372 H      1 <0>       0.1100
   32 H32     -10.4487    -1.7264     0.6953 H      1 <0>       0.1200
   33 H33      -9.2382    -0.9441    -1.8251 H      1 <0>       0.0600
   34 H34      -7.9664    -2.1838    -1.9425 H      1 <0>       0.0700
   35 H35      -9.5882    -2.6253    -1.3569 H      1 <0>       0.0800
   36 H36      -5.0551     1.0949     0.0415 H      1 <0>       0.1500
   37 H37      -2.3116     1.1762     0.0312 H      1 <0>       0.1400
@<TRIPOS>BOND
   1    1    2 1
   2    1   23 1
   3    1   24 1
   4    1   25 1
   5    2    3 1
   6    3   22 ar
   7    3    4 ar
   8    4    5 1
   9    4    7 ar
  10    5    6 1
  11    6   26 1
  12    6   27 1
  13    6   28 1
  14    7    8 ar
  15    7   29 1
  16    8   21 ar
  17    8    9 1
  18    9   10 1
  19   10   11 1
  20   10   20 2
  21   11   17 1
  22   11   12 2
  23   12   13 1
  24   13   14 am
  25   13   30 1
  26   14   15 2
  27   14   16 1
  28   16   17 1
  29   16   31 1
  30   16   32 1
  31   17   18 1
  32   17   19 1
  33   19   33 1
  34   19   34 1
  35   19   35 1
  36   20   21 1
  37   20   36 1
  38   21   22 ar
  39   22   37 1
