@<TRIPOS>MOLECULE
ZINC000012358610
58    66    1     0     0
SMALL
USER_CHARGES
@<TRIPOS>ATOM
1      C1     -0.0168    1.3847    0.0097 C.ar     1 ZINC000012358610   -0.1000
2      C2      1.1588    2.1033    0.0023 C.ar     1 ZINC000012358610   -0.0500
3      C3      2.3788    1.4262   -0.0160 C.ar     1 ZINC000012358610   -0.0600
4      C4      3.7803    1.8639   -0.0608 C.2      1 ZINC000012358610    0.3700
5      N5      4.1528    3.1266   -0.0774 N.2      1 ZINC000012358610   -0.4300
6      C6      5.4048    3.5470   -0.2012 C.2      1 ZINC000012358610    0.3500
7      N7      6.4936    2.8036   -0.3902 N.2      1 ZINC000012358610   -0.6000
8      C8      7.5706    3.5544   -0.6101 C.2      1 ZINC000012358610    0.3500
9      N9      8.7924    3.1477   -0.9254 N.2      1 ZINC000012358610   -0.4400
10     C10     9.1811    1.8937   -1.0067 C.2      1 ZINC000012358610    0.3700
11     N11     8.4475    0.7654   -0.7532 N.pl3    1 ZINC000012358610   -0.5800
12     C12     9.2326   -0.3506   -0.8806 C.2      1 ZINC000012358610    0.3600
13     N13     8.8897   -1.6032   -0.6685 N.2      1 ZINC000012358610   -0.4300
14     C14     7.6708   -2.0111   -0.3386 C.2      1 ZINC000012358610    0.3400
15     N15     6.5646   -1.2756   -0.2543 N.2      1 ZINC000012358610   -0.6000
16     C16     5.4914   -2.0255   -0.0109 C.2      1 ZINC000012358610    0.3400
17     N17     4.2259   -1.6318    0.0334 N.2      1 ZINC000012358610   -0.4300
18     C18     3.8125   -0.3838   -0.0126 C.2      1 ZINC000012358610    0.3600
19     C19     2.3986    0.0149   -0.0080 C.ar     1 ZINC000012358610   -0.0600
20     C20     1.1958   -0.6925   -0.0054 C.ar     1 ZINC000012358610   -0.0500
21     C21     0.0021   -0.0041    0.0020 C.ar     1 ZINC000012358610   -0.1000
22     N22     4.5783    0.7510   -0.0679 N.pl3    1 ZINC000012358610   -0.5800
23     C23     5.9354   -3.4203    0.2039 C.ar     1 ZINC000012358610   -0.0900
24     C24     5.2955   -4.6055    0.5391 C.ar     1 ZINC000012358610   -0.0600
25     C25     6.0338   -5.7690    0.6579 C.ar     1 ZINC000012358610   -0.1100
26     C26     7.4028   -5.7604    0.4469 C.ar     1 ZINC000012358610   -0.1100
27     C27     8.0556   -4.5870    0.1157 C.ar     1 ZINC000012358610   -0.0600
28     C28     7.3283   -3.4107   -0.0060 C.ar     1 ZINC000012358610   -0.0900
29     C29    10.5692    0.0745   -1.3168 C.ar     1 ZINC000012358610   -0.0600
30     C30    11.7441   -0.6086   -1.6338 C.ar     1 ZINC000012358610   -0.0500
31     C31    12.8585    0.1009   -2.0255 C.ar     1 ZINC000012358610   -0.1000
32     C32    12.8253    1.4870   -2.1071 C.ar     1 ZINC000012358610   -0.1000
33     C33    11.6767    2.1820   -1.7970 C.ar     1 ZINC000012358610   -0.0500
34     C34    10.5363    1.4832   -1.3995 C.ar     1 ZINC000012358610   -0.0600
35     C35     7.1902    4.9753   -0.4493 C.ar     1 ZINC000012358610   -0.0900
36     C36     7.8767    6.1792   -0.5249 C.ar     1 ZINC000012358610   -0.0600
37     C37     7.1985    7.3646   -0.3062 C.ar     1 ZINC000012358610   -0.1100
38     C38     5.8446    7.3576   -0.0131 C.ar     1 ZINC000012358610   -0.1100
39     C39     5.1460    6.1664    0.0598 C.ar     1 ZINC000012358610   -0.0600
40     C40     5.8109    4.9685   -0.1640 C.ar     1 ZINC000012358610   -0.0900
41     H41    -0.9622    1.9064    0.0260 H        1 ZINC000012358610    0.1400
42     H42     1.1362    3.1831    0.0102 H        1 ZINC000012358610    0.1400
43     H43     7.5068    0.7573   -0.5168 H        1 ZINC000012358610    0.4400
44     H44     1.2004   -1.7724   -0.0095 H        1 ZINC000012358610    0.1400
45     H45    -0.9294   -0.5506    0.0022 H        1 ZINC000012358610    0.1400
46     H46     5.5474    0.7643   -0.1068 H        1 ZINC000012358610    0.4400
47     H47     4.2286   -4.6190    0.7062 H        1 ZINC000012358610    0.1400
48     H48     5.5383   -6.6927    0.9180 H        1 ZINC000012358610    0.1400
49     H49     7.9650   -6.6777    0.5415 H        1 ZINC000012358610    0.1400
50     H50     9.1234   -4.5856   -0.0463 H        1 ZINC000012358610    0.1400
51     H51    11.7795   -1.6863   -1.5728 H        1 ZINC000012358610    0.1400
52     H52    13.7682   -0.4267   -2.2714 H        1 ZINC000012358610    0.1400
53     H53    13.7089    2.0256   -2.4165 H        1 ZINC000012358610    0.1400
54     H54    11.6591    3.2599   -1.8616 H        1 ZINC000012358610    0.1400
55     H55     8.9324    6.1903   -0.7523 H        1 ZINC000012358610    0.1400
56     H56     7.7290    8.3035   -0.3640 H        1 ZINC000012358610    0.1400
57     H57     5.3300    8.2912    0.1604 H        1 ZINC000012358610    0.1400
58     H58     4.0907    6.1680    0.2895 H        1 ZINC000012358610    0.1400
@<TRIPOS>BOND
1     1     21    ar
2     1     2     ar
3     1     41    1
4     2     3     ar
5     2     42    1
6     3     19    ar
7     3     4     2
8     4     22    1
9     4     5     1
10    5     6     2
11    6     40    1
12    6     7     1
13    7     8     2
14    8     9     1
15    8     35    1
16    9     10    2
17    10    34    1
18    10    11    1
19    11    12    1
20    11    43    1
21    12    13    2
22    12    29    1
23    13    14    1
24    14    28    1
25    14    15    2
26    15    16    1
27    16    17    2
28    16    23    1
29    17    18    1
30    18    19    2
31    18    22    1
32    19    20    ar
33    20    21    ar
34    20    44    1
35    21    45    1
36    22    46    1
37    23    28    ar
38    23    24    ar
39    24    25    ar
40    24    47    1
41    25    26    ar
42    25    48    1
43    26    27    ar
44    26    49    1
45    27    28    ar
46    27    50    1
47    29    34    ar
48    29    30    ar
49    30    31    ar
50    30    51    1
51    31    32    ar
52    31    52    1
53    32    33    ar
54    32    53    1
55    33    34    ar
56    33    54    1
57    35    40    ar
58    35    36    ar
59    36    37    ar
60    36    55    1
61    37    38    ar
62    37    56    1
63    38    39    ar
64    38    57    1
65    39    40    ar
66    39    58    1
@<TRIPOS>SUBSTRUCTURE
1   ZINC000012358610 1     RESIDUE    1   A     ZIN   1
