@<TRIPOS>MOLECULE
ZINC000034034438
  48   50    0    0    0
SMALL
USER_CHARGES
NO_NAME
@<TRIPOS>ATOM
    1 C1       -0.2966     1.6206     0.0102 C.3    1 <0>       0.0200
    2 O2       -0.2266     0.1934    -0.0037 O.3    1 <0>      -0.3100
    3 C3       -1.4039    -0.4813     0.0085 C.ar   1 <0>       0.1700
    4 C4       -2.6012     0.2190     0.0277 C.ar   1 <0>      -0.2600
    5 C5       -3.8027    -0.4688     0.0401 C.ar   1 <0>       0.2000
    6 O6       -4.9766     0.2104     0.0592 O.3    1 <0>      -0.4700
    7 C7       -3.8000    -1.8731     0.0323 C.ar   1 <0>      -0.1700
    8 C8       -2.5838    -2.5635     0.0119 C.ar   1 <0>       0.0400
    9 C9       -1.4052    -1.8732    -0.0040 C.ar   1 <0>      -0.1600
   10 C10      -2.5666    -4.0707    -0.0020 C.3    1 <0>       0.0300
   11 H11      -3.2431    -4.5457    -0.7112 H      1 <0>       0.1600
   12 O12      -1.3181    -4.7150     0.2626 O.3    1 <0>      -0.3600
   13 C13      -2.2835    -4.7988     1.3130 C.3    1 <0>       0.0500
   14 H14      -2.1201    -4.1937     2.2043 H      1 <0>       0.1200
   15 C15      -2.9576    -6.1529     1.5432 C.3    1 <0>      -0.1400
   16 C16      -4.1670    -5.9730     2.4241 C.2    1 <0>       0.3800
   17 O17      -4.0281    -5.7677     3.6135 O.2    1 <0>      -0.5100
   18 C18      -5.4592    -6.0427     1.8663 C.2    1 <0>      -0.3000
   19 O19      -5.6128    -6.2594     0.5297 O.3    1 <0>      -0.4600
   20 C20      -6.5463    -5.8954     2.6554 C.2    1 <0>       0.2900
   21 O21      -6.3969    -5.6839     3.9794 O.3    1 <0>      -0.6500
   22 C22      -7.9264    -5.9673     2.0530 C.3    1 <0>      -0.1200
   23 C23      -8.0106    -5.0101     0.8621 C.3    1 <0>      -0.1000
   24 C24      -7.4846    -3.6342     1.2768 C.3    1 <0>      -0.1400
   25 C25      -7.4635    -2.7091     0.0586 C.3    1 <0>       0.1000
   26 H26      -8.3220    -2.0385     0.0971 H      1 <0>       0.1000
   27 C27      -7.5290    -3.5478    -1.2194 C.3    1 <0>      -0.1900
   28 O28      -6.2400    -1.9288     0.0620 O.3    1 <0>      -0.3500
   29 C29      -5.0745    -2.6098     0.0441 C.2    1 <0>       0.4800
   30 O30      -5.0769    -3.8252     0.0371 O.2    1 <0>      -0.4300
   31 H31       0.7119     2.0340    -0.0018 H      1 <0>       0.1000
   32 H32      -0.8414     1.9663    -0.8683 H      1 <0>       0.0600
   33 H33      -0.8137     1.9502     0.9114 H      1 <0>       0.0600
   34 H34      -2.5961     1.2989     0.0333 H      1 <0>       0.1400
   35 H35      -5.3288     0.4120    -0.8186 H      1 <0>       0.4000
   36 H36      -0.4686    -2.4106    -0.0180 H      1 <0>       0.1500
   37 H37      -3.2654    -6.5725     0.5855 H      1 <0>       0.0800
   38 H38      -2.2542    -6.8308     2.0267 H      1 <0>       0.0700
   39 H39      -5.6270    -7.1940     0.2819 H      1 <0>       0.3000
   40 H40      -8.1235    -6.9851     1.7161 H      1 <0>       0.0600
   41 H41      -8.6654    -5.6822     2.8018 H      1 <0>       0.0500
   42 H42      -7.4073    -5.3974     0.0410 H      1 <0>       0.1000
   43 H43      -9.0481    -4.9206     0.5403 H      1 <0>       0.0400
   44 H44      -8.1353    -3.2120     2.0426 H      1 <0>       0.0500
   45 H45      -6.4744    -3.7357     1.6736 H      1 <0>       0.1000
   46 H46      -8.4486    -4.1330    -1.2232 H      1 <0>       0.0700
   47 H47      -7.5140    -2.8889    -2.0876 H      1 <0>       0.0400
   48 H48      -6.6710    -4.2191    -1.2578 H      1 <0>       0.0900
@<TRIPOS>BOND
   1    1    2 1
   2    1   31 1
   3    1   32 1
   4    1   33 1
   5    2    3 1
   6    3    9 ar
   7    3    4 ar
   8    4    5 ar
   9    4   34 1
  10    5    6 1
  11    5    7 ar
  12    6   35 1
  13    7   29 1
  14    7    8 ar
  15    8    9 ar
  16    8   10 1
  17    9   36 1
  18   10   11 1
  19   10   13 1
  20   10   12 1
  21   12   13 1
  22   13   14 1
  23   13   15 1
  24   15   16 1
  25   15   37 1
  26   15   38 1
  27   16   17 2
  28   16   18 1
  29   18   19 1
  30   18   20 2
  31   19   39 1
  32   20   21 1
  33   20   22 1
  34   22   23 1
  35   22   40 1
  36   22   41 1
  37   23   24 1
  38   23   42 1
  39   23   43 1
  40   24   25 1
  41   24   44 1
  42   24   45 1
  43   25   26 1
  44   25   27 1
  45   25   28 1
  46   27   46 1
  47   27   47 1
  48   27   48 1
  49   28   29 1
  50   29   30 2
