@<TRIPOS>MOLECULE
ZINC000000008107
32    34    1     0     0
SMALL
USER_CHARGES
@<TRIPOS>ATOM
1      C1     -0.0184    1.5028    0.0103 C.3      1 ZINC000000008107   -0.1300
2      C2      0.0021   -0.0041    0.0020 C.ar     1 ZINC000000008107   -0.0600
3      C3      0.0057   -0.6848   -1.2041 C.ar     1 ZINC000000008107   -0.0700
4      C4      0.0247   -2.0630   -1.2406 C.ar     1 ZINC000000008107   -0.0900
5      C5      0.0407   -2.7905   -0.0493 C.ar     1 ZINC000000008107    0.2000
6      N6      0.0600   -4.1451   -0.0467 N.2      1 ZINC000000008107   -0.5900
7      C7      0.0753   -4.8265    1.0713 C.2      1 ZINC000000008107    0.6400
8      N8      0.0951   -6.1967    1.0019 N.pl3    1 ZINC000000008107   -0.8200
9      N9      0.0731   -4.2374    2.3022 N.am     1 ZINC000000008107   -0.6700
10     C10     0.0540   -2.8896    2.4198 C.2      1 ZINC000000008107    0.5600
11     O11     0.0514   -2.3517    3.5123 O.2      1 ZINC000000008107   -0.4700
12     C12     0.0370   -2.1006    1.1852 C.ar     1 ZINC000000008107   -0.1800
13     C13     0.0229   -0.6993    1.2031 C.ar     1 ZINC000000008107   -0.0800
14     S14     0.0252    0.1711    2.7351 S.3      1 ZINC000000008107    0.0600
15     C15     1.7425    0.3843    3.0672 C.ar     1 ZINC000000008107   -0.0500
16     C16     2.7079   -0.0976    2.1828 C.ar     1 ZINC000000008107   -0.1900
17     C17     4.0413    0.0897    2.4796 C.ar     1 ZINC000000008107    0.1200
18     N18     4.4078    0.7148    3.5830 N.ar     1 ZINC000000008107   -0.4900
19     C19     3.5252    1.1852    4.4446 C.ar     1 ZINC000000008107    0.1200
20     C20     2.1723    1.0446    4.2187 C.ar     1 ZINC000000008107   -0.1600
21     H21     1.0042    1.8801    0.0026 H        1 ZINC000000008107    0.0800
22     H22    -0.5455    1.8639   -0.8728 H        1 ZINC000000008107    0.0800
23     H23    -0.5286    1.8543    0.9071 H        1 ZINC000000008107    0.0800
24     H24    -0.0069   -0.1280   -2.1294 H        1 ZINC000000008107    0.1400
25     H25     0.0269   -2.5789   -2.1894 H        1 ZINC000000008107    0.1500
26     H26     0.0974   -6.6386    0.1384 H        1 ZINC000000008107    0.4300
27     H27     0.1067   -6.7235    1.8163 H        1 ZINC000000008107    0.4100
28     H28     0.0849   -4.7896    3.0996 H        1 ZINC000000008107    0.4200
29     H29     2.4149   -0.6106    1.2786 H        1 ZINC000000008107    0.1300
30     H30     4.7956   -0.2800    1.8007 H        1 ZINC000000008107    0.1600
31     H31     3.8672    1.6904    5.3358 H        1 ZINC000000008107    0.1600
32     H32     1.4555    1.4318    4.9277 H        1 ZINC000000008107    0.1400
@<TRIPOS>BOND
1     1     2     1
2     1     21    1
3     1     22    1
4     1     23    1
5     2     13    ar
6     2     3     ar
7     3     4     ar
8     3     24    1
9     4     5     ar
10    4     25    1
11    5     12    ar
12    5     6     1
13    6     7     2
14    7     8     1
15    7     9     1
16    8     26    1
17    8     27    1
18    9     10    am
19    9     28    1
20    10    11    2
21    10    12    1
22    12    13    ar
23    13    14    1
24    14    15    1
25    15    20    ar
26    15    16    ar
27    16    17    ar
28    16    29    1
29    17    18    ar
30    17    30    1
31    18    19    ar
32    19    20    ar
33    19    31    1
34    20    32    1
@<TRIPOS>SUBSTRUCTURE
1   ZINC000000008107 1     RESIDUE    1   A     ZIN   1
