@<TRIPOS>MOLECULE
ZINC000001539348
59    63    1     0     0
SMALL
USER_CHARGES
@<TRIPOS>ATOM
1      O1      0.0021   -0.0041    0.0020 O.co2    1 ZINC000001539348   -0.6900
2      C2     -0.0145    1.2187    0.0087 C.2      1 ZINC000001539348    0.5200
3      O3      1.0361    1.8445    0.0021 O.co2    1 ZINC000001539348   -0.6900
4      C4     -1.3021    1.9390    0.0188 C.ar     1 ZINC000001539348   -0.1300
5      C5     -1.3249    3.3360    0.0206 C.ar     1 ZINC000001539348   -0.0800
6      C6     -2.5323    4.0025    0.0295 C.ar     1 ZINC000001539348   -0.1300
7      C7     -3.7192    3.2911    0.0366 C.ar     1 ZINC000001539348   -0.1000
8      C8     -5.0344    4.0268    0.0458 C.3      1 ZINC000001539348   -0.0800
9      C9     -5.4889    4.2770   -1.3935 C.3      1 ZINC000001539348    0.1200
10     N10    -6.7674    4.9922   -1.3846 N.am     1 ZINC000001539348   -0.7200
11     C11    -7.3631    5.3222   -2.5476 C.2      1 ZINC000001539348    0.5500
12     O12    -6.8395    5.0264   -3.6041 O.2      1 ZINC000001539348   -0.5300
13     C13    -8.6528    6.0436   -2.5386 C.ar     1 ZINC000001539348   -0.1200
14     C14    -9.2510    6.3882   -1.3136 C.ar     1 ZINC000001539348   -0.1000
15     C15   -10.4354    7.0510   -1.2792 C.ar     1 ZINC000001539348   -0.1000
16     C16   -11.0810    7.4018   -2.4785 C.ar     1 ZINC000001539348   -0.0600
17     C17   -12.3075    8.0880   -2.4662 C.ar     1 ZINC000001539348   -0.0700
18     C18   -12.9105    8.4157   -3.6406 C.ar     1 ZINC000001539348   -0.1800
19     C19   -12.3280    8.0797   -4.8667 C.ar     1 ZINC000001539348    0.1300
20     O20   -12.9547    8.4212   -6.0231 O.3      1 ZINC000001539348   -0.3100
21     C21   -14.1970    9.1176   -5.9066 C.3      1 ZINC000001539348    0.1100
22     C22   -14.7397    9.4104   -7.2816 C.ar     1 ZINC000001539348    0.1600
23     C23   -14.0196    8.9916   -8.3979 C.ar     1 ZINC000001539348   -0.1500
24     C24   -14.4964    9.2478   -9.6523 C.ar     1 ZINC000001539348   -0.0600
25     C25   -15.7178    9.9367   -9.7704 C.ar     1 ZINC000001539348   -0.1000
26     C26   -16.2705   10.2352  -11.0264 C.ar     1 ZINC000001539348   -0.1000
27     C27   -17.4546   10.9031  -11.0987 C.ar     1 ZINC000001539348   -0.1200
28     C28   -18.1264   11.2951   -9.9423 C.ar     1 ZINC000001539348   -0.1000
29     C29   -17.6198   11.0223   -8.7092 C.ar     1 ZINC000001539348   -0.0900
30     C30   -16.3991   10.3342   -8.5931 C.ar     1 ZINC000001539348    0.1300
31     N31   -15.8798   10.0477   -7.3954 N.ar     1 ZINC000001539348   -0.4700
32     C32   -11.1372    7.4131   -4.9167 C.ar     1 ZINC000001539348   -0.1400
33     C33   -10.4878    7.0598   -3.7209 C.ar     1 ZINC000001539348   -0.0200
34     C34    -9.2605    6.3802   -3.7369 C.ar     1 ZINC000001539348   -0.0400
35     C35    -3.7043    1.9073    0.0348 C.ar     1 ZINC000001539348   -0.1300
36     C36    -2.5045    1.2273    0.0206 C.ar     1 ZINC000001539348   -0.0800
37     H37    -0.3994    3.8925    0.0154 H        1 ZINC000001539348    0.1300
38     H38    -2.5515    5.0824    0.0313 H        1 ZINC000001539348    0.1100
39     H39    -5.7826    3.4269    0.5640 H        1 ZINC000001539348    0.0700
40     H40    -4.9137    4.9804    0.5597 H        1 ZINC000001539348    0.0700
41     H41    -4.7407    4.8768   -1.9117 H        1 ZINC000001539348    0.0700
42     H42    -5.6096    3.3234   -1.9074 H        1 ZINC000001539348    0.0700
43     H43    -7.1852    5.2282   -0.5416 H        1 ZINC000001539348    0.4000
44     H44    -8.7622    6.1219   -0.3881 H        1 ZINC000001539348    0.1300
45     H45   -10.8823    7.3087   -0.3303 H        1 ZINC000001539348    0.1300
46     H46   -12.7699    8.3540   -1.5271 H        1 ZINC000001539348    0.1400
47     H47   -13.8531    8.9427   -3.6259 H        1 ZINC000001539348    0.1300
48     H48   -14.9093    8.5008   -5.3586 H        1 ZINC000001539348    0.0900
49     H49   -14.0398   10.0539   -5.3711 H        1 ZINC000001539348    0.0900
50     H50   -13.0850    8.4652   -8.2720 H        1 ZINC000001539348    0.1500
51     H51   -13.9510    8.9307  -10.5288 H        1 ZINC000001539348    0.1400
52     H52   -15.7591    9.9370  -11.9296 H        1 ZINC000001539348    0.1300
53     H53   -17.8788   11.1326  -12.0651 H        1 ZINC000001539348    0.1300
54     H54   -19.0641   11.8242  -10.0262 H        1 ZINC000001539348    0.1300
55     H55   -18.1530   11.3335   -7.8231 H        1 ZINC000001539348    0.1400
56     H56   -10.6966    7.1592   -5.8694 H        1 ZINC000001539348    0.1400
57     H57    -8.7957    6.1177   -4.6758 H        1 ZINC000001539348    0.1400
58     H58    -4.6345    1.3585    0.0404 H        1 ZINC000001539348    0.1100
59     H59    -2.4943    0.1474    0.0192 H        1 ZINC000001539348    0.1300
@<TRIPOS>BOND
1     1     2     ar
2     2     3     ar
3     2     4     1
4     4     36    ar
5     4     5     ar
6     5     6     ar
7     5     37    1
8     6     7     ar
9     6     38    1
10    7     8     1
11    7     35    ar
12    8     9     1
13    8     39    1
14    8     40    1
15    9     10    1
16    9     41    1
17    9     42    1
18    10    11    am
19    10    43    1
20    11    12    2
21    11    13    1
22    13    34    ar
23    13    14    ar
24    14    15    ar
25    14    44    1
26    15    16    ar
27    15    45    1
28    16    33    ar
29    16    17    ar
30    17    18    ar
31    17    46    1
32    18    19    ar
33    18    47    1
34    19    20    1
35    19    32    ar
36    20    21    1
37    21    22    1
38    21    48    1
39    21    49    1
40    22    31    ar
41    22    23    ar
42    23    24    ar
43    23    50    1
44    24    25    ar
45    24    51    1
46    25    30    ar
47    25    26    ar
48    26    27    ar
49    26    52    1
50    27    28    ar
51    27    53    1
52    28    29    ar
53    28    54    1
54    29    30    ar
55    29    55    1
56    30    31    ar
57    32    33    ar
58    32    56    1
59    33    34    ar
60    34    57    1
61    35    36    ar
62    35    58    1
63    36    59    1
@<TRIPOS>SUBSTRUCTURE
1   ZINC000001539348 1     RESIDUE    1   A     ZIN   1
