@<TRIPOS>MOLECULE
ZINC000000538484
65    68    1     0     0
SMALL
USER_CHARGES
@<TRIPOS>ATOM
1      C1     -2.3650    0.0800   -1.9410 C.3      1 ZINC000000538484   -0.1400
2      C2     -1.5271   -1.1033   -1.4524 C.3      1 ZINC000000538484   -0.1600
3      C3     -0.0734   -0.8497   -1.7582 C.2      1 ZINC000000538484    0.5200
4      O4      0.2559    0.1600   -2.3440 O.2      1 ZINC000000538484   -0.5200
5      N5      0.8607   -1.7450   -1.3808 N.am     1 ZINC000000538484   -0.5700
6      C6      2.2175   -1.4752   -1.5986 C.ar     1 ZINC000000538484    0.1300
7      C7      2.8850   -0.5678   -0.7883 C.ar     1 ZINC000000538484   -0.0900
8      C8      4.2240   -0.3038   -1.0052 C.ar     1 ZINC000000538484   -0.1200
9      C9      4.8997   -0.9420   -2.0285 C.ar     1 ZINC000000538484   -0.0900
10     C10     4.2390   -1.8472   -2.8389 C.ar     1 ZINC000000538484   -0.1400
11     C11     2.9007   -2.1205   -2.6241 C.ar     1 ZINC000000538484    0.0900
12     F12     2.2552   -3.0050   -3.4153 F        1 ZINC000000538484   -0.1300
13     C13     0.4567   -3.0003   -0.7427 C.3      1 ZINC000000538484    0.2200
14     C14    -0.6066   -3.6690   -1.5754 C.ar     1 ZINC000000538484   -0.1000
15     C15    -1.6250   -4.3730   -0.9604 C.ar     1 ZINC000000538484   -0.1100
16     C16    -2.6004   -4.9864   -1.7242 C.ar     1 ZINC000000538484   -0.1200
17     C17    -2.5576   -4.8955   -3.1028 C.ar     1 ZINC000000538484   -0.1100
18     C18    -1.5397   -4.1907   -3.7178 C.ar     1 ZINC000000538484   -0.1200
19     C19    -0.5667   -3.5737   -2.9539 C.ar     1 ZINC000000538484   -0.1100
20     C20     1.6703   -3.9260   -0.6206 C.3      1 ZINC000000538484   -0.1200
21     C21     2.7209   -3.2660    0.2753 C.3      1 ZINC000000538484    0.0200
22     N22     2.1438   -3.0085    1.6008 N.3      1 ZINC000000538484   -0.5200
23     C23     3.1633   -2.5026    2.5296 C.3      1 ZINC000000538484    0.0400
24     C24     2.5944   -2.4827    3.9498 C.3      1 ZINC000000538484    0.1600
25     N25     3.6111   -1.9782    4.8761 N.am     1 ZINC000000538484   -0.4700
26     N26     4.5627   -2.7452    5.5592 N.2      1 ZINC000000538484    0.0200
27     N27     5.2633   -2.0021    6.2562 N.2      1 ZINC000000538484    0.0200
28     N28     4.8366   -0.6782    6.0952 N.am     1 ZINC000000538484   -0.4700
29     C29     5.4080    0.5019    6.7488 C.3      1 ZINC000000538484    0.1500
30     C30     4.6863    0.7500    8.0749 C.3      1 ZINC000000538484   -0.1700
31     C31     3.8057   -0.6875    5.2228 C.2      1 ZINC000000538484    0.6400
32     O32     3.1715    0.2766    4.8323 O.2      1 ZINC000000538484   -0.5300
33     C33     1.0059   -2.0844    1.5141 C.3      1 ZINC000000538484    0.0400
34     C34    -0.0960   -2.7090    0.6552 C.3      1 ZINC000000538484   -0.1400
35     H35    -2.0403    0.9889   -1.4344 H        1 ZINC000000538484    0.0600
36     H36    -2.2352    0.1975   -3.0168 H        1 ZINC000000538484    0.0600
37     H37    -3.4165   -0.1034   -1.7198 H        1 ZINC000000538484    0.0600
38     H38    -1.6570   -1.2208   -0.3766 H        1 ZINC000000538484    0.1000
39     H39    -1.8518   -2.0121   -1.9590 H        1 ZINC000000538484    0.1100
40     H40     2.3583   -0.0679    0.0112 H        1 ZINC000000538484    0.1300
41     H41     4.7433    0.4024   -0.3744 H        1 ZINC000000538484    0.1300
42     H42     5.9460   -0.7329   -2.1957 H        1 ZINC000000538484    0.1400
43     H43     4.7697   -2.3441   -3.6376 H        1 ZINC000000538484    0.1400
44     H44    -1.6584   -4.4441    0.1167 H        1 ZINC000000538484    0.1300
45     H45    -3.3956   -5.5371   -1.2437 H        1 ZINC000000538484    0.1300
46     H46    -3.3192   -5.3753   -3.6996 H        1 ZINC000000538484    0.1200
47     H47    -1.5061   -4.1199   -4.7949 H        1 ZINC000000538484    0.1200
48     H48     0.2285   -3.0231   -3.4343 H        1 ZINC000000538484    0.1300
49     H49     1.3616   -4.8746   -0.1814 H        1 ZINC000000538484    0.0900
50     H50     2.0941   -4.1027   -1.6091 H        1 ZINC000000538484    0.0800
51     H51     3.5804   -3.9288    0.3759 H        1 ZINC000000538484    0.0800
52     H52     3.0392   -2.3241   -0.1715 H        1 ZINC000000538484    0.0700
53     H53     4.0381   -3.1520    2.4977 H        1 ZINC000000538484    0.0900
54     H54     3.4502   -1.4920    2.2389 H        1 ZINC000000538484    0.0400
55     H55     1.7196   -1.8333    3.9817 H        1 ZINC000000538484    0.1000
56     H56     2.3075   -3.4933    4.2405 H        1 ZINC000000538484    0.1100
57     H57     6.4684    0.3347    6.9380 H        1 ZINC000000538484    0.1000
58     H58     5.2869    1.3702    6.1012 H        1 ZINC000000538484    0.1000
59     H59     3.6260    0.9172    7.8857 H        1 ZINC000000538484    0.0600
60     H60     4.8074   -0.1183    8.7225 H        1 ZINC000000538484    0.0700
61     H61     5.1115    1.6280    8.5611 H        1 ZINC000000538484    0.0800
62     H62     0.6197   -1.8889    2.5145 H        1 ZINC000000538484    0.0800
63     H63     1.3322   -1.1480    1.0615 H        1 ZINC000000538484    0.0400
64     H64    -0.9340   -2.0164    0.5782 H        1 ZINC000000538484    0.0900
65     H65    -0.4324   -3.6386    1.1145 H        1 ZINC000000538484    0.1000
@<TRIPOS>BOND
1     1     2     1
2     1     35    1
3     1     36    1
4     1     37    1
5     2     3     1
6     2     38    1
7     2     39    1
8     3     4     2
9     3     5     am
10    5     6     1
11    5     13    1
12    6     11    ar
13    6     7     ar
14    7     8     ar
15    7     40    1
16    8     9     ar
17    8     41    1
18    9     10    ar
19    9     42    1
20    10    11    ar
21    10    43    1
22    11    12    1
23    13    34    1
24    13    14    1
25    13    20    1
26    14    19    ar
27    14    15    ar
28    15    16    ar
29    15    44    1
30    16    17    ar
31    16    45    1
32    17    18    ar
33    17    46    1
34    18    19    ar
35    18    47    1
36    19    48    1
37    20    21    1
38    20    49    1
39    20    50    1
40    21    22    1
41    21    51    1
42    21    52    1
43    22    23    1
44    22    33    1
45    23    24    1
46    23    53    1
47    23    54    1
48    24    25    1
49    24    55    1
50    24    56    1
51    25    31    am
52    25    26    1
53    26    27    2
54    27    28    1
55    28    29    1
56    28    31    am
57    29    30    1
58    29    57    1
59    29    58    1
60    30    59    1
61    30    60    1
62    30    61    1
63    31    32    2
64    33    34    1
65    33    62    1
66    33    63    1
67    34    64    1
68    34    65    1
@<TRIPOS>SUBSTRUCTURE
1   ZINC000000538484 1     RESIDUE    1   A     ZIN   1
