@<TRIPOS>MOLECULE
ZINC000003955689
45    47    1     0     0
SMALL
USER_CHARGES
@<TRIPOS>ATOM
1      C1     -0.0184    1.5028    0.0103 C.3      1 ZINC000003955689   -0.1400
2      C2      0.0021   -0.0041    0.0020 C.2      1 ZINC000003955689    0.2600
3      C3      0.0064   -0.7191   -1.1247 C.2      1 ZINC000003955689   -0.8800
4      S4     -0.0104   -0.0698   -2.7626 S.o2     1 ZINC000003955689    2.7400
5      N5      1.5666    0.1324   -3.2259 N.am     1 ZINC000003955689   -1.2500
6      O6     -0.5450   -1.0910   -3.5936 O.2      1 ZINC000003955689   -0.9600
7      O7     -0.5722    1.2323   -2.6723 O.2      1 ZINC000003955689   -0.9500
8      S8      0.0323   -2.4258   -0.6884 S.3      1 ZINC000003955689    0.2400
9      C9      0.0349   -2.0121    0.9705 C.2      1 ZINC000003955689    0.3100
10     N10     0.0535   -2.9249    2.0186 N.am     1 ZINC000003955689   -0.5300
11     C11     0.0729   -4.3626    1.7377 C.3      1 ZINC000003955689    0.0600
12     C12     0.0538   -2.4874    3.2934 C.2      1 ZINC000003955689    0.5100
13     O13     0.0377   -1.2972    3.5260 O.2      1 ZINC000003955689   -0.4400
14     C14     0.0740   -3.4770    4.4297 C.3      1 ZINC000003955689   -0.0900
15     C15     0.0700   -2.7356    5.7417 C.ar     1 ZINC000003955689   -0.0700
16     C16     1.2674   -2.3742    6.3325 C.ar     1 ZINC000003955689   -0.1100
17     C17     1.2697   -1.6947    7.5338 C.ar     1 ZINC000003955689   -0.0800
18     C18     0.0628   -1.3727    8.1515 C.ar     1 ZINC000003955689   -0.0500
19     C19     0.0588   -0.6420    9.4425 C.ar     1 ZINC000003955689    0.1700
20     C20    -1.1523   -0.3293   10.0556 C.ar     1 ZINC000003955689   -0.1600
21     C21    -1.1400    0.3529   11.2602 C.ar     1 ZINC000003955689   -0.0700
22     C22     0.0845    0.7002   11.8122 C.ar     1 ZINC000003955689   -0.1800
23     C23     1.2489    0.3579   11.1491 C.ar     1 ZINC000003955689    0.1100
24     N24     1.2091   -0.2964   10.0064 N.ar     1 ZINC000003955689   -0.4800
25     C25    -1.1406   -1.7393    7.5517 C.ar     1 ZINC000003955689   -0.1000
26     C26    -1.1311   -2.4140    6.3478 C.ar     1 ZINC000003955689   -0.1000
27     N27     0.0228   -0.7233    1.1085 N.2      1 ZINC000003955689   -0.5000
28     H28     1.0042    1.8801    0.0026 H        1 ZINC000003955689    0.0900
29     H29    -0.5455    1.8639   -0.8728 H        1 ZINC000003955689    0.1300
30     H30    -0.5286    1.8543    0.9071 H        1 ZINC000003955689    0.0900
31     H31     1.8111    0.0544   -4.1613 H        1 ZINC000003955689    0.4200
32     H32     2.2458    0.3289   -2.5618 H        1 ZINC000003955689    0.4200
33     H33     1.1053   -4.7043    1.6627 H        1 ZINC000003955689    0.0800
34     H34    -0.4290   -4.8972    2.5441 H        1 ZINC000003955689    0.1000
35     H35    -0.4430   -4.5560    0.7972 H        1 ZINC000003955689    0.0900
36     H36    -0.8071   -4.1160    4.3708 H        1 ZINC000003955689    0.1100
37     H37     0.9726   -4.0902    4.3616 H        1 ZINC000003955689    0.1100
38     H38     2.2022   -2.6246    5.8531 H        1 ZINC000003955689    0.1200
39     H39     2.2052   -1.4133    7.9944 H        1 ZINC000003955689    0.1400
40     H40    -2.0877   -0.6148    9.5975 H        1 ZINC000003955689    0.1400
41     H41    -2.0631    0.6094   11.7588 H        1 ZINC000003955689    0.1400
42     H42     0.1281    1.2330   12.7506 H        1 ZINC000003955689    0.1400
43     H43     2.2038    0.6267   11.5761 H        1 ZINC000003955689    0.1600
44     H44    -2.0788   -1.4926    8.0263 H        1 ZINC000003955689    0.1300
45     H45    -2.0630   -2.6983    5.8819 H        1 ZINC000003955689    0.1300
@<TRIPOS>BOND
1     1     2     1
2     1     28    1
3     1     29    1
4     1     30    1
5     2     27    1
6     2     3     2
7     3     4     1
8     3     8     1
9     4     5     am
10    4     6     2
11    4     7     2
12    5     31    1
13    5     32    1
14    8     9     1
15    9     10    1
16    9     27    2
17    10    11    1
18    10    12    am
19    11    33    1
20    11    34    1
21    11    35    1
22    12    13    2
23    12    14    1
24    14    15    1
25    14    36    1
26    14    37    1
27    15    26    ar
28    15    16    ar
29    16    17    ar
30    16    38    1
31    17    18    ar
32    17    39    1
33    18    19    1
34    18    25    ar
35    19    24    ar
36    19    20    ar
37    20    21    ar
38    20    40    1
39    21    22    ar
40    21    41    1
41    22    23    ar
42    22    42    1
43    23    24    ar
44    23    43    1
45    25    26    ar
46    25    44    1
47    26    45    1
@<TRIPOS>SUBSTRUCTURE
1   ZINC000003955689 1     RESIDUE    1   A     ZIN   1
