@<TRIPOS>MOLECULE
ZINC000000001347
  32   34    0    0    0
SMALL
USER_CHARGES
NO_NAME
@<TRIPOS>ATOM
    1 C1       -0.0167     1.3781     0.0096 C.ar   1 <0>      -0.1100
    2 C2        1.1682     2.0885     0.0021 C.ar   1 <0>      -0.1200
    3 C3        2.3846     1.4183    -0.0119 C.ar   1 <0>       0.0500
    4 C4        2.4091     0.0314    -0.0178 C.ar   1 <0>       0.0400
    5 O5        3.5910    -0.6458    -0.0267 O.3    1 <0>      -0.2900
    6 C6        4.7551     0.0962    -0.4068 C.3    1 <0>       0.0200
    7 C7        4.7362     1.4358     0.3419 C.3    1 <0>       0.0200
    8 O8        3.5414     2.1356    -0.0224 O.3    1 <0>      -0.3100
    9 C9        1.2127    -0.6820    -0.0119 C.ar   1 <0>       0.1800
   10 N10       1.2317    -2.0816    -0.0195 N.pl3  1 <0>      -0.6700
   11 C11       1.2461    -2.8433     1.2386 C.3    1 <0>       0.1500
   12 C12       2.3920    -3.8590     1.1797 C.3    1 <0>       0.0400
   13 N13       2.2597    -4.6716    -0.0369 N.3    1 <0>      -0.6900
   14 C14       2.3841    -3.8458    -1.2455 C.3    1 <0>       0.0400
   15 C15       1.2317    -2.8297    -1.2859 C.3    1 <0>       0.1500
   16 C16       0.0021    -0.0041     0.0020 C.ar   1 <0>      -0.1200
   17 H17      -0.9599     1.9039     0.0260 H      1 <0>       0.1300
   18 H18       1.1486     3.1683     0.0068 H      1 <0>       0.1300
   19 H19       5.6514    -0.4627    -0.1378 H      1 <0>       0.1200
   20 H20       4.7418     0.2757    -1.4818 H      1 <0>       0.0800
   21 H21       4.7438     1.2562     1.4170 H      1 <0>       0.0800
   22 H22       5.6082     2.0263     0.0611 H      1 <0>       0.1200
   23 H23       1.4020    -2.1636     2.0763 H      1 <0>       0.0700
   24 H24       0.2981    -3.3674     1.3602 H      1 <0>       0.0600
   25 H25       3.3454    -3.3310     1.1625 H      1 <0>       0.0400
   26 H26       2.3498    -4.5062     2.0557 H      1 <0>       0.0800
   27 H27       2.9307    -5.4251    -0.0432 H      1 <0>       0.3400
   28 H28       3.3376    -3.3181    -1.2288 H      1 <0>       0.0300
   29 H29       2.3362    -4.4835    -2.1282 H      1 <0>       0.0800
   30 H30       0.2844    -3.3550    -1.4077 H      1 <0>       0.0600
   31 H31       1.3806    -2.1400    -2.1167 H      1 <0>       0.0700
   32 H32      -0.9259    -0.5565     0.0070 H      1 <0>       0.1300
@<TRIPOS>BOND
   1    1   16 ar
   2    1    2 ar
   3    1   17 1
   4    2    3 ar
   5    2   18 1
   6    3    8 1
   7    3    4 ar
   8    4    5 1
   9    4    9 ar
  10    5    6 1
  11    6    7 1
  12    6   19 1
  13    6   20 1
  14    7    8 1
  15    7   21 1
  16    7   22 1
  17    9   10 1
  18    9   16 ar
  19   10   15 1
  20   10   11 1
  21   11   12 1
  22   11   23 1
  23   11   24 1
  24   12   13 1
  25   12   25 1
  26   12   26 1
  27   13   14 1
  28   13   27 1
  29   14   15 1
  30   14   28 1
  31   14   29 1
  32   15   30 1
  33   15   31 1
  34   16   32 1
