@<TRIPOS>MOLECULE
ZINC000008657832
44    46    1     0     0
SMALL
USER_CHARGES
@<TRIPOS>ATOM
1      C1      1.4630    2.2743    0.1526 C.3      1 ZINC000008657832   -0.1400
2      C2      1.3452    0.7517    0.2460 C.3      1 ZINC000008657832   -0.0400
3      C3      2.2047    0.2439    1.4055 C.3      1 ZINC000008657832   -0.1400
4      C4     -0.1158    0.3671    0.4877 C.3      1 ZINC000008657832   -0.1500
5      C5      1.8216    0.1310   -1.0419 C.ar     1 ZINC000008657832   -0.0200
6      C6      0.9580   -0.6426   -1.7958 C.ar     1 ZINC000008657832   -0.1300
7      C7      1.3912   -1.2133   -2.9762 C.ar     1 ZINC000008657832   -0.0500
8      C8      2.6966   -1.0090   -3.4066 C.ar     1 ZINC000008657832   -0.1900
9      S9      3.2537   -1.7347   -4.9125 S.3      1 ZINC000008657832    0.0700
10     C10     2.7844   -0.5441   -6.1236 C.ar     1 ZINC000008657832   -0.0300
11     C11     2.9561   -0.8163   -7.4924 C.ar     1 ZINC000008657832   -0.1800
12     C12     3.5031   -2.0367   -7.9507 C.ar     1 ZINC000008657832    0.5700
13     N13     3.8922   -3.0152   -7.0605 N.pl3    1 ZINC000008657832   -0.7900
14     N14     3.6324   -2.2172   -9.2580 N.ar     1 ZINC000008657832   -0.5800
15     C15     3.2606   -1.2816  -10.1269 C.ar     1 ZINC000008657832    0.6900
16     N16     3.4207   -1.5305  -11.4779 N.pl3    1 ZINC000008657832   -0.7900
17     N17     2.7449   -0.1259   -9.7537 N.ar     1 ZINC000008657832   -0.5800
18     H18     2.4882    0.5265  -10.4240 H        1 ZINC000008657832    0.4400
19     C19     2.5734    0.1525   -8.4518 C.ar     1 ZINC000008657832    0.2200
20     C20     2.0291    1.3689   -8.0227 C.ar     1 ZINC000008657832   -0.1600
21     C21     1.8714    1.6119   -6.6883 C.ar     1 ZINC000008657832    0.0000
22     C22     2.2370    0.6678   -5.7389 C.ar     1 ZINC000008657832   -0.1400
23     C23     3.5615   -0.2307   -2.6468 C.ar     1 ZINC000008657832   -0.0600
24     C24     3.1199    0.3411   -1.4701 C.ar     1 ZINC000008657832   -0.1200
25     H25     2.5039    2.5483   -0.0195 H        1 ZINC000008657832    0.0600
26     H26     0.8507    2.6361   -0.6734 H        1 ZINC000008657832    0.0600
27     H27     1.1184    2.7232    1.0842 H        1 ZINC000008657832    0.0700
28     H28     1.8601    0.6928    2.3370 H        1 ZINC000008657832    0.0700
29     H29     2.1208   -0.8408    1.4720 H        1 ZINC000008657832    0.0600
30     H30     3.2455    0.5179    1.2334 H        1 ZINC000008657832    0.0600
31     H31    -0.7282    0.7289   -0.3383 H        1 ZINC000008657832    0.0600
32     H32    -0.1998   -0.7176    0.5542 H        1 ZINC000008657832    0.0600
33     H33    -0.4605    0.8160    1.4192 H        1 ZINC000008657832    0.0700
34     H34    -0.0565   -0.8009   -1.4606 H        1 ZINC000008657832    0.1400
35     H35     0.7164   -1.8179   -3.5640 H        1 ZINC000008657832    0.1300
36     H36     3.6615   -3.9424   -7.2275 H        1 ZINC000008657832    0.4300
37     H37     4.3966   -2.7763   -6.2671 H        1 ZINC000008657832    0.4300
38     H38     3.7975   -2.3737  -11.7744 H        1 ZINC000008657832    0.4500
39     H39     3.1562   -0.8619  -12.1290 H        1 ZINC000008657832    0.4300
40     H40     1.7347    2.1146   -8.7463 H        1 ZINC000008657832    0.1600
41     H41     1.4507    2.5530   -6.3663 H        1 ZINC000008657832    0.1600
42     H42     2.1016    0.8845   -4.6895 H        1 ZINC000008657832    0.1500
43     H43     4.5769   -0.0702   -2.9781 H        1 ZINC000008657832    0.1300
44     H44     3.7915    0.9461   -0.8790 H        1 ZINC000008657832    0.1400
@<TRIPOS>BOND
1     1     2     1
2     1     25    1
3     1     26    1
4     1     27    1
5     2     3     1
6     2     4     1
7     2     5     1
8     3     28    1
9     3     29    1
10    3     30    1
11    4     31    1
12    4     32    1
13    4     33    1
14    5     24    ar
15    5     6     ar
16    6     7     ar
17    6     34    1
18    7     8     ar
19    7     35    1
20    8     9     1
21    8     23    ar
22    9     10    1
23    10    22    ar
24    10    11    ar
25    11    19    ar
26    11    12    ar
27    12    13    1
28    12    14    ar
29    13    36    1
30    13    37    1
31    14    15    ar
32    15    16    1
33    15    17    ar
34    16    38    1
35    16    39    1
36    17    18    1
37    17    19    ar
38    19    20    ar
39    20    21    ar
40    20    40    1
41    21    22    ar
42    21    41    1
43    22    42    1
44    23    24    ar
45    23    43    1
46    24    44    1
@<TRIPOS>SUBSTRUCTURE
1   ZINC000008657832 1     RESIDUE    1   A     ZIN   1
