@<TRIPOS>MOLECULE
ZINC000049087932
60    62    1     0     0
SMALL
USER_CHARGES
@<TRIPOS>ATOM
1      C1     -0.0187    1.5258    0.0104 C.3      1 ZINC000049087932   -0.1500
2      C2      0.0021   -0.0041    0.0020 C.3      1 ZINC000049087932    0.0500
3      O3     -1.3386   -0.4987    0.0122 O.3      1 ZINC000049087932   -0.3200
4      C4     -1.4983   -1.8483    0.0064 C.ar     1 ZINC000049087932    0.1300
5      C5     -0.3876   -2.6794   -0.0028 C.ar     1 ZINC000049087932   -0.2100
6      C6     -0.5526   -4.0509   -0.0082 C.ar     1 ZINC000049087932   -0.0700
7      C7     -1.8235   -4.5955   -0.0047 C.ar     1 ZINC000049087932   -0.1100
8      C8     -2.0007   -6.0920   -0.0110 C.3      1 ZINC000049087932   -0.0300
9      C9     -2.0530   -6.5977    1.4076 C.ar     1 ZINC000049087932   -0.1200
10     C10    -0.9025   -7.0617    2.0177 C.ar     1 ZINC000049087932   -0.0400
11     C11    -0.9477   -7.5254    3.3184 C.ar     1 ZINC000049087932   -0.1000
12     C12     0.3070   -8.0307    3.9829 C.3      1 ZINC000049087932   -0.0100
13     H13     1.0101   -8.3729    3.2235 H        1 ZINC000049087932    0.1000
14     S14    -0.1053   -9.4074    5.0956 S.3      1 ZINC000049087932   -0.1300
15     C15     1.4785   -9.7127    5.9332 C.3      1 ZINC000049087932   -0.0800
16     H16     2.2062  -10.0871    5.2132 H        1 ZINC000049087932    0.1000
17     C17     1.2798  -10.7447    7.0451 C.3      1 ZINC000049087932    0.1000
18     O18     0.4203  -10.2028    8.0499 O.3      1 ZINC000049087932   -0.5600
19     C19     1.9815   -8.3975    6.5342 C.3      1 ZINC000049087932    0.0900
20     H20     1.2277   -7.9980    7.2127 H        1 ZINC000049087932    0.0900
21     O21     3.1905   -8.6380    7.2570 O.3      1 ZINC000049087932   -0.5600
22     C22     2.2502   -7.3864    5.4235 C.3      1 ZINC000049087932    0.0300
23     H23     2.8620   -7.8546    4.6524 H        1 ZINC000049087932    0.0700
24     O24     2.9529   -6.2668    5.9663 O.3      1 ZINC000049087932   -0.5600
25     C25     0.9436   -6.9040    4.8009 C.3      1 ZINC000049087932    0.1300
26     H26     0.2563   -6.6014    5.5910 H        1 ZINC000049087932    0.0800
27     O27     1.2079   -5.7877    3.9488 O.3      1 ZINC000049087932   -0.5500
28     C28    -2.1488   -7.5250    4.0122 C.ar     1 ZINC000049087932    0.1400
29     O29    -2.1958   -7.9802    5.2919 O.3      1 ZINC000049087932   -0.2800
30     C30    -3.4665   -7.9503    5.9448 C.3      1 ZINC000049087932    0.0200
31     C31    -3.3021   -7.0588    3.3977 C.ar     1 ZINC000049087932   -0.2100
32     C32    -3.2506   -6.5914    2.0990 C.ar     1 ZINC000049087932   -0.0300
33     C33    -4.5028   -6.0843    1.4311 C.3      1 ZINC000049087932   -0.1300
34     C34    -2.9322   -3.7693    0.0050 C.ar     1 ZINC000049087932   -0.0800
35     C35    -2.7724   -2.3972    0.0157 C.ar     1 ZINC000049087932   -0.1500
36     H36     1.0039    1.9031    0.0027 H        1 ZINC000049087932    0.0800
37     H37    -0.5459    1.8868   -0.8726 H        1 ZINC000049087932    0.0700
38     H38    -0.5289    1.8773    0.9072 H        1 ZINC000049087932    0.0700
39     H39     0.5123   -0.3556   -0.8948 H        1 ZINC000049087932    0.0600
40     H40     0.5293   -0.3651    0.8851 H        1 ZINC000049087932    0.0600
41     H41     0.6053   -2.2545   -0.0062 H        1 ZINC000049087932    0.1300
42     H42     0.3118   -4.6984   -0.0154 H        1 ZINC000049087932    0.1200
43     H43    -2.9297   -6.3458   -0.5217 H        1 ZINC000049087932    0.0800
44     H44    -1.1620   -6.5550   -0.5311 H        1 ZINC000049087932    0.0800
45     H45     0.0324   -7.0621    1.4769 H        1 ZINC000049087932    0.1300
46     H46     0.8289  -11.6454    6.6285 H        1 ZINC000049087932    0.0500
47     H47     2.2447  -10.9926    7.4873 H        1 ZINC000049087932    0.0700
48     H48     0.2499  -10.8041    8.7878 H        1 ZINC000049087932    0.3800
49     H49     3.5679   -7.8473    7.6664 H        1 ZINC000049087932    0.3800
50     H50     3.8058   -6.4922    6.3625 H        1 ZINC000049087932    0.3800
51     H51     1.6048   -5.0317    4.4026 H        1 ZINC000049087932    0.3900
52     H52    -4.1750   -8.5647    5.3893 H        1 ZINC000049087932    0.0500
53     H53    -3.3638   -8.3400    6.9576 H        1 ZINC000049087932    0.1000
54     H54    -3.8300   -6.9235    5.9857 H        1 ZINC000049087932    0.0500
55     H55    -4.2386   -7.0577    3.9358 H        1 ZINC000049087932    0.1300
56     H56    -4.6073   -5.0156    1.6185 H        1 ZINC000049087932    0.0800
57     H57    -4.4386   -6.2603    0.3573 H        1 ZINC000049087932    0.0700
58     H58    -5.3681   -6.6102    1.8344 H        1 ZINC000049087932    0.0700
59     H59    -3.9238   -4.1971    0.0080 H        1 ZINC000049087932    0.1300
60     H60    -3.6387   -1.7522    0.0232 H        1 ZINC000049087932    0.1300
@<TRIPOS>BOND
1     1     2     1
2     1     36    1
3     1     37    1
4     1     38    1
5     2     3     1
6     2     39    1
7     2     40    1
8     3     4     1
9     4     35    ar
10    4     5     ar
11    5     6     ar
12    5     41    1
13    6     7     ar
14    6     42    1
15    7     8     1
16    7     34    ar
17    8     9     1
18    8     43    1
19    8     44    1
20    9     32    ar
21    9     10    ar
22    10    11    ar
23    10    45    1
24    11    12    1
25    11    28    ar
26    12    13    1
27    12    25    1
28    12    14    1
29    14    15    1
30    15    16    1
31    15    17    1
32    15    19    1
33    17    18    1
34    17    46    1
35    17    47    1
36    18    48    1
37    19    20    1
38    19    21    1
39    19    22    1
40    21    49    1
41    22    23    1
42    22    24    1
43    22    25    1
44    24    50    1
45    25    26    1
46    25    27    1
47    27    51    1
48    28    29    1
49    28    31    ar
50    29    30    1
51    30    52    1
52    30    53    1
53    30    54    1
54    31    32    ar
55    31    55    1
56    32    33    1
57    33    56    1
58    33    57    1
59    33    58    1
60    34    35    ar
61    34    59    1
62    35    60    1
@<TRIPOS>SUBSTRUCTURE
1   ZINC000049087932 1     RESIDUE    1   A     ZIN   1
