@<TRIPOS>MOLECULE
ZINC000068197070
  55   57    0    0    0
SMALL
USER_CHARGES
NO_NAME
@<TRIPOS>ATOM
    1 C1       -0.5974     1.5050     1.2130 C.3    1 <0>      -0.1500
    2 C2       -0.5068    -0.0158     1.0730 C.3    1 <0>      -0.1200
    3 C3        0.1492    -0.6049     2.3234 C.3    1 <0>      -0.1700
    4 C4       -1.9126    -0.5979     0.9123 C.3    1 <0>      -0.0100
    5 N5       -1.8188    -2.0417     0.6583 N.4    1 <0>      -0.5100
    6 H6       -1.2903    -2.2010    -0.1863 H      1 <0>       0.4300
    7 H7       -1.3557    -2.4903     1.4345 H      1 <0>       0.4300
    8 C8       -3.1686    -2.6005     0.5041 C.3    1 <0>       0.0400
    9 C9       -3.0723    -4.0817     0.2435 C.ar   1 <0>      -0.1500
   10 C10      -2.9749    -4.5480    -1.0551 C.ar   1 <0>      -0.1100
   11 C11      -2.8865    -5.9035    -1.2994 C.ar   1 <0>      -0.0800
   12 C12      -2.8954    -6.8027    -0.2351 C.ar   1 <0>      -0.0800
   13 C13      -2.8001    -8.2612    -0.4916 C.ar   1 <0>       0.0400
   14 C14      -3.8018    -8.9118    -1.2086 C.ar   1 <0>      -0.1200
   15 C15      -3.7081   -10.2687    -1.4443 C.ar   1 <0>      -0.0600
   16 C16      -2.6223   -10.9821    -0.9701 C.ar   1 <0>      -0.1300
   17 C17      -1.6248   -10.3411    -0.2576 C.ar   1 <0>      -0.0200
   18 C18      -1.7054    -8.9839    -0.0211 C.ar   1 <0>      -0.6700
   19 S19      -0.4339    -8.1690     0.8866 S.o2   1 <0>       2.7000
   20 O20      -1.0879    -7.3507     1.8469 O.2    1 <0>      -0.9500
   21 O21       0.5146    -9.1684     1.2341 O.2    1 <0>      -0.9400
   22 N22       0.3331    -7.1401    -0.1599 N.am   1 <0>      -1.0100
   23 C23       1.4919    -7.4784    -0.9990 C.3    1 <0>       0.1100
   24 C24       1.8761    -6.2064    -1.7840 C.3    1 <0>      -0.1300
   25 C25       1.2667    -5.0690    -0.9225 C.3    1 <0>      -0.1300
   26 C26      -0.0370    -5.7350    -0.4092 C.3    1 <0>       0.1000
   27 C27      -2.9937    -6.3274     1.0710 C.ar   1 <0>      -0.0400
   28 C28      -3.0759    -4.9695     1.3042 C.ar   1 <0>      -0.1000
   29 H29       0.4041     1.9197     1.3275 H      1 <0>       0.0800
   30 H30      -1.0648     1.9247     0.3222 H      1 <0>       0.0700
   31 H31      -1.1962     1.7542     2.0891 H      1 <0>       0.0700
   32 H32       0.0919    -0.2650     0.1969 H      1 <0>       0.0900
   33 H33       0.2137    -1.6885     2.2236 H      1 <0>       0.0500
   34 H34       1.1507    -0.1903     2.4379 H      1 <0>       0.0800
   35 H35      -0.4495    -0.3558     3.1995 H      1 <0>       0.0700
   36 H36      -2.4836    -0.4258     1.8247 H      1 <0>       0.1300
   37 H37      -2.4129    -0.1132     0.0739 H      1 <0>       0.1300
   38 H38      -3.7395    -2.4284     1.4165 H      1 <0>       0.1400
   39 H39      -3.6688    -2.1159    -0.3344 H      1 <0>       0.1400
   40 H40      -2.9684    -3.8501    -1.8793 H      1 <0>       0.1400
   41 H41      -2.8108    -6.2665    -2.3138 H      1 <0>       0.1400
   42 H42      -4.6503    -8.3557    -1.5791 H      1 <0>       0.1400
   43 H43      -4.4842   -10.7742    -1.9997 H      1 <0>       0.1400
   44 H44      -2.5532   -12.0437    -1.1565 H      1 <0>       0.1400
   45 H45      -0.7791   -10.9030     0.1105 H      1 <0>       0.1500
   46 H46       2.3255    -7.7922    -0.3708 H      1 <0>       0.0800
   47 H47       1.2270    -8.2762    -1.6928 H      1 <0>       0.0700
   48 H48       2.9595    -6.1045    -1.8467 H      1 <0>       0.0900
   49 H49       1.4306    -6.2178    -2.7787 H      1 <0>       0.0800
   50 H50       1.9276    -4.8080    -0.0960 H      1 <0>       0.0800
   51 H51       1.0423    -4.1941    -1.5326 H      1 <0>       0.0800
   52 H52      -0.8188    -5.6716    -1.1661 H      1 <0>       0.0800
   53 H53      -0.3652    -5.2626     0.5167 H      1 <0>       0.0700
   54 H54      -3.0014    -7.0201     1.8996 H      1 <0>       0.1600
   55 H55      -3.1517    -4.6000     2.3162 H      1 <0>       0.1400
@<TRIPOS>BOND
   1    1    2 1
   2    1   29 1
   3    1   30 1
   4    1   31 1
   5    2    3 1
   6    2    4 1
   7    2   32 1
   8    3   33 1
   9    3   34 1
  10    3   35 1
  11    4    5 1
  12    4   36 1
  13    4   37 1
  14    5    6 1
  15    5    7 1
  16    5    8 1
  17    8    9 1
  18    8   38 1
  19    8   39 1
  20    9   28 ar
  21    9   10 ar
  22   10   11 ar
  23   10   40 1
  24   11   12 ar
  25   11   41 1
  26   12   13 1
  27   12   27 ar
  28   13   18 ar
  29   13   14 ar
  30   14   15 ar
  31   14   42 1
  32   15   16 ar
  33   15   43 1
  34   16   17 ar
  35   16   44 1
  36   17   18 ar
  37   17   45 1
  38   18   19 1
  39   19   20 2
  40   19   21 2
  41   19   22 am
  42   22   26 1
  43   22   23 1
  44   23   24 1
  45   23   46 1
  46   23   47 1
  47   24   25 1
  48   24   48 1
  49   24   49 1
  50   25   26 1
  51   25   50 1
  52   25   51 1
  53   26   52 1
  54   26   53 1
  55   27   28 ar
  56   27   54 1
  57   28   55 1
