@<TRIPOS>MOLECULE
ZINC000000005286
  48   49    0    0    0
SMALL
USER_CHARGES
NO_NAME
@<TRIPOS>ATOM
    1 C1        0.0206     1.5258     0.0326 C.3    1 <0>      -0.1400
    2 C2        0.0289    -0.0041     0.0171 C.3    1 <0>      -0.0200
    3 C3        0.7748    -0.5225     1.2483 C.3    1 <0>      -0.1400
    4 C4       -1.4106    -0.5221     0.0372 C.3    1 <0>      -0.1400
    5 C5        0.7203    -0.4901    -1.2306 C.ar   1 <0>      -0.0600
    6 C6        1.2291     0.4194    -2.1367 C.ar   1 <0>      -0.1500
    7 C7        1.8661    -0.0286    -3.2862 C.ar   1 <0>       0.1600
    8 N8        2.3829     0.8937    -4.2057 N.am   1 <0>      -0.5600
    9 C9        3.1702     0.5300    -5.3897 C.3    1 <0>       0.0900
   10 C10       3.1395     1.7752    -6.3034 C.3    1 <0>      -0.1300
   11 C11       2.9018     2.9107    -5.2811 C.3    1 <0>      -0.1500
   12 C12       2.2166     2.2248    -4.1198 C.2    1 <0>       0.5100
   13 O13       1.6114     2.7936    -3.2359 O.2    1 <0>      -0.5100
   14 C14       1.9910    -1.3908    -3.5239 C.ar   1 <0>      -0.1500
   15 C15       1.4818    -2.2992    -2.6171 C.ar   1 <0>      -0.0600
   16 C16       1.6178    -3.7778    -2.8747 C.3    1 <0>      -0.0200
   17 C17       2.3531    -3.9994    -4.1979 C.3    1 <0>      -0.1500
   18 C18       2.4107    -4.4230    -1.7363 C.3    1 <0>      -0.1400
   19 C19       0.2276    -4.4121    -2.9513 C.3    1 <0>      -0.1400
   20 C20       0.8505    -1.8510    -1.4660 C.ar   1 <0>       0.0900
   21 O21       0.3493    -2.7459    -0.5734 O.3    1 <0>      -0.4800
   22 H22       1.0461     1.8949     0.0182 H      1 <0>       0.0600
   23 H23      -0.5108     1.8951    -0.8446 H      1 <0>       0.0600
   24 H24      -0.4795     1.8773     0.9350 H      1 <0>       0.0600
   25 H25       0.2747    -0.1710     2.1508 H      1 <0>       0.0600
   26 H26       0.7807    -1.6124     1.2373 H      1 <0>       0.0600
   27 H27       1.8003    -0.1534     1.2340 H      1 <0>       0.0500
   28 H28      -1.9419    -0.1528    -0.8399 H      1 <0>       0.0500
   29 H29      -1.4046    -1.6121     0.0262 H      1 <0>       0.0800
   30 H30      -1.9106    -0.1706     0.9397 H      1 <0>       0.0500
   31 H31       1.1312     1.4788    -1.9513 H      1 <0>       0.1700
   32 H32       4.1960     0.2972    -5.1037 H      1 <0>       0.0800
   33 H33       2.7169    -0.3215    -5.8972 H      1 <0>       0.0900
   34 H34       4.0920     1.9058    -6.8170 H      1 <0>       0.1000
   35 H35       2.3181     1.7150    -7.0174 H      1 <0>       0.0900
   36 H36       3.8506     3.3454    -4.9664 H      1 <0>       0.1100
   37 H37       2.2524     3.6763    -5.7054 H      1 <0>       0.1100
   38 H38       2.4861    -1.7399    -4.4180 H      1 <0>       0.1300
   39 H39       3.3435    -3.5475    -4.1433 H      1 <0>       0.0600
   40 H40       2.4515    -5.0688    -4.3842 H      1 <0>       0.0600
   41 H41       1.7882    -3.5397    -5.0089 H      1 <0>       0.0600
   42 H42       1.8868    -4.2651    -0.7936 H      1 <0>       0.0600
   43 H43       2.5091    -5.4924    -1.9226 H      1 <0>       0.0600
   44 H44       3.4011    -3.9711    -1.6817 H      1 <0>       0.0500
   45 H45      -0.3373    -3.9524    -3.7623 H      1 <0>       0.0500
   46 H46       0.3259    -5.4815    -3.1376 H      1 <0>       0.0500
   47 H47      -0.2963    -4.2542    -2.0085 H      1 <0>       0.0800
   48 H48       0.9777    -3.0121     0.1117 H      1 <0>       0.3800
@<TRIPOS>BOND
   1    1    2 1
   2    1   22 1
   3    1   23 1
   4    1   24 1
   5    2    3 1
   6    2    4 1
   7    2    5 1
   8    3   25 1
   9    3   26 1
  10    3   27 1
  11    4   28 1
  12    4   29 1
  13    4   30 1
  14    5   20 ar
  15    5    6 ar
  16    6    7 ar
  17    6   31 1
  18    7    8 1
  19    7   14 ar
  20    8   12 am
  21    8    9 1
  22    9   10 1
  23    9   32 1
  24    9   33 1
  25   10   11 1
  26   10   34 1
  27   10   35 1
  28   11   12 1
  29   11   36 1
  30   11   37 1
  31   12   13 2
  32   14   15 ar
  33   14   38 1
  34   15   16 1
  35   15   20 ar
  36   16   17 1
  37   16   18 1
  38   16   19 1
  39   17   39 1
  40   17   40 1
  41   17   41 1
  42   18   42 1
  43   18   43 1
  44   18   44 1
  45   19   45 1
  46   19   46 1
  47   19   47 1
  48   20   21 1
  49   21   48 1
