@<TRIPOS>MOLECULE
ZINC000117924202
53    57    1     0     0
SMALL
USER_CHARGES
@<TRIPOS>ATOM
1      C1     -0.0626    1.4486    0.7014 C.3      1 ZINC000117924202    0.0200
2      O2     -0.0484    0.0225    0.7919 O.3      1 ZINC000117924202   -0.3100
3      C3     -1.2429   -0.6157    0.6702 C.ar     1 ZINC000117924202    0.1000
4      C4     -1.2945   -2.0143    0.7559 C.ar     1 ZINC000117924202    0.1400
5      O5     -0.1490   -2.7162    0.9598 O.3      1 ZINC000117924202   -0.3200
6      C6     -0.2647   -4.1383    1.0382 C.3      1 ZINC000117924202    0.0800
7      C7      1.1183   -4.7507    1.2687 C.3      1 ZINC000117924202   -0.0500
8      N8      2.2477   -3.9907    0.7166 N.4      1 ZINC000117924202   -0.6000
9      H9      2.0516   -3.0030    0.7803 H        1 ZINC000117924202    0.4500
10     H10     3.0836   -4.2021    1.2407 H        1 ZINC000117924202    0.4400
11     H11     2.3836   -4.2450   -0.2503 H        1 ZINC000117924202    0.4400
12     C12     1.3474   -5.5048    2.5801 C.3      1 ZINC000117924202   -0.1400
13     C13     1.2247   -6.2770    1.2650 C.3      1 ZINC000117924202   -0.1400
14     C14    -2.4804   -2.6801    0.6378 C.ar     1 ZINC000117924202   -0.1600
15     C15    -3.6677   -1.9595    0.4275 C.ar     1 ZINC000117924202    0.1700
16     N16    -4.8423   -2.5901    0.3091 N.ar     1 ZINC000117924202   -0.5000
17     C17    -5.9604   -1.9315    0.1127 C.ar     1 ZINC000117924202    0.1800
18     C18    -5.9872   -0.5460    0.0165 C.ar     1 ZINC000117924202   -0.2600
19     C19    -4.8099    0.1725    0.1295 C.ar     1 ZINC000117924202    0.1800
20     O20    -4.8057    1.5254    0.0401 O.3      1 ZINC000117924202   -0.2300
21     C21    -6.0036    2.1628   -0.0542 C.ar     1 ZINC000117924202    0.0000
22     C22    -6.5187    2.4891   -1.3053 C.ar     1 ZINC000117924202   -0.0800
23     C23    -7.7300    3.1350   -1.4190 C.ar     1 ZINC000117924202   -0.1200
24     C24    -8.4513    3.4677   -0.2772 C.ar     1 ZINC000117924202    0.1300
25     N25    -9.6598    4.0989   -0.0717 N.pl3    1 ZINC000117924202   -0.5800
26     C26    -9.9201    4.1789    1.2697 C.2      1 ZINC000117924202    0.1000
27     C27   -11.1502    4.8033    1.8764 C.3      1 ZINC000117924202   -0.1000
28     C28    -8.9181    3.6183    1.9646 C.2      1 ZINC000117924202   -0.1900
29     C29    -7.9350    3.1397    0.9892 C.ar     1 ZINC000117924202   -0.1300
30     C30    -6.7078    2.4794    1.0933 C.ar     1 ZINC000117924202    0.1500
31     F31    -6.2109    2.1555    2.3071 F        1 ZINC000117924202   -0.1200
32     C32    -3.6123   -0.5470    0.3413 C.ar     1 ZINC000117924202   -0.1000
33     C33    -2.3806    0.1119    0.4714 C.ar     1 ZINC000117924202   -0.1400
34     H34     0.9521    1.8300    0.8148 H        1 ZINC000117924202    0.1100
35     H35    -0.4566    1.7472   -0.2700 H        1 ZINC000117924202    0.0600
36     H36    -0.6943    1.8564    1.4906 H        1 ZINC000117924202    0.0600
37     H37    -0.9223   -4.4042    1.8659 H        1 ZINC000117924202    0.1100
38     H38    -0.6808   -4.5210    0.1062 H        1 ZINC000117924202    0.1000
39     H39     2.3363   -5.4370    3.0335 H        1 ZINC000117924202    0.1300
40     H40     0.5128   -5.5647    3.2786 H        1 ZINC000117924202    0.1400
41     H41     0.3093   -6.8448    1.0983 H        1 ZINC000117924202    0.1400
42     H42     2.1328   -6.7172    0.8532 H        1 ZINC000117924202    0.1300
43     H43    -2.5056   -3.7577    0.7055 H        1 ZINC000117924202    0.1500
44     H44    -6.8852   -2.4820    0.0230 H        1 ZINC000117924202    0.1700
45     H45    -6.9228   -0.0317   -0.1461 H        1 ZINC000117924202    0.1500
46     H46    -5.9632    2.2337   -2.1956 H        1 ZINC000117924202    0.1500
47     H47    -8.1197    3.3835   -2.3951 H        1 ZINC000117924202    0.1400
48     H48   -10.2388    4.4362   -0.7730 H        1 ZINC000117924202    0.4200
49     H49   -11.9270    4.0462    1.9833 H        1 ZINC000117924202    0.0800
50     H50   -10.9043    5.2124    2.8564 H        1 ZINC000117924202    0.0900
51     H51   -11.5090    5.6031    1.2285 H        1 ZINC000117924202    0.0700
52     H52    -8.8492    3.5358    3.0392 H        1 ZINC000117924202    0.1500
53     H53    -2.3323    1.1891    0.4108 H        1 ZINC000117924202    0.1500
@<TRIPOS>BOND
1     1     2     1
2     1     34    1
3     1     35    1
4     1     36    1
5     2     3     1
6     3     33    ar
7     3     4     ar
8     4     5     1
9     4     14    ar
10    5     6     1
11    6     7     1
12    6     37    1
13    6     38    1
14    7     13    1
15    7     8     1
16    7     12    1
17    8     9     1
18    8     10    1
19    8     11    1
20    12    13    1
21    12    39    1
22    12    40    1
23    13    41    1
24    13    42    1
25    14    15    ar
26    14    43    1
27    15    32    ar
28    15    16    ar
29    16    17    ar
30    17    18    ar
31    17    44    1
32    18    19    ar
33    18    45    1
34    19    20    1
35    19    32    ar
36    20    21    1
37    21    30    ar
38    21    22    ar
39    22    23    ar
40    22    46    1
41    23    24    ar
42    23    47    1
43    24    29    ar
44    24    25    1
45    25    26    1
46    25    48    1
47    26    27    1
48    26    28    2
49    27    49    1
50    27    50    1
51    27    51    1
52    28    29    1
53    28    52    1
54    29    30    ar
55    30    31    1
56    32    33    ar
57    33    53    1
@<TRIPOS>SUBSTRUCTURE
1   ZINC000117924202 1     RESIDUE    1   A     ZIN   1
