@<TRIPOS>MOLECULE
ZINC000049888891
75    78    1     0     0
SMALL
USER_CHARGES
@<TRIPOS>ATOM
1      C1      0.1968    0.6149    1.3443 C.3      1 ZINC000049888891    0.0200
2      O2      0.1903   -0.8004    1.1469 O.3      1 ZINC000049888891   -0.3100
3      C3     -1.0229   -1.3995    1.0141 C.ar     1 ZINC000049888891    0.1000
4      C4     -2.1817   -0.6388    1.0672 C.ar     1 ZINC000049888891   -0.1700
5      C5     -3.4183   -1.2435    0.9327 C.ar     1 ZINC000049888891   -0.0900
6      C6     -3.5075   -2.6079    0.7452 C.ar     1 ZINC000049888891   -0.1100
7      C7     -2.3486   -3.3813    0.6904 C.ar     1 ZINC000049888891   -0.0200
8      C8     -2.4416   -4.8476    0.4886 C.2      1 ZINC000049888891   -0.2200
9      C9     -2.7341   -5.3670   -0.7373 C.2      1 ZINC000049888891    0.2300
10     C10    -2.9681   -4.4536   -1.9129 C.3      1 ZINC000049888891   -0.1400
11     N11    -2.8129   -6.7219   -0.8919 N.am     1 ZINC000049888891   -0.5200
12     C12    -3.1269   -7.2763   -2.2111 C.3      1 ZINC000049888891    0.1300
13     C13    -1.8511   -7.4815   -2.9865 C.ar     1 ZINC000049888891   -0.1000
14     C14    -0.6338   -7.1482   -2.4176 C.ar     1 ZINC000049888891    0.0800
15     F15    -0.5889   -6.6392   -1.1669 F        1 ZINC000049888891   -0.1500
16     C16     0.5378   -7.3373   -3.1313 C.ar     1 ZINC000049888891   -0.0900
17     C17     0.4906   -7.8584   -4.4101 C.ar     1 ZINC000049888891   -0.0700
18     C18    -0.7258   -8.1905   -4.9775 C.ar     1 ZINC000049888891   -0.0600
19     C19    -1.8954   -8.0079   -4.2637 C.ar     1 ZINC000049888891   -0.1500
20     C20    -3.2203   -8.3708   -4.8833 C.3      1 ZINC000049888891    0.5100
21     F21    -3.0087   -8.8955   -6.1628 F        1 ZINC000049888891   -0.1700
22     F22    -3.8611   -9.3265   -4.0875 F        1 ZINC000049888891   -0.1700
23     F23    -4.0211   -7.2273   -4.9748 F        1 ZINC000049888891   -0.1700
24     C24    -2.6080   -7.5563    0.1402 C.2      1 ZINC000049888891    0.6900
25     O25    -2.6884   -8.7554   -0.0444 O.2      1 ZINC000049888891   -0.5400
26     N26    -2.3159   -7.1027    1.3718 N.am     1 ZINC000049888891   -0.5700
27     C27    -2.0998   -8.0524    2.4662 C.3      1 ZINC000049888891    0.0900
28     C28    -0.6180   -8.4281    2.5302 C.3      1 ZINC000049888891    0.0600
29     H29    -0.0310   -7.5478    2.7922 H        1 ZINC000049888891    0.1500
30     N30    -0.1842   -8.9343    1.2212 N.4      1 ZINC000049888891   -0.5100
31     H31    -0.6692   -9.7949    1.0158 H        1 ZINC000049888891    0.4300
32     H32    -0.3956   -8.2510    0.5095 H        1 ZINC000049888891    0.4100
33     C33     1.2635   -9.1822    1.2474 C.3      1 ZINC000049888891   -0.0200
34     C34     1.7154   -9.7094   -0.1160 C.3      1 ZINC000049888891   -0.1200
35     C35     3.2232   -9.9676   -0.0888 C.3      1 ZINC000049888891   -0.1800
36     C36     3.6682  -10.4869   -1.4316 C.2      1 ZINC000049888891    0.4900
37     O37     2.8549  -10.6365   -2.3275 O.co2    1 ZINC000049888891   -0.6900
38     O38     4.8417  -10.7573   -1.6223 O.co2    1 ZINC000049888891   -0.6900
39     C39    -0.4153   -9.4960    3.5741 C.ar     1 ZINC000049888891   -0.1300
40     C40    -0.6961  -10.8162    3.2759 C.ar     1 ZINC000049888891   -0.1100
41     C41    -0.5101  -11.7958    4.2333 C.ar     1 ZINC000049888891   -0.1000
42     C42    -0.0428  -11.4551    5.4889 C.ar     1 ZINC000049888891   -0.0900
43     C43     0.2390  -10.1350    5.7868 C.ar     1 ZINC000049888891   -0.1100
44     C44     0.0570   -9.1560    4.8280 C.ar     1 ZINC000049888891   -0.0800
45     C45    -2.2149   -5.7769    1.6033 C.2      1 ZINC000049888891    0.5600
46     O46    -1.9508   -5.3593    2.7158 O.2      1 ZINC000049888891   -0.4800
47     C47    -1.1018   -2.7707    0.8199 C.ar     1 ZINC000049888891    0.0900
48     F48     0.0254   -3.5137    0.7678 F        1 ZINC000049888891   -0.1300
49     H49     1.2253    0.9644    1.4348 H        1 ZINC000049888891    0.1100
50     H50    -0.2792    1.1026    0.4936 H        1 ZINC000049888891    0.0600
51     H51    -0.3508    0.8572    2.2551 H        1 ZINC000049888891    0.0600
52     H52    -2.1181    0.4293    1.2144 H        1 ZINC000049888891    0.1400
53     H53    -4.3170   -0.6462    0.9748 H        1 ZINC000049888891    0.1400
54     H54    -4.4749   -3.0766    0.6413 H        1 ZINC000049888891    0.1400
55     H55    -2.9007   -3.4160   -1.5859 H        1 ZINC000049888891    0.1100
56     H56    -2.2139   -4.6437   -2.6765 H        1 ZINC000049888891    0.1000
57     H57    -3.9591   -4.6405   -2.3266 H        1 ZINC000049888891    0.1000
58     H58    -3.6372   -8.2320   -2.0915 H        1 ZINC000049888891    0.1400
59     H59    -3.7732   -6.5845   -2.7515 H        1 ZINC000049888891    0.1300
60     H60     1.4879   -7.0773   -2.6886 H        1 ZINC000049888891    0.1500
61     H61     1.4042   -8.0059   -4.9669 H        1 ZINC000049888891    0.1600
62     H62    -0.7618   -8.5974   -5.9772 H        1 ZINC000049888891    0.1600
63     H63    -2.3997   -7.5947    3.4089 H        1 ZINC000049888891    0.1500
64     H64    -2.6948   -8.9489    2.2920 H        1 ZINC000049888891    0.1300
65     H65     1.7874   -8.2525    1.4692 H        1 ZINC000049888891    0.1300
66     H66     1.4919   -9.9203    2.0162 H        1 ZINC000049888891    0.1300
67     H67     1.1915  -10.6391   -0.3379 H        1 ZINC000049888891    0.0800
68     H68     1.4870   -8.9713   -0.8848 H        1 ZINC000049888891    0.0800
69     H69     3.7471   -9.0379    0.1331 H        1 ZINC000049888891    0.0700
70     H70     3.4515  -10.7057    0.6801 H        1 ZINC000049888891    0.0700
71     H71    -1.0613  -11.0824    2.2949 H        1 ZINC000049888891    0.1200
72     H72    -0.7303  -12.8271    4.0006 H        1 ZINC000049888891    0.1400
73     H73     0.1019  -12.2203    6.2372 H        1 ZINC000049888891    0.1400
74     H74     0.6038   -9.8688    6.7679 H        1 ZINC000049888891    0.1400
75     H75     0.2772   -8.1246    5.0607 H        1 ZINC000049888891    0.1400
@<TRIPOS>BOND
1     1     2     1
2     1     49    1
3     1     50    1
4     1     51    1
5     2     3     1
6     3     47    ar
7     3     4     ar
8     4     5     ar
9     4     52    1
10    5     6     ar
11    5     53    1
12    6     7     ar
13    6     54    1
14    7     8     1
15    7     47    ar
16    8     45    1
17    8     9     2
18    9     10    1
19    9     11    1
20    10    55    1
21    10    56    1
22    10    57    1
23    11    12    1
24    11    24    am
25    12    13    1
26    12    58    1
27    12    59    1
28    13    19    ar
29    13    14    ar
30    14    15    1
31    14    16    ar
32    16    17    ar
33    16    60    1
34    17    18    ar
35    17    61    1
36    18    19    ar
37    18    62    1
38    19    20    1
39    20    21    1
40    20    22    1
41    20    23    1
42    24    25    2
43    24    26    am
44    26    27    1
45    26    45    am
46    27    28    1
47    27    63    1
48    27    64    1
49    28    29    1
50    28    30    1
51    28    39    1
52    30    31    1
53    30    32    1
54    30    33    1
55    33    34    1
56    33    65    1
57    33    66    1
58    34    35    1
59    34    67    1
60    34    68    1
61    35    36    1
62    35    69    1
63    35    70    1
64    36    37    ar
65    36    38    ar
66    39    44    ar
67    39    40    ar
68    40    41    ar
69    40    71    1
70    41    42    ar
71    41    72    1
72    42    43    ar
73    42    73    1
74    43    44    ar
75    43    74    1
76    44    75    1
77    45    46    2
78    47    48    1
@<TRIPOS>SUBSTRUCTURE
1   ZINC000049888891 1     RESIDUE    1   A     ZIN   1
