@<TRIPOS>MOLECULE
ZINC000000155006
  33   34    0    0    0
SMALL
USER_CHARGES
NO_NAME
@<TRIPOS>ATOM
    1 C1       -0.0178     1.4647     0.0147 C.3    1 <0>      -0.0600
    2 N2        0.0019    -0.0039    -0.0093 N.4    1 <0>      -0.2700
    3 C3       -1.3769    -0.5105    -0.0064 C.3    1 <0>      -0.0500
    4 C4        0.6856    -0.4627    -1.2251 C.3    1 <0>      -0.0200
    5 C5        2.0858     0.1564    -1.2870 C.3    1 <0>       0.1000
    6 N6        2.7922    -0.1619    -0.0364 N.pl3  1 <0>      -0.6400
    7 C7        4.0757    -0.7124    -0.0566 C.ar   1 <0>       0.2000
    8 C8        4.6601    -1.0716    -1.2646 C.ar   1 <0>      -0.1900
    9 C9        5.9296    -1.6152    -1.2810 C.ar   1 <0>      -0.0700
   10 C10       6.6186    -1.8025    -0.0968 C.ar   1 <0>      -0.1600
   11 C11       6.0397    -1.4461     1.1075 C.ar   1 <0>      -0.0700
   12 C12       4.7729    -0.8967     1.1306 C.ar   1 <0>      -0.1900
   13 C13       2.1081     0.1156     1.2360 C.3    1 <0>       0.1000
   14 C14       0.7068    -0.5016     1.1788 C.3    1 <0>      -0.0200
   15 H15       1.0049     1.8419     0.0158 H      1 <0>       0.1200
   16 H16      -0.5408     1.8355    -0.8669 H      1 <0>       0.1200
   17 H17      -0.5321     1.8066     0.9128 H      1 <0>       0.1200
   18 H18      -1.9023    -0.1392    -0.8863 H      1 <0>       0.1200
   19 H19      -1.3637    -1.6003    -0.0241 H      1 <0>       0.1200
   20 H20      -1.8880    -0.1680     0.8934 H      1 <0>       0.1200
   21 H21       0.7691    -1.5494    -1.2070 H      1 <0>       0.1300
   22 H22       0.1138    -0.1566    -2.1011 H      1 <0>       0.1400
   23 H23       2.6332    -0.2596    -2.1329 H      1 <0>       0.1300
   24 H24       2.0037     1.2378    -1.3962 H      1 <0>       0.0900
   25 H25       4.1222    -0.9262    -2.1897 H      1 <0>       0.1200
   26 H26       6.3845    -1.8947    -2.2198 H      1 <0>       0.1300
   27 H27       7.6109    -2.2285    -0.1124 H      1 <0>       0.1300
   28 H28       6.5806    -1.5937     2.0305 H      1 <0>       0.1300
   29 H29       4.3215    -0.6182     2.0714 H      1 <0>       0.1200
   30 H30       2.6701    -0.3274     2.0582 H      1 <0>       0.1300
   31 H31       2.0282     1.1928     1.3816 H      1 <0>       0.0900
   32 H32       0.1506    -0.2241     2.0742 H      1 <0>       0.1400
   33 H33       0.7897    -1.5871     1.1242 H      1 <0>       0.1300
@<TRIPOS>BOND
   1    1    2 1
   2    1   15 1
   3    1   16 1
   4    1   17 1
   5    2   14 1
   6    2    3 1
   7    2    4 1
   8    3   18 1
   9    3   19 1
  10    3   20 1
  11    4    5 1
  12    4   21 1
  13    4   22 1
  14    5    6 1
  15    5   23 1
  16    5   24 1
  17    6    7 1
  18    6   13 1
  19    7   12 ar
  20    7    8 ar
  21    8    9 ar
  22    8   25 1
  23    9   10 ar
  24    9   26 1
  25   10   11 ar
  26   10   27 1
  27   11   12 ar
  28   11   28 1
  29   12   29 1
  30   13   14 1
  31   13   30 1
  32   13   31 1
  33   14   32 1
  34   14   33 1
