@<TRIPOS>MOLECULE
ZINC000100030312
92    93    1     0     0
SMALL
USER_CHARGES
@<TRIPOS>ATOM
1      C1     -0.0290    1.4222    0.0280 C.3      1 ZINC000100030312    0.0300
2      O2      0.0001   -0.0064    0.0148 O.3      1 ZINC000100030312   -0.3600
3      C3      0.6577   -0.5655   -1.1289 C.3      1 ZINC000100030312    0.1200
4      H4      0.5320    0.1128   -1.9685 H        1 ZINC000100030312    0.1000
5      C5      2.1223   -0.7350   -0.8079 C.2      1 ZINC000100030312   -0.1400
6      C6      3.0534   -0.2202   -1.6262 C.2      1 ZINC000100030312   -0.1300
7      C7      2.6322    0.4664   -2.8351 C.2      1 ZINC000100030312   -0.0400
8      C8      3.3241    1.4486   -3.4542 C.2      1 ZINC000100030312   -0.1700
9      C9      4.6321    1.9663   -2.9164 C.3      1 ZINC000100030312   -0.1200
10     C10     2.7456    1.9797   -4.6801 C.2      1 ZINC000100030312    0.5600
11     O11     1.9255    1.2673   -5.2390 O.2      1 ZINC000100030312   -0.5000
12     N12     3.0353    3.1610   -5.2460 N.am     1 ZINC000100030312   -0.6600
13     C13     2.0320    3.7440   -6.0083 C.2      1 ZINC000100030312    0.1700
14     C14     2.3181    4.6219   -6.9910 C.2      1 ZINC000100030312   -0.2500
15     C15     1.2205    5.1600   -7.8000 C.2      1 ZINC000100030312    0.4300
16     O16     1.4381    6.0185   -8.6335 O.2      1 ZINC000100030312   -0.4200
17     C17    -0.1602    4.6368   -7.6039 C.2      1 ZINC000100030312    0.1900
18     N18    -1.1674    5.0395   -8.4478 N.pl3    1 ZINC000100030312   -0.6900
19     C19    -0.8807    5.9793   -9.5344 C.3      1 ZINC000100030312    0.1200
20     C20    -2.1645    6.2603  -10.3178 C.3      1 ZINC000100030312    0.0400
21     N21    -1.8770    7.2027  -11.4073 N.3      1 ZINC000100030312   -0.5400
22     C22    -3.0210    7.3147  -12.3221 C.3      1 ZINC000100030312    0.0200
23     C23    -1.4955    8.5189  -10.8780 C.3      1 ZINC000100030312    0.0200
24     C24    -0.4287    3.7701   -6.5853 C.2      1 ZINC000100030312   -0.2800
25     C25    -1.8238    3.2332   -6.4501 C.3      1 ZINC000100030312   -0.0500
26     C26    -2.1253    2.6387   -5.0771 C.3      1 ZINC000100030312   -0.0900
27     H27    -1.3184    2.0022   -4.7422 H        1 ZINC000100030312    0.1100
28     C28    -2.3694    3.7690   -4.0720 C.3      1 ZINC000100030312   -0.1300
29     C29    -3.3994    1.7883   -5.1599 C.3      1 ZINC000100030312   -0.1400
30     C30    -3.0830    0.3287   -4.8011 C.3      1 ZINC000100030312    0.1000
31     H31    -2.0092    0.2200   -4.7036 H        1 ZINC000100030312    0.0800
32     O32    -3.5527   -0.4808   -5.8834 O.3      1 ZINC000100030312   -0.3800
33     C33    -2.5816   -0.7016   -6.9082 C.3      1 ZINC000100030312    0.0300
34     C34    -3.7834   -0.0352   -3.5014 C.3      1 ZINC000100030312    0.1300
35     H35    -4.8726    0.0634   -3.6590 H        1 ZINC000100030312    0.0600
36     O36    -3.4195    0.9262   -2.4961 O.3      1 ZINC000100030312   -0.5500
37     C37    -3.4991   -1.4278   -2.9729 C.3      1 ZINC000100030312   -0.0800
38     H38    -4.3352   -1.6210   -2.2355 H        1 ZINC000100030312    0.0600
39     C39    -3.6495   -2.5287   -4.0063 C.3      1 ZINC000100030312   -0.1400
40     C40    -2.2534   -1.5247   -2.1577 C.2      1 ZINC000100030312   -0.1100
41     C41    -1.0320   -1.7563   -2.5236 C.2      1 ZINC000100030312   -0.1400
42     C42    -0.5907   -1.9160   -3.9549 C.3      1 ZINC000100030312   -0.1300
43     C43     0.0319   -1.9182   -1.4509 C.3      1 ZINC000100030312    0.1500
44     H44     0.7996   -2.5982   -1.8240 H        1 ZINC000100030312    0.1000
45     O45    -0.5674   -2.4798   -0.2560 O.3      1 ZINC000100030312   -0.3400
46     C46    -0.5837   -3.8222   -0.1534 C.2      1 ZINC000100030312    0.6500
47     N47    -1.1261   -4.4085    0.9322 N.am     1 ZINC000100030312   -0.8300
48     O48    -0.1095   -4.5050   -1.0396 O.2      1 ZINC000100030312   -0.5700
49     C49     0.6156    3.3923   -5.7106 C.2      1 ZINC000100030312    0.4400
50     O50     0.3801    2.8171   -4.6661 O.2      1 ZINC000100030312   -0.4200
51     H51     0.9910    1.8065    0.0237 H        1 ZINC000100030312    0.0400
52     H52    -0.5569    1.7830   -0.8548 H        1 ZINC000100030312    0.0500
53     H53    -0.5434    1.7669    0.9250 H        1 ZINC000100030312    0.0900
54     H54     2.4220   -1.2759    0.0834 H        1 ZINC000100030312    0.1300
55     H55     4.1079   -0.3294   -1.3892 H        1 ZINC000100030312    0.1300
56     H56     1.7009    0.1549   -3.2991 H        1 ZINC000100030312    0.1300
57     H57     4.8861    1.4313   -2.0014 H        1 ZINC000100030312    0.0800
58     H58     5.4164    1.8115   -3.6574 H        1 ZINC000100030312    0.0700
59     H59     4.5406    3.0310   -2.7013 H        1 ZINC000100030312    0.0700
60     H60     3.9096    3.5895   -5.1410 H        1 ZINC000100030312    0.4200
61     H61     3.3381    4.9211   -7.1783 H        1 ZINC000100030312    0.1600
62     H62    -2.0681    4.7014   -8.3240 H        1 ZINC000100030312    0.4100
63     H63    -0.4982    6.9110   -9.1175 H        1 ZINC000100030312    0.0800
64     H64    -0.1352    5.5468  -10.2017 H        1 ZINC000100030312    0.0900
65     H65    -2.5470    5.3286  -10.7347 H        1 ZINC000100030312    0.0800
66     H66    -2.9100    6.6928   -9.6505 H        1 ZINC000100030312    0.0400
67     H67    -3.8922    7.6711  -11.7725 H        1 ZINC000100030312    0.0300
68     H68    -2.7813    8.0185  -13.1192 H        1 ZINC000100030312    0.0700
69     H69    -3.2382    6.3375  -12.7535 H        1 ZINC000100030312    0.0700
70     H70    -0.6038    8.4172  -10.2595 H        1 ZINC000100030312    0.0700
71     H71    -1.2882    9.1972  -11.7057 H        1 ZINC000100030312    0.0700
72     H72    -2.3115    8.9189  -10.2761 H        1 ZINC000100030312    0.0300
73     H73    -2.5445    4.0396   -6.6432 H        1 ZINC000100030312    0.0600
74     H74    -1.9816    2.4566   -7.2097 H        1 ZINC000100030312    0.0600
75     H75    -3.2167    4.3708   -4.4008 H        1 ZINC000100030312    0.0400
76     H76    -2.5846    3.3434   -3.0919 H        1 ZINC000100030312    0.0600
77     H77    -1.4807    4.3969   -4.0084 H        1 ZINC000100030312    0.0400
78     H78    -4.1422    2.1791   -4.4688 H        1 ZINC000100030312    0.0700
79     H79    -3.7890    1.8292   -6.1782 H        1 ZINC000100030312    0.0700
80     H80    -2.2760    0.2553   -7.3313 H        1 ZINC000100030312    0.0400
81     H81    -1.7131   -1.2050   -6.4833 H        1 ZINC000100030312    0.0400
82     H82    -3.0149   -1.3234   -7.6915 H        1 ZINC000100030312    0.0900
83     H83    -3.8254    0.7657   -1.6332 H        1 ZINC000100030312    0.3800
84     H84    -3.0220   -2.3053   -4.8691 H        1 ZINC000100030312    0.0700
85     H85    -3.3433   -3.4800   -3.5710 H        1 ZINC000100030312    0.0500
86     H86    -4.6911   -2.5917   -4.3211 H        1 ZINC000100030312    0.0600
87     H87    -2.3817   -1.3731   -1.0664 H        1 ZINC000100030312    0.1100
88     H88    -1.4311   -1.7139   -4.6189 H        1 ZINC000100030312    0.0700
89     H89     0.2165   -1.2147   -4.1666 H        1 ZINC000100030312    0.0700
90     H90    -0.2380   -2.9349   -4.1149 H        1 ZINC000100030312    0.0700
91     H91    -1.5047   -3.8634    1.6396 H        1 ZINC000100030312    0.4100
92     H92    -1.1379   -5.3756    1.0061 H        1 ZINC000100030312    0.4200
@<TRIPOS>BOND
1     1     2     1
2     1     51    1
3     1     52    1
4     1     53    1
5     2     3     1
6     3     4     1
7     3     43    1
8     3     5     1
9     5     6     2
10    5     54    1
11    6     7     1
12    6     55    1
13    7     8     2
14    7     56    1
15    8     9     1
16    8     10    1
17    9     57    1
18    9     58    1
19    9     59    1
20    10    11    2
21    10    12    am
22    12    13    1
23    12    60    1
24    13    49    1
25    13    14    2
26    14    15    1
27    14    61    1
28    15    16    2
29    15    17    1
30    17    18    1
31    17    24    2
32    18    19    1
33    18    62    1
34    19    20    1
35    19    63    1
36    19    64    1
37    20    21    1
38    20    65    1
39    20    66    1
40    21    22    1
41    21    23    1
42    22    67    1
43    22    68    1
44    22    69    1
45    23    70    1
46    23    71    1
47    23    72    1
48    24    25    1
49    24    49    1
50    25    26    1
51    25    73    1
52    25    74    1
53    26    27    1
54    26    28    1
55    26    29    1
56    28    75    1
57    28    76    1
58    28    77    1
59    29    30    1
60    29    78    1
61    29    79    1
62    30    31    1
63    30    32    1
64    30    34    1
65    32    33    1
66    33    80    1
67    33    81    1
68    33    82    1
69    34    35    1
70    34    36    1
71    34    37    1
72    36    83    1
73    37    38    1
74    37    39    1
75    37    40    1
76    39    84    1
77    39    85    1
78    39    86    1
79    40    41    2
80    40    87    1
81    41    42    1
82    41    43    1
83    42    88    1
84    42    89    1
85    42    90    1
86    43    44    1
87    43    45    1
88    45    46    1
89    46    47    am
90    46    48    2
91    47    91    1
92    47    92    1
93    49    50    2
@<TRIPOS>SUBSTRUCTURE
1   ZINC000100030312 1     RESIDUE    1   A     ZIN   1
