@<TRIPOS>MOLECULE
ZINC000000004753
45    46    1     0     0
SMALL
USER_CHARGES
@<TRIPOS>ATOM
1      C1     -0.2348    1.7525    0.2011 C.3      1 ZINC000000004753   -0.1400
2      C2     -0.1864    0.2300    0.0582 C.3      1 ZINC000000004753    0.0900
3      H3     -1.1985   -0.1718    0.1060 H        1 ZINC000000004753    0.0600
4      C4      0.4447   -0.1363   -1.2866 C.3      1 ZINC000000004753    0.0600
5      O5      1.7257    0.4874   -1.3973 O.3      1 ZINC000000004753   -0.2900
6      C6      2.4247    0.2625   -2.5408 C.ar     1 ZINC000000004753    0.1300
7      C7      1.8864   -0.5374   -3.5383 C.ar     1 ZINC000000004753   -0.2100
8      C8      2.5987   -0.7642   -4.6999 C.ar     1 ZINC000000004753   -0.0800
9      C9      3.8475   -0.1952   -4.8687 C.ar     1 ZINC000000004753   -0.1600
10     C10     4.3865    0.6020   -3.8759 C.ar     1 ZINC000000004753   -0.0800
11     C11     3.6754    0.8369   -2.7150 C.ar     1 ZINC000000004753   -0.1500
12     N12     0.6182   -0.3387    1.1478 N.3      1 ZINC000000004753   -0.6600
13     C13    -0.1962   -0.5409    2.3535 C.3      1 ZINC000000004753    0.0600
14     H14    -0.9345    0.2572    2.4312 H        1 ZINC000000004753    0.0900
15     C15    -0.9115   -1.8905    2.2654 C.3      1 ZINC000000004753    0.0500
16     O16     0.0549   -2.9431    2.2713 O.3      1 ZINC000000004753   -0.5700
17     C17     0.7071   -0.5221    3.5882 C.3      1 ZINC000000004753    0.1600
18     H18     1.4681   -1.2967    3.4935 H        1 ZINC000000004753    0.1100
19     O19    -0.0783   -0.7663    4.7568 O.3      1 ZINC000000004753   -0.5500
20     C20     1.3730    0.8250    3.7030 C.ar     1 ZINC000000004753   -0.1000
21     C21     0.7204    1.8670    4.3348 C.ar     1 ZINC000000004753   -0.1200
22     C22     1.3312    3.1026    4.4400 C.ar     1 ZINC000000004753   -0.1200
23     C23     2.5948    3.2960    3.9139 C.ar     1 ZINC000000004753   -0.1200
24     C24     3.2478    2.2537    3.2829 C.ar     1 ZINC000000004753   -0.1200
25     C25     2.6387    1.0170    3.1814 C.ar     1 ZINC000000004753   -0.0800
26     H26     0.7773    2.1543    0.1533 H        1 ZINC000000004753    0.0700
27     H27    -0.8318    2.1745   -0.6074 H        1 ZINC000000004753    0.0500
28     H28    -0.6844    2.0134    1.1591 H        1 ZINC000000004753    0.0500
29     H29     0.5606   -1.2182   -1.3509 H        1 ZINC000000004753    0.0600
30     H30    -0.1986    0.2090   -2.0959 H        1 ZINC000000004753    0.0700
31     H31     0.9113   -0.9827   -3.4066 H        1 ZINC000000004753    0.1200
32     H32     2.1801   -1.3868   -5.4767 H        1 ZINC000000004753    0.1200
33     H33     4.4030   -0.3740   -5.7775 H        1 ZINC000000004753    0.1200
34     H34     5.3622    1.0451   -4.0099 H        1 ZINC000000004753    0.1300
35     H35     4.0968    1.4597   -1.9397 H        1 ZINC000000004753    0.1300
36     H36     1.0588   -1.1998    0.8605 H        1 ZINC000000004753    0.3500
37     H37    -1.5784   -2.0048    3.1200 H        1 ZINC000000004753    0.0600
38     H38    -1.4915   -1.9349    1.3436 H        1 ZINC000000004753    0.0400
39     H39    -0.3283   -3.8293    2.2177 H        1 ZINC000000004753    0.3800
40     H40    -0.8350   -0.1720    4.8534 H        1 ZINC000000004753    0.3700
41     H41    -0.2668    1.7159    4.7458 H        1 ZINC000000004753    0.1100
42     H42     0.8211    3.9169    4.9330 H        1 ZINC000000004753    0.1200
43     H43     3.0717    4.2616    3.9955 H        1 ZINC000000004753    0.1200
44     H44     4.2349    2.4050    2.8716 H        1 ZINC000000004753    0.1200
45     H45     3.1489    0.2026    2.6885 H        1 ZINC000000004753    0.1200
@<TRIPOS>BOND
1     1     2     1
2     1     26    1
3     1     27    1
4     1     28    1
5     2     3     1
6     2     4     1
7     2     12    1
8     4     5     1
9     4     29    1
10    4     30    1
11    5     6     1
12    6     11    ar
13    6     7     ar
14    7     8     ar
15    7     31    1
16    8     9     ar
17    8     32    1
18    9     10    ar
19    9     33    1
20    10    11    ar
21    10    34    1
22    11    35    1
23    12    13    1
24    12    36    1
25    13    14    1
26    13    15    1
27    13    17    1
28    15    16    1
29    15    37    1
30    15    38    1
31    16    39    1
32    17    18    1
33    17    19    1
34    17    20    1
35    19    40    1
36    20    25    ar
37    20    21    ar
38    21    22    ar
39    21    41    1
40    22    23    ar
41    22    42    1
42    23    24    ar
43    23    43    1
44    24    25    ar
45    24    44    1
46    25    45    1
@<TRIPOS>SUBSTRUCTURE
1   ZINC000000004753 1     RESIDUE    1   A     ZIN   1
