@<TRIPOS>MOLECULE
ZINC000043100782
65    68    1     0     0
SMALL
USER_CHARGES
@<TRIPOS>ATOM
1      N1     -0.0160    1.3285    0.0093 N.pl3    1 ZINC000043100782   -0.7700
2      C2      0.0021   -0.0041    0.0020 C.cat    1 ZINC000043100782    0.6100
3      N3      1.1651   -0.6546   -0.0126 N.pl3    1 ZINC000043100782   -0.7600
4      H4      1.9985   -0.1583   -0.0179 H        1 ZINC000043100782    0.4300
5      H5      1.1783   -1.6245   -0.0179 H        1 ZINC000043100782    0.4500
6      C6     -1.2669   -0.7599    0.0101 C.ar     1 ZINC000043100782   -0.1700
7      C7     -2.4010   -0.2151    0.6258 C.ar     1 ZINC000043100782   -0.0800
8      C8     -3.5776   -0.9012    0.6401 C.ar     1 ZINC000043100782   -0.0600
9      C9     -3.6624   -2.1627    0.0362 C.ar     1 ZINC000043100782    0.1200
10     N10    -4.6653   -3.0523   -0.1032 N.2      1 ZINC000043100782   -0.4700
11     C11    -4.2375   -4.1058   -0.7583 C.2      1 ZINC000043100782    0.4100
12     C12    -5.0581   -5.2859   -1.0984 C.ar     1 ZINC000043100782   -0.1000
13     C13    -4.4928   -6.3547   -1.7966 C.ar     1 ZINC000043100782   -0.0500
14     C14    -5.2587   -7.4579   -2.1144 C.ar     1 ZINC000043100782   -0.0400
15     C15    -4.6400   -8.6071   -2.8678 C.3      1 ZINC000043100782   -0.1100
16     C16    -4.0669   -9.5992   -1.8888 C.2      1 ZINC000043100782    0.5200
17     O17    -4.1525   -9.3933   -0.6967 O.2      1 ZINC000043100782   -0.5600
18     N18    -3.4593  -10.7152   -2.3380 N.am     1 ZINC000043100782   -0.6600
19     C19    -2.9022  -11.6796   -1.3863 C.3      1 ZINC000043100782    0.1100
20     H20    -3.5329  -11.7194   -0.4982 H        1 ZINC000043100782    0.0800
21     C21    -2.8479  -13.0638   -2.0357 C.3      1 ZINC000043100782   -0.1800
22     C22    -4.2491  -13.5431   -2.3149 C.2      1 ZINC000043100782    0.4900
23     O23    -5.2028  -12.8425   -2.0215 O.co2    1 ZINC000043100782   -0.6900
24     O24    -4.4291  -14.6315   -2.8340 O.co2    1 ZINC000043100782   -0.7200
25     C25    -1.5107  -11.2531   -0.9955 C.2      1 ZINC000043100782    0.4900
26     O26    -1.0289  -10.2377   -1.4681 O.co2    1 ZINC000043100782   -0.7100
27     O27    -0.8666  -11.9235   -0.2066 O.co2    1 ZINC000043100782   -0.7100
28     C28    -6.5893   -7.5156   -1.7456 C.ar     1 ZINC000043100782   -0.0300
29     C29    -7.1706   -6.4587   -1.0485 C.ar     1 ZINC000043100782   -0.0700
30     C30    -8.5987   -6.5243   -0.6546 C.ar     1 ZINC000043100782   -0.0900
31     C31    -9.0278   -7.4787    0.2645 C.ar     1 ZINC000043100782    0.0100
32     C32   -10.3583   -7.5353    0.6284 C.ar     1 ZINC000043100782   -0.6900
33     S33   -10.8998   -8.7433    1.7912 S.o2     1 ZINC000043100782    2.7000
34     N34   -10.7701   -8.0668    3.2972 N.am     1 ZINC000043100782   -1.2500
35     O35   -12.2880   -8.9337    1.5550 O.2      1 ZINC000043100782   -0.9600
36     O36    -9.9511   -9.8002    1.7430 O.2      1 ZINC000043100782   -0.9400
37     C37   -11.2679   -6.6467    0.0837 C.ar     1 ZINC000043100782    0.0000
38     C38   -10.8527   -5.6953   -0.8294 C.ar     1 ZINC000043100782   -0.1700
39     C39    -9.5198   -5.6242   -1.1998 C.ar     1 ZINC000043100782    0.2000
40     O40    -9.1105   -4.6894   -2.0967 O.3      1 ZINC000043100782   -0.4900
41     C41    -6.4033   -5.3393   -0.7170 C.ar     1 ZINC000043100782    0.1800
42     O42    -6.9618   -4.3058   -0.0377 O.3      1 ZINC000043100782   -0.4800
43     N43    -2.9173   -3.9464   -1.0793 N.pl3    1 ZINC000043100782   -0.5900
44     C44    -2.5254   -2.7157   -0.5844 C.ar     1 ZINC000043100782    0.0300
45     C45    -1.3349   -2.0116   -0.6002 C.ar     1 ZINC000043100782   -0.0200
46     H46     0.8174    1.8249    0.0041 H        1 ZINC000043100782    0.4300
47     H47    -0.8625    1.8020    0.0159 H        1 ZINC000043100782    0.4500
48     H48    -2.3420    0.7567    1.0933 H        1 ZINC000043100782    0.1400
49     H49    -4.4462   -0.4725    1.1177 H        1 ZINC000043100782    0.1500
50     H50    -3.4538   -6.3179   -2.0891 H        1 ZINC000043100782    0.1300
51     H51    -5.4018   -9.0952   -3.4757 H        1 ZINC000043100782    0.1100
52     H52    -3.8452   -8.2327   -3.5129 H        1 ZINC000043100782    0.1000
53     H53    -3.3909  -10.8798   -3.2915 H        1 ZINC000043100782    0.3800
54     H54    -2.2910  -13.0048   -2.9709 H        1 ZINC000043100782    0.0500
55     H55    -2.3525  -13.7624   -1.3614 H        1 ZINC000043100782    0.0700
56     H56    -7.1808   -8.3830   -1.9990 H        1 ZINC000043100782    0.1400
57     H57    -8.3204   -8.1740    0.6918 H        1 ZINC000043100782    0.1500
58     H58   -11.3765   -8.3373    4.0042 H        1 ZINC000043100782    0.4200
59     H59   -10.0877   -7.4000    3.4722 H        1 ZINC000043100782    0.4200
60     H60   -12.3073   -6.6966    0.3728 H        1 ZINC000043100782    0.1500
61     H61   -11.5674   -5.0043   -1.2513 H        1 ZINC000043100782    0.1400
62     H62    -8.8387   -3.8523   -1.6961 H        1 ZINC000043100782    0.4000
63     H63    -6.8984   -4.3871    0.9238 H        1 ZINC000043100782    0.3900
64     H64    -2.3612   -4.5772   -1.5628 H        1 ZINC000043100782    0.4400
65     H65    -0.4624   -2.4304   -1.0796 H        1 ZINC000043100782    0.1400
@<TRIPOS>BOND
1     1     2     ar
2     1     46    1
3     1     47    1
4     2     3     ar
5     2     6     1
6     3     4     1
7     3     5     1
8     6     45    ar
9     6     7     ar
10    7     8     ar
11    7     48    1
12    8     9     ar
13    8     49    1
14    9     44    ar
15    9     10    1
16    10    11    2
17    11    12    1
18    11    43    1
19    12    41    ar
20    12    13    ar
21    13    14    ar
22    13    50    1
23    14    15    1
24    14    28    ar
25    15    16    1
26    15    51    1
27    15    52    1
28    16    17    2
29    16    18    am
30    18    19    1
31    18    53    1
32    19    20    1
33    19    21    1
34    19    25    1
35    21    22    1
36    21    54    1
37    21    55    1
38    22    23    ar
39    22    24    ar
40    25    26    ar
41    25    27    ar
42    28    29    ar
43    28    56    1
44    29    30    1
45    29    41    ar
46    30    39    ar
47    30    31    ar
48    31    32    ar
49    31    57    1
50    32    33    1
51    32    37    ar
52    33    34    am
53    33    35    2
54    33    36    2
55    34    58    1
56    34    59    1
57    37    38    ar
58    37    60    1
59    38    39    ar
60    38    61    1
61    39    40    1
62    40    62    1
63    41    42    1
64    42    63    1
65    43    44    1
66    43    64    1
67    44    45    ar
68    45    65    1
@<TRIPOS>SUBSTRUCTURE
1   ZINC000043100782 1     RESIDUE    1   A     ZIN   1
