@<TRIPOS>MOLECULE
ZINC000000607941
  35   37    0    0    0
SMALL
NO_CHARGES
@<TRIPOS>ATOM
   1 N1             2.5439     1.6489    -0.4409 N.1     
   2 C2             1.4278     1.5699    -0.2444 C.1     
   3 C3            -0.0184     1.4675     0.0102 C.3     
   4 H4            -0.2814     2.0885     0.8666 H       
   5 C5            -0.3769     0.0329     0.3010 C.ar    
   6 C6            -0.2137    -0.9315    -0.6760 C.ar    
   7 C7            -0.5421    -2.2473    -0.4104 C.ar    
   8 C8            -1.0343    -2.5997     0.8348 C.ar    
   9 F9            -1.3553    -3.8859     1.0957 F       
  10 C10           -1.1968    -1.6331     1.8127 C.ar    
  11 C11           -0.8632    -0.3186     1.5464 C.ar    
  12 C12           -0.7768     1.9386    -1.2038 C.ar    
  13 C13           -2.0321     1.4240    -1.4766 C.ar    
  14 Cl14          -2.7311     0.2369    -0.4203 Cl      
  15 C15           -2.7301     1.8547    -2.5893 C.ar    
  16 C16           -2.1703     2.8045    -3.4339 C.ar    
  17 N17           -2.8751     3.2427    -4.5609 N.am    
  18 N18           -2.2367     3.2722    -5.8065 N.2     
  19 C19           -2.8883     3.6792    -6.8609 C.2     
  20 C20           -4.2846     4.0996    -6.7164 C.2     
  21 O21           -4.9159     4.4834    -7.6838 O.2     
  22 N22           -4.8619     4.0556    -5.4978 N.am    
  23 C23           -4.1584     3.6247    -4.4340 C.2     
  24 O24           -4.6883     3.5890    -3.3403 O.2     
  25 C25           -0.9102     3.3189    -3.1580 C.ar    
  26 C26           -0.2191     2.8892    -2.0407 C.ar    
  27 Cl27           1.3559     3.5322    -1.6947 Cl      
  28 H28            0.1702    -0.6563    -1.6472 H       
  29 H29           -0.4153    -3.0004    -1.1741 H       
  30 H30           -1.5809    -1.9067     2.7843 H       
  31 H31           -0.9896     0.4355     2.3092 H       
  32 H32           -3.7098     1.4528    -2.8017 H       
  33 H33           -2.4053     3.7063    -7.8265 H       
  34 H34           -5.7855     4.3315    -5.3887 H       
  35 H35           -0.4724     4.0573    -3.8134 H       
@<TRIPOS>BOND
   1    1    2 3
   2    2    3 1
   3    3    4 1
   4    3    5 1
   5    3   12 1
   6    5   11 ar
   7    5    6 ar
   8    6    7 ar
   9    6   28 1
  10    7    8 ar
  11    7   29 1
  12    8    9 1
  13    8   10 ar
  14   10   11 ar
  15   10   30 1
  16   11   31 1
  17   12   26 ar
  18   12   13 ar
  19   13   14 1
  20   13   15 ar
  21   15   16 ar
  22   15   32 1
  23   16   17 1
  24   16   25 ar
  25   17   23 am
  26   17   18 1
  27   18   19 2
  28   19   20 1
  29   19   33 1
  30   20   21 2
  31   20   22 am
  32   22   23 am
  33   22   34 1
  34   23   24 2
  35   25   26 ar
  36   25   35 1
  37   26   27 1
