@<TRIPOS>MOLECULE
ZINC000035862906
53    57    1     0     0
SMALL
USER_CHARGES
@<TRIPOS>ATOM
1      C1     -0.1433    1.4606   -0.1259 C.3      1 ZINC000035862906   -0.1400
2      C2     -0.0420   -0.0411   -0.0514 C.2      1 ZINC000035862906    0.2100
3      C3     -1.1691   -0.7677   -0.0622 C.2      1 ZINC000035862906   -0.3000
4      C4     -2.4057   -0.0847   -0.1309 C.2      1 ZINC000035862906    0.6100
5      O5     -3.1014    0.0166    0.8636 O.2      1 ZINC000035862906   -0.5200
6      N6     -2.8141    0.4541   -1.2968 N.am     1 ZINC000035862906   -0.6100
7      C7     -2.1340    0.3066   -2.5964 C.3      1 ZINC000035862906    0.1000
8      C8     -2.5830    1.5387   -3.4210 C.3      1 ZINC000035862906   -0.1300
9      C9     -4.0598    1.6934   -2.9709 C.3      1 ZINC000035862906   -0.1200
10     C10    -4.0152    1.2809   -1.4844 C.3      1 ZINC000035862906    0.1800
11     H11    -3.9502    2.1686   -0.8552 H        1 ZINC000035862906    0.0900
12     C12    -5.2516    0.4938   -1.1336 C.ar     1 ZINC000035862906   -0.1000
13     C13    -5.3434   -0.8403   -1.4838 C.ar     1 ZINC000035862906   -0.0700
14     C14    -6.4767   -1.5631   -1.1627 C.ar     1 ZINC000035862906   -0.1500
15     C15    -7.5202   -0.9506   -0.4895 C.ar     1 ZINC000035862906    0.1000
16     F16    -8.6283   -1.6564   -0.1747 F        1 ZINC000035862906   -0.1400
17     C17    -7.4268    0.3856   -0.1389 C.ar     1 ZINC000035862906   -0.1500
18     C18    -6.2906    1.1051   -0.4569 C.ar     1 ZINC000035862906   -0.0700
19     C19    -1.1876   -2.2710   -0.0057 C.3      1 ZINC000035862906    0.2900
20     H20    -1.9099   -2.5972    0.7427 H        1 ZINC000035862906    0.1100
21     C21    -1.5792   -2.8192   -1.3537 C.ar     1 ZINC000035862906   -0.0800
22     C22    -0.7499   -2.6308   -2.4434 C.ar     1 ZINC000035862906   -0.0800
23     C23    -1.1079   -3.1332   -3.6805 C.ar     1 ZINC000035862906   -0.1000
24     C24    -2.2964   -3.8248   -3.8285 C.ar     1 ZINC000035862906   -0.0200
25     Cl25   -2.7462   -4.4565   -5.3817 Cl       1 ZINC000035862906   -0.0400
26     C26    -3.1273   -4.0136   -2.7367 C.ar     1 ZINC000035862906   -0.0300
27     Cl27   -4.6194   -4.8816   -2.9207 Cl       1 ZINC000035862906   -0.0400
28     C28    -2.7649   -3.5152   -1.4986 C.ar     1 ZINC000035862906   -0.0800
29     N29     0.1422   -2.7640    0.3530 N.pl3    1 ZINC000035862906   -0.3800
30     N30     0.5326   -4.0449    0.7358 N.2      1 ZINC000035862906   -0.2700
31     C31     1.8257   -4.0329    0.9562 C.2      1 ZINC000035862906    0.0700
32     C32     2.3048   -2.7375    0.7229 C.2      1 ZINC000035862906   -0.2900
33     C33     1.2549   -1.9721    0.3557 C.2      1 ZINC000035862906    0.3100
34     N34     1.2005   -0.6190    0.0195 N.pl3    1 ZINC000035862906   -0.6300
35     H35     0.8570    1.8934   -0.1112 H        1 ZINC000035862906    0.0800
36     H36    -0.6488    1.7454   -1.0487 H        1 ZINC000035862906    0.1000
37     H37    -0.7113    1.8293    0.7282 H        1 ZINC000035862906    0.0900
38     H38    -1.0524    0.3141   -2.4616 H        1 ZINC000035862906    0.0800
39     H39    -2.4495   -0.6140   -3.0874 H        1 ZINC000035862906    0.0700
40     H40    -1.9993    2.4202   -3.1558 H        1 ZINC000035862906    0.0800
41     H41    -2.5195    1.3373   -4.4904 H        1 ZINC000035862906    0.0900
42     H42    -4.3890    2.7270   -3.0771 H        1 ZINC000035862906    0.0900
43     H43    -4.7071    1.0215   -3.5346 H        1 ZINC000035862906    0.0800
44     H44    -4.5294   -1.3179   -2.0089 H        1 ZINC000035862906    0.1200
45     H45    -6.5485   -2.6052   -1.4370 H        1 ZINC000035862906    0.1300
46     H46    -8.2403    0.8644    0.3859 H        1 ZINC000035862906    0.1400
47     H47    -6.2174    2.1473   -0.1832 H        1 ZINC000035862906    0.1300
48     H48     0.1781   -2.0904   -2.3283 H        1 ZINC000035862906    0.1300
49     H49    -0.4597   -2.9853   -4.5316 H        1 ZINC000035862906    0.1500
50     H50    -3.4122   -3.6624   -0.6467 H        1 ZINC000035862906    0.1400
51     H51     2.4207   -4.8792    1.2660 H        1 ZINC000035862906    0.1900
52     H52     3.3294   -2.4099    0.8193 H        1 ZINC000035862906    0.1500
53     H53     2.0069   -0.1086   -0.1536 H        1 ZINC000035862906    0.4300
@<TRIPOS>BOND
1     1     2     1
2     1     35    1
3     1     36    1
4     1     37    1
5     2     34    1
6     2     3     2
7     3     4     1
8     3     19    1
9     4     5     2
10    4     6     am
11    6     10    1
12    6     7     1
13    7     8     1
14    7     38    1
15    7     39    1
16    8     9     1
17    8     40    1
18    8     41    1
19    9     10    1
20    9     42    1
21    9     43    1
22    10    11    1
23    10    12    1
24    12    18    ar
25    12    13    ar
26    13    14    ar
27    13    44    1
28    14    15    ar
29    14    45    1
30    15    16    1
31    15    17    ar
32    17    18    ar
33    17    46    1
34    18    47    1
35    19    20    1
36    19    21    1
37    19    29    1
38    21    28    ar
39    21    22    ar
40    22    23    ar
41    22    48    1
42    23    24    ar
43    23    49    1
44    24    25    1
45    24    26    ar
46    26    27    1
47    26    28    ar
48    28    50    1
49    29    33    1
50    29    30    1
51    30    31    2
52    31    32    1
53    31    51    1
54    32    33    2
55    32    52    1
56    33    34    1
57    34    53    1
@<TRIPOS>SUBSTRUCTURE
1   ZINC000035862906 1     RESIDUE    1   A     ZIN   1
