@<TRIPOS>MOLECULE
ZINC000000009321
34    35    1     0     0
SMALL
USER_CHARGES
@<TRIPOS>ATOM
1      C1      3.2866    1.6823    2.8045 C.3      1 ZINC000000009321    0.0300
2      O2      3.4222    0.2623    2.8891 O.3      1 ZINC000000009321   -0.3100
3      C3      2.3568   -0.4839    2.4954 C.ar     1 ZINC000000009321    0.1500
4      C4      1.2066    0.1388    2.0316 C.ar     1 ZINC000000009321   -0.2200
5      C5      0.1223   -0.6186    1.6304 C.ar     1 ZINC000000009321   -0.0600
6      C6      0.1797   -1.9973    1.6896 C.ar     1 ZINC000000009321   -0.1800
7      C7      1.3287   -2.6263    2.1536 C.ar     1 ZINC000000009321    0.1900
8      N8      1.3870   -4.0219    2.2136 N.am     1 ZINC000000009321   -0.6700
9      C9      2.0913   -4.6255    3.1915 C.2      1 ZINC000000009321    0.5500
10     O10     2.5964   -3.9605    4.0769 O.2      1 ZINC000000009321   -0.5200
11     C11     2.2485   -6.0805    3.1886 C.2      1 ZINC000000009321   -0.2100
12     C12     2.9532   -6.6845    4.1672 C.2      1 ZINC000000009321   -0.0100
13     C13     3.1114   -8.1475    4.1643 C.ar     1 ZINC000000009321   -0.0800
14     C14     2.5371   -8.9143    3.1452 C.ar     1 ZINC000000009321   -0.0900
15     C15     2.6892  -10.2842    3.1490 C.ar     1 ZINC000000009321   -0.1100
16     C16     3.4086  -10.9019    4.1592 C.ar     1 ZINC000000009321   -0.0200
17     Cl17    3.5952  -12.6278    4.1559 Cl       1 ZINC000000009321   -0.0600
18     C18     3.9803  -10.1487    5.1719 C.ar     1 ZINC000000009321   -0.1100
19     C19     3.8416   -8.7773    5.1775 C.ar     1 ZINC000000009321   -0.0800
20     C20     2.4204   -1.8674    2.5515 C.ar     1 ZINC000000009321   -0.1600
21     H21     2.4551    2.0058    3.4306 H        1 ZINC000000009321    0.0600
22     H22     4.2060    2.1562    3.1481 H        1 ZINC000000009321    0.1000
23     H23     3.0951    1.9679    1.7701 H        1 ZINC000000009321    0.0600
24     H24     1.1585    1.2167    1.9845 H        1 ZINC000000009321    0.1300
25     H25    -0.7717   -0.1315    1.2702 H        1 ZINC000000009321    0.1300
26     H26    -0.6689   -2.5868    1.3755 H        1 ZINC000000009321    0.1300
27     H27     0.9207   -4.5558    1.5515 H        1 ZINC000000009321    0.4100
28     H28     1.8003   -6.6705    2.4030 H        1 ZINC000000009321    0.1300
29     H29     3.4015   -6.0944    4.9529 H        1 ZINC000000009321    0.1400
30     H30     1.9754   -8.4342    2.3575 H        1 ZINC000000009321    0.1400
31     H31     2.2464  -10.8776    2.3628 H        1 ZINC000000009321    0.1400
32     H32     4.5397  -10.6368    5.9562 H        1 ZINC000000009321    0.1400
33     H33     4.2877   -8.1914    5.9675 H        1 ZINC000000009321    0.1400
34     H34     3.3146   -2.3537    2.9125 H        1 ZINC000000009321    0.1400
@<TRIPOS>BOND
1     1     2     1
2     1     21    1
3     1     22    1
4     1     23    1
5     2     3     1
6     3     20    ar
7     3     4     ar
8     4     5     ar
9     4     24    1
10    5     6     ar
11    5     25    1
12    6     7     ar
13    6     26    1
14    7     8     1
15    7     20    ar
16    8     9     am
17    8     27    1
18    9     10    2
19    9     11    1
20    11    12    2
21    11    28    1
22    12    13    1
23    12    29    1
24    13    19    ar
25    13    14    ar
26    14    15    ar
27    14    30    1
28    15    16    ar
29    15    31    1
30    16    17    1
31    16    18    ar
32    18    19    ar
33    18    32    1
34    19    33    1
35    20    34    1
@<TRIPOS>SUBSTRUCTURE
1   ZINC000000009321 1     RESIDUE    1   A     ZIN   1
