@<TRIPOS>MOLECULE
ZINC000004217604
55    58    1     0     0
SMALL
USER_CHARGES
@<TRIPOS>ATOM
1      C1     -0.1826   -2.6583    0.1900 C.3      1 ZINC000004217604   -0.1900
2      C2      1.0206   -2.1941   -0.6333 C.3      1 ZINC000004217604    0.0600
3      H3      1.2172   -2.9145   -1.4273 H        1 ZINC000004217604    0.1300
4      O4      2.1672   -2.0940    0.2137 O.3      1 ZINC000004217604   -0.5500
5      C5      0.7247   -0.8465   -1.2395 C.2      1 ZINC000004217604    0.3500
6      O6      1.1004    0.1596   -0.6873 O.2      1 ZINC000004217604   -0.4400
7      C7     -0.0399   -0.7545   -2.5348 C.3      1 ZINC000004217604   -0.1000
8      C8     -1.3793   -1.4837   -2.4111 C.3      1 ZINC000004217604   -0.1400
9      C9     -0.2683    0.7278   -2.9179 C.3      1 ZINC000004217604   -0.1200
10     C10     0.3682    0.9211   -4.3201 C.3      1 ZINC000004217604   -0.1200
11     C11     0.3596   -0.4980   -4.9040 C.3      1 ZINC000004217604   -0.0800
12     H12    -0.6430   -0.7702   -5.2339 H        1 ZINC000004217604    0.0800
13     C13     1.3707   -0.7363   -6.0173 C.3      1 ZINC000004217604   -0.0500
14     H14     2.3557   -0.4203   -5.6738 H        1 ZINC000004217604    0.0900
15     C15     0.9865    0.0843   -7.2371 C.3      1 ZINC000004217604   -0.1100
16     C16     1.7309   -0.3865   -8.4860 C.3      1 ZINC000004217604   -0.1000
17     C17     1.4138   -1.8466   -8.6898 C.2      1 ZINC000004217604    0.0300
18     C18     1.1467   -2.3477   -9.9163 C.2      1 ZINC000004217604   -0.2500
19     C19     0.7631   -3.6905  -10.0738 C.2      1 ZINC000004217604    0.3900
20     O20     0.6762   -4.1596  -11.1909 O.2      1 ZINC000004217604   -0.4700
21     C21     0.4587   -4.5574   -8.8815 C.3      1 ZINC000004217604   -0.1700
22     C22     1.4136   -4.2179   -7.7336 C.3      1 ZINC000004217604   -0.0800
23     C23     1.4068   -2.7229   -7.5189 C.2      1 ZINC000004217604   -0.1300
24     C24     1.4009   -2.2177   -6.2949 C.2      1 ZINC000004217604   -0.0600
25     C25     1.4709   -3.1928   -5.1363 C.3      1 ZINC000004217604   -0.1000
26     C26     0.5046   -2.7792   -4.0154 C.3      1 ZINC000004217604   -0.1100
27     C27     0.7816   -1.3485   -3.6768 C.3      1 ZINC000004217604   -0.0500
28     C28     2.2756   -1.1567   -3.4079 C.3      1 ZINC000004217604   -0.1600
29     H29    -0.4527   -1.8833    0.9074 H        1 ZINC000004217604    0.0600
30     H30    -1.0258   -2.8483   -0.4742 H        1 ZINC000004217604    0.0800
31     H31     0.0734   -3.5738    0.7232 H        1 ZINC000004217604    0.0800
32     H32     2.0632   -1.4691    0.9443 H        1 ZINC000004217604    0.3800
33     H33    -1.9267   -1.0949   -1.5525 H        1 ZINC000004217604    0.0600
34     H34    -1.9643   -1.3253   -3.3171 H        1 ZINC000004217604    0.0700
35     H35    -1.2010   -2.5505   -2.2756 H        1 ZINC000004217604    0.0700
36     H36    -1.3360    0.9434   -2.9588 H        1 ZINC000004217604    0.0700
37     H37     0.2181    1.3807   -2.1931 H        1 ZINC000004217604    0.0800
38     H38    -0.2379    1.5919   -4.9291 H        1 ZINC000004217604    0.0700
39     H39     1.3882    1.2952   -4.2319 H        1 ZINC000004217604    0.0700
40     H40    -0.0863   -0.0088   -7.4055 H        1 ZINC000004217604    0.0700
41     H41     1.2274    1.1312   -7.0523 H        1 ZINC000004217604    0.0800
42     H42     1.3995    0.1874   -9.3514 H        1 ZINC000004217604    0.0900
43     H43     2.8042   -0.2580   -8.3462 H        1 ZINC000004217604    0.0900
44     H44     1.2292   -1.7099  -10.7840 H        1 ZINC000004217604    0.1300
45     H45    -0.5687   -4.3846   -8.5610 H        1 ZINC000004217604    0.1000
46     H46     0.5799   -5.6054   -9.1554 H        1 ZINC000004217604    0.0900
47     H47     1.0835   -4.7191   -6.8236 H        1 ZINC000004217604    0.0900
48     H48     2.4216   -4.5454   -7.9881 H        1 ZINC000004217604    0.0800
49     H49     1.2050   -4.1891   -5.4896 H        1 ZINC000004217604    0.0900
50     H50     2.4878   -3.2117   -4.7444 H        1 ZINC000004217604    0.0900
51     H51    -0.5256   -2.8969   -4.3512 H        1 ZINC000004217604    0.0800
52     H52     0.6796   -3.3906   -3.1302 H        1 ZINC000004217604    0.0700
53     H53     2.8452   -1.4679   -4.2836 H        1 ZINC000004217604    0.0700
54     H54     2.4752   -0.1056   -3.1993 H        1 ZINC000004217604    0.0600
55     H55     2.5706   -1.7600   -2.5494 H        1 ZINC000004217604    0.0600
@<TRIPOS>BOND
1     1     2     1
2     1     29    1
3     1     30    1
4     1     31    1
5     2     3     1
6     2     4     1
7     2     5     1
8     4     32    1
9     5     6     2
10    5     7     1
11    7     27    1
12    7     8     1
13    7     9     1
14    8     33    1
15    8     34    1
16    8     35    1
17    9     10    1
18    9     36    1
19    9     37    1
20    10    11    1
21    10    38    1
22    10    39    1
23    11    12    1
24    11    27    1
25    11    13    1
26    13    14    1
27    13    24    1
28    13    15    1
29    15    16    1
30    15    40    1
31    15    41    1
32    16    17    1
33    16    42    1
34    16    43    1
35    17    23    1
36    17    18    2
37    18    19    1
38    18    44    1
39    19    20    2
40    19    21    1
41    21    22    1
42    21    45    1
43    21    46    1
44    22    23    1
45    22    47    1
46    22    48    1
47    23    24    2
48    24    25    1
49    25    26    1
50    25    49    1
51    25    50    1
52    26    27    1
53    26    51    1
54    26    52    1
55    27    28    1
56    28    53    1
57    28    54    1
58    28    55    1
@<TRIPOS>SUBSTRUCTURE
1   ZINC000004217604 1     RESIDUE    1   A     ZIN   1
