@<TRIPOS>MOLECULE
ZINC000034026954
68    71    1     0     0
SMALL
USER_CHARGES
@<TRIPOS>ATOM
1      C1      1.6282    1.2514   -0.5264 C.3      1 ZINC000034026954    0.0700
2      N2      0.9749   -0.0272   -0.2353 N.am     1 ZINC000034026954   -0.6100
3      C3      1.2752   -0.7362    1.0110 C.3      1 ZINC000034026954    0.1200
4      C4      0.3031   -0.2833    2.1023 C.3      1 ZINC000034026954   -0.1000
5      C5      0.6120   -1.0126    3.3844 C.ar     1 ZINC000034026954   -0.0800
6      C6     -0.0002   -2.2218    3.6564 C.ar     1 ZINC000034026954   -0.0300
7      C7      0.2831   -2.8908    4.8325 C.ar     1 ZINC000034026954   -0.1800
8      C8     -0.3846   -4.2088    5.1293 C.3      1 ZINC000034026954    0.5100
9      F9      0.3968   -5.2522    4.6215 F        1 ZINC000034026954   -0.1700
10     F10    -0.5227   -4.3604    6.5131 F        1 ZINC000034026954   -0.1700
11     F11    -1.6478   -4.2372    4.5286 F        1 ZINC000034026954   -0.1700
12     C12     1.1793   -2.3511    5.7360 C.ar     1 ZINC000034026954   -0.0300
13     C13     1.7918   -1.1421    5.4638 C.ar     1 ZINC000034026954   -0.1800
14     C14     2.7684   -0.5534    6.4491 C.3      1 ZINC000034026954    0.5100
15     F15     2.8893   -1.4059    7.5518 F        1 ZINC000034026954   -0.1700
16     F16     4.0170   -0.4045    5.8358 F        1 ZINC000034026954   -0.1700
17     F17     2.3057    0.6964    6.8743 F        1 ZINC000034026954   -0.1700
18     C18     1.5117   -0.4752    4.2858 C.ar     1 ZINC000034026954   -0.0300
19     C19     0.0977   -0.5512   -1.1142 C.2      1 ZINC000034026954    0.4900
20     O20    -0.5169   -1.5576   -0.8307 O.2      1 ZINC000034026954   -0.5200
21     C21    -0.1195    0.1134   -2.4492 C.3      1 ZINC000034026954    0.1100
22     H22     0.8041    0.5954   -2.7697 H        1 ZINC000034026954    0.1100
23     C23    -1.2085    1.1476   -2.3242 C.ar     1 ZINC000034026954   -0.0800
24     C24    -1.0662    2.3787   -2.9365 C.ar     1 ZINC000034026954   -0.1000
25     C25    -2.0651    3.3273   -2.8218 C.ar     1 ZINC000034026954   -0.1200
26     C26    -3.2067    3.0446   -2.0953 C.ar     1 ZINC000034026954   -0.1100
27     C27    -3.3495    1.8131   -1.4838 C.ar     1 ZINC000034026954   -0.1200
28     C28    -2.3524    0.8629   -1.6020 C.ar     1 ZINC000034026954   -0.1100
29     N29    -0.5144   -0.8963   -3.4403 N.3      1 ZINC000034026954   -0.5000
30     C30    -1.8808   -1.3751   -3.1887 C.3      1 ZINC000034026954    0.0300
31     C31    -2.2823   -2.3636   -4.2859 C.3      1 ZINC000034026954    0.0600
32     N32    -1.3304   -3.4830   -4.3055 N.3      1 ZINC000034026954   -0.5300
33     C33    -1.7253   -4.4927   -5.2967 C.3      1 ZINC000034026954    0.0900
34     C34    -0.8655   -5.7457   -5.1186 C.3      1 ZINC000034026954   -0.1500
35     C35    -1.5760   -7.0379   -4.7107 C.3      1 ZINC000034026954   -0.1700
36     C36    -1.0433   -6.8748   -6.1357 C.3      1 ZINC000034026954   -0.1800
37     C37     0.0360   -3.0042   -4.5571 C.3      1 ZINC000034026954    0.0600
38     C38     0.4375   -2.0157   -3.4599 C.3      1 ZINC000034026954    0.0400
39     H39     2.5081    1.0771   -1.1457 H        1 ZINC000034026954    0.0600
40     H40     0.9333    1.9019   -1.0574 H        1 ZINC000034026954    0.0700
41     H41     1.9294    1.7264    0.4073 H        1 ZINC000034026954    0.0800
42     H42     1.1696   -1.8095    0.8530 H        1 ZINC000034026954    0.0900
43     H43     2.2967   -0.5131    1.3189 H        1 ZINC000034026954    0.0800
44     H44     0.4088    0.7900    2.2603 H        1 ZINC000034026954    0.0800
45     H45    -0.7184   -0.5064    1.7944 H        1 ZINC000034026954    0.0900
46     H46    -0.7001   -2.6437    2.9503 H        1 ZINC000034026954    0.1500
47     H47     1.4006   -2.8737    6.6549 H        1 ZINC000034026954    0.1500
48     H48     1.9903    0.4694    4.0731 H        1 ZINC000034026954    0.1500
49     H49    -0.1743    2.5996   -3.5041 H        1 ZINC000034026954    0.1300
50     H50    -1.9536    4.2894   -3.2996 H        1 ZINC000034026954    0.1300
51     H51    -3.9868    3.7859   -2.0052 H        1 ZINC000034026954    0.1200
52     H52    -4.2412    1.5923   -0.9159 H        1 ZINC000034026954    0.1200
53     H53    -2.4639   -0.0992   -1.1243 H        1 ZINC000034026954    0.1300
54     H54    -1.9192   -1.8723   -2.2194 H        1 ZINC000034026954    0.0800
55     H55    -2.5687   -0.5296   -3.1915 H        1 ZINC000034026954    0.0800
56     H56    -3.2846   -2.7421   -4.0854 H        1 ZINC000034026954    0.0800
57     H57    -2.2703   -1.8591   -5.2521 H        1 ZINC000034026954    0.0400
58     H58    -2.7752   -4.7494   -5.1554 H        1 ZINC000034026954    0.0800
59     H59    -1.5810   -4.0926   -6.3002 H        1 ZINC000034026954    0.0400
60     H60     0.1366   -5.5762   -4.7249 H        1 ZINC000034026954    0.1100
61     H61    -1.0414   -7.7187   -4.0484 H        1 ZINC000034026954    0.0900
62     H62    -2.6560   -6.9954   -4.5692 H        1 ZINC000034026954    0.0900
63     H63    -1.7728   -6.7250   -6.9316 H        1 ZINC000034026954    0.0900
64     H64    -0.1582   -7.4484   -6.4108 H        1 ZINC000034026954    0.0900
65     H65     0.7239   -3.8497   -4.5543 H        1 ZINC000034026954    0.0800
66     H66     0.0744   -2.5070   -5.5264 H        1 ZINC000034026954    0.0400
67     H67     1.4399   -1.6372   -3.6604 H        1 ZINC000034026954    0.0700
68     H68     0.4255   -2.5202   -2.4937 H        1 ZINC000034026954    0.0600
@<TRIPOS>BOND
1     1     2     1
2     1     39    1
3     1     40    1
4     1     41    1
5     2     3     1
6     2     19    am
7     3     4     1
8     3     42    1
9     3     43    1
10    4     5     1
11    4     44    1
12    4     45    1
13    5     18    ar
14    5     6     ar
15    6     7     ar
16    6     46    1
17    7     8     1
18    7     12    ar
19    8     9     1
20    8     10    1
21    8     11    1
22    12    13    ar
23    12    47    1
24    13    14    1
25    13    18    ar
26    14    15    1
27    14    16    1
28    14    17    1
29    18    48    1
30    19    20    2
31    19    21    1
32    21    22    1
33    21    23    1
34    21    29    1
35    23    28    ar
36    23    24    ar
37    24    25    ar
38    24    49    1
39    25    26    ar
40    25    50    1
41    26    27    ar
42    26    51    1
43    27    28    ar
44    27    52    1
45    28    53    1
46    29    38    1
47    29    30    1
48    30    31    1
49    30    54    1
50    30    55    1
51    31    32    1
52    31    56    1
53    31    57    1
54    32    33    1
55    32    37    1
56    33    34    1
57    33    58    1
58    33    59    1
59    34    36    1
60    34    35    1
61    34    60    1
62    35    36    1
63    35    61    1
64    35    62    1
65    36    63    1
66    36    64    1
67    37    38    1
68    37    65    1
69    37    66    1
70    38    67    1
71    38    68    1
@<TRIPOS>SUBSTRUCTURE
1   ZINC000034026954 1     RESIDUE    1   A     ZIN   1
