@<TRIPOS>MOLECULE
ZINC000000538642
52    55    1     0     0
SMALL
USER_CHARGES
@<TRIPOS>ATOM
1      C1     -0.1128    0.9230   -0.6303 C.3      1 ZINC000000538642    0.0200
2      N2      0.0266   -0.5176   -0.3789 N.3      1 ZINC000000538642   -0.5500
3      C3     -1.2750   -1.1949   -0.4606 C.3      1 ZINC000000538642    0.0600
4      C4     -1.0762   -2.7007   -0.2723 C.3      1 ZINC000000538642    0.0600
5      N5     -0.4373   -2.9491    1.0276 N.3      1 ZINC000000538642   -0.5100
6      C6     -0.3051   -4.3143    1.2658 C.ar     1 ZINC000000538642    0.1200
7      C7      0.4411   -5.1035    0.4032 C.ar     1 ZINC000000538642   -0.1500
8      C8      0.5711   -6.4584    0.6412 C.ar     1 ZINC000000538642   -0.0900
9      C9     -0.0405   -7.0402    1.7394 C.ar     1 ZINC000000538642   -0.1200
10     C10    -0.7864   -6.2733    2.6088 C.ar     1 ZINC000000538642   -0.0700
11     C11    -0.9226   -4.8994    2.3853 C.ar     1 ZINC000000538642   -0.0600
12     C12    -1.7156   -4.0755    3.3069 C.2      1 ZINC000000538642    0.0600
13     C13    -2.8688   -4.5605    3.8279 C.2      1 ZINC000000538642   -0.2100
14     S14    -3.5475   -6.1132    3.3037 S.3      1 ZINC000000538642   -0.1000
15     C15    -5.3254   -5.7114    3.3200 C.3      1 ZINC000000538642   -0.1300
16     C16    -5.6938   -5.2205    4.7189 C.3      1 ZINC000000538642    0.1200
17     N17    -4.8797   -4.1155    5.1712 N.am     1 ZINC000000538642   -0.5600
18     C18    -5.5018   -3.2317    6.0589 C.ar     1 ZINC000000538642    0.1500
19     C19    -5.8124   -3.6444    7.3480 C.ar     1 ZINC000000538642   -0.1000
20     C20    -6.4264   -2.7699    8.2234 C.ar     1 ZINC000000538642   -0.0900
21     C21    -6.7326   -1.4834    7.8171 C.ar     1 ZINC000000538642   -0.0300
22     Cl22   -7.5047   -0.3872    8.9198 Cl       1 ZINC000000538642   -0.0400
23     C23    -6.4237   -1.0683    6.5321 C.ar     1 ZINC000000538642   -0.0200
24     Cl24   -6.8084    0.5471    6.0262 Cl       1 ZINC000000538642   -0.0400
25     C25    -5.8047   -1.9379    5.6544 C.ar     1 ZINC000000538642   -0.0800
26     C26    -3.6197   -3.8268    4.8641 C.2      1 ZINC000000538642    0.5700
27     O27    -3.0686   -2.9154    5.4528 O.2      1 ZINC000000538642   -0.5100
28     C28     0.8644   -2.2718    1.1093 C.3      1 ZINC000000538642    0.0600
29     C29     0.6656   -0.7660    0.9210 C.3      1 ZINC000000538642    0.0600
30     H30     0.8726    1.3888   -0.6306 H        1 ZINC000000538642    0.0700
31     H31    -0.5885    1.0784   -1.5986 H        1 ZINC000000538642    0.0700
32     H32    -0.7261    1.3706    0.1518 H        1 ZINC000000538642    0.0300
33     H33    -1.9327   -0.8144    0.3209 H        1 ZINC000000538642    0.0400
34     H34    -1.7224   -1.0064   -1.4365 H        1 ZINC000000538642    0.0800
35     H35    -2.0436   -3.2020   -0.3036 H        1 ZINC000000538642    0.0800
36     H36    -0.4406   -3.0862   -1.0695 H        1 ZINC000000538642    0.0500
37     H37     0.9209   -4.6585   -0.4560 H        1 ZINC000000538642    0.1300
38     H38     1.1534   -7.0680   -0.0339 H        1 ZINC000000538642    0.1300
39     H39     0.0673   -8.1003    1.9154 H        1 ZINC000000538642    0.1300
40     H40    -1.2612   -6.7320    3.4635 H        1 ZINC000000538642    0.1300
41     H41    -1.3797   -3.0832    3.5694 H        1 ZINC000000538642    0.1500
42     H42    -5.5318   -4.9288    2.5899 H        1 ZINC000000538642    0.1000
43     H43    -5.9055   -6.6020    3.0786 H        1 ZINC000000538642    0.1300
44     H44    -6.7378   -4.9073    4.7158 H        1 ZINC000000538642    0.0900
45     H45    -5.5817   -6.0473    5.4203 H        1 ZINC000000538642    0.0800
46     H46    -5.5744   -4.6488    7.6658 H        1 ZINC000000538642    0.1400
47     H47    -6.6679   -3.0909    9.2259 H        1 ZINC000000538642    0.1500
48     H48    -5.5639   -1.6143    4.6526 H        1 ZINC000000538642    0.1400
49     H49     1.3117   -2.4603    2.0852 H        1 ZINC000000538642    0.0800
50     H50     1.5220   -2.6523    0.3278 H        1 ZINC000000538642    0.0500
51     H51     1.6330   -0.2647    0.9523 H        1 ZINC000000538642    0.0800
52     H52     0.0300   -0.3805    1.7182 H        1 ZINC000000538642    0.0500
@<TRIPOS>BOND
1     1     2     1
2     1     30    1
3     1     31    1
4     1     32    1
5     2     29    1
6     2     3     1
7     3     4     1
8     3     33    1
9     3     34    1
10    4     5     1
11    4     35    1
12    4     36    1
13    5     6     1
14    5     28    1
15    6     11    ar
16    6     7     ar
17    7     8     ar
18    7     37    1
19    8     9     ar
20    8     38    1
21    9     10    ar
22    9     39    1
23    10    11    ar
24    10    40    1
25    11    12    1
26    12    13    2
27    12    41    1
28    13    26    1
29    13    14    1
30    14    15    1
31    15    16    1
32    15    42    1
33    15    43    1
34    16    17    1
35    16    44    1
36    16    45    1
37    17    18    1
38    17    26    am
39    18    25    ar
40    18    19    ar
41    19    20    ar
42    19    46    1
43    20    21    ar
44    20    47    1
45    21    22    1
46    21    23    ar
47    23    24    1
48    23    25    ar
49    25    48    1
50    26    27    2
51    28    29    1
52    28    49    1
53    28    50    1
54    29    51    1
55    29    52    1
@<TRIPOS>SUBSTRUCTURE
1   ZINC000000538642 1     RESIDUE    1   A     ZIN   1
