@<TRIPOS>MOLECULE
ZINC000003994828
89    94    1     0     0
SMALL
USER_CHARGES
@<TRIPOS>ATOM
1      C1     -1.0819    1.5014    0.8050 C.3      1 ZINC000003994828   -0.0800
2      C2     -1.0937   -0.0019    0.9089 C.2      1 ZINC000003994828    0.0500
3      N3     -2.1293   -0.7474    0.7172 N.2      1 ZINC000003994828   -0.4700
4      C4     -1.9654   -2.0485    0.8475 C.2      1 ZINC000003994828    0.0600
5      C5     -3.0876   -3.0351    0.6519 C.3      1 ZINC000003994828    0.1400
6      O6     -2.5977   -4.3612    0.8604 O.3      1 ZINC000003994828   -0.3100
7      C7     -3.4893   -5.3773    0.7212 C.ar     1 ZINC000003994828    0.1300
8      C8     -4.8073   -5.1041    0.3851 C.ar     1 ZINC000003994828   -0.2000
9      C9     -5.7116   -6.1388    0.2437 C.ar     1 ZINC000003994828   -0.0700
10     C10    -5.3043   -7.4458    0.4373 C.ar     1 ZINC000003994828   -0.1200
11     C11    -6.2930   -8.5726    0.2830 C.3      1 ZINC000003994828   -0.0900
12     C12    -6.2921   -9.0566   -1.1685 C.3      1 ZINC000003994828    0.1500
13     H13    -5.2772   -9.3258   -1.4611 H        1 ZINC000003994828    0.1000
14     N14    -6.7842   -7.9870   -2.0402 N.am     1 ZINC000003994828   -0.7000
15     C15    -8.0247   -7.4905   -1.8633 C.2      1 ZINC000003994828    0.6500
16     O16    -8.7349   -7.9301   -0.9808 O.2      1 ZINC000003994828   -0.5600
17     O17    -8.4769   -6.5075   -2.6645 O.3      1 ZINC000003994828   -0.3500
18     C18    -9.8224   -6.0213   -2.4162 C.3      1 ZINC000003994828    0.0800
19     H19   -10.4424   -6.8127   -1.9950 H        1 ZINC000003994828    0.1100
20     C20    -9.7914   -4.7967   -1.4737 C.3      1 ZINC000003994828    0.0400
21     O21    -9.7010   -3.6628   -2.3620 O.3      1 ZINC000003994828   -0.3700
22     C22   -10.6016   -3.9483   -3.4552 C.3      1 ZINC000003994828    0.2300
23     H23   -11.6300   -3.6799   -3.2131 H        1 ZINC000003994828    0.1100
24     O24   -10.1301   -3.2528   -4.6179 O.3      1 ZINC000003994828   -0.3600
25     C25    -9.7592   -4.1965   -5.6360 C.3      1 ZINC000003994828    0.0500
26     C26    -9.3719   -5.4825   -4.8613 C.3      1 ZINC000003994828   -0.1400
27     C27   -10.4491   -5.4763   -3.7150 C.3      1 ZINC000003994828   -0.1500
28     H28   -11.3764   -5.9754   -3.9961 H        1 ZINC000003994828    0.1200
29     C29    -7.2019  -10.2798   -1.2987 C.3      1 ZINC000003994828    0.0700
30     H30    -8.2168  -10.0106   -1.0061 H        1 ZINC000003994828    0.1300
31     O31    -6.7219  -11.3231   -0.4483 O.3      1 ZINC000003994828   -0.5400
32     C32    -7.2010  -10.7639   -2.7501 C.3      1 ZINC000003994828    0.0700
33     N33    -8.1766  -11.8457   -2.9047 N.am     1 ZINC000003994828   -0.9800
34     C34    -9.6027  -11.5339   -3.0284 C.3      1 ZINC000003994828    0.1300
35     C35    -9.9440  -11.2819   -4.4984 C.3      1 ZINC000003994828   -0.1200
36     C36   -11.4547  -11.0892   -4.6454 C.3      1 ZINC000003994828   -0.1500
37     C37    -9.2199  -10.0237   -4.9816 C.3      1 ZINC000003994828   -0.1500
38     S38    -7.6675  -13.4211   -2.9396 S.o2     1 ZINC000003994828    2.7000
39     O39    -8.5961  -14.1250   -3.7528 O.2      1 ZINC000003994828   -0.9500
40     O40    -6.2720  -13.3860   -3.2055 O.2      1 ZINC000003994828   -0.9500
41     C41    -7.8472  -14.0636   -1.3088 C.ar     1 ZINC000003994828   -0.6700
42     C42    -6.7666  -14.0700   -0.4472 C.ar     1 ZINC000003994828    0.0200
43     C43    -6.9027  -14.5731    0.8337 C.ar     1 ZINC000003994828   -0.1200
44     C44    -8.1234  -15.0727    1.2560 C.ar     1 ZINC000003994828    0.0900
45     O45    -8.5167  -15.6164    2.4447 O.3      1 ZINC000003994828   -0.3000
46     C46    -9.9557  -15.5667    2.4329 C.3      1 ZINC000003994828    0.2100
47     O47   -10.2879  -15.6059    1.0324 O.3      1 ZINC000003994828   -0.3000
48     C48    -9.2127  -15.0663    0.3875 C.ar     1 ZINC000003994828    0.0100
49     C49    -9.0706  -14.5551   -0.8919 C.ar     1 ZINC000003994828    0.0000
50     C50    -3.9912   -7.7208    0.7719 C.ar     1 ZINC000003994828   -0.0800
51     C51    -3.0818   -6.6900    0.9093 C.ar     1 ZINC000003994828   -0.1500
52     C52    -0.7225   -2.4213    1.1669 C.2      1 ZINC000003994828   -0.2400
53     S53     0.2649   -0.9672    1.2908 S.3      1 ZINC000003994828    0.1300
54     H54    -0.0777    1.8720    1.0108 H        1 ZINC000003994828    0.0800
55     H55    -1.3799    1.7985   -0.2006 H        1 ZINC000003994828    0.0900
56     H56    -1.7797    1.9212    1.5296 H        1 ZINC000003994828    0.0900
57     H57    -3.8842   -2.8256    1.3658 H        1 ZINC000003994828    0.0800
58     H58    -3.4764   -2.9467   -0.3626 H        1 ZINC000003994828    0.0800
59     H59    -5.1261   -4.0833    0.2344 H        1 ZINC000003994828    0.1300
60     H60    -6.7378   -5.9266   -0.0179 H        1 ZINC000003994828    0.1100
61     H61    -6.0120   -9.3952    0.9405 H        1 ZINC000003994828    0.0900
62     H62    -7.2899   -8.2201    0.5478 H        1 ZINC000003994828    0.1000
63     H63    -6.2173   -7.6361   -2.7448 H        1 ZINC000003994828    0.4100
64     H64   -10.7068   -4.7466   -0.8841 H        1 ZINC000003994828    0.0800
65     H65    -8.9191   -4.8401   -0.8215 H        1 ZINC000003994828    0.1000
66     H66   -10.6028   -4.3918   -6.2980 H        1 ZINC000003994828    0.0700
67     H67    -8.9070   -3.8253   -6.2053 H        1 ZINC000003994828    0.0900
68     H68    -9.4789   -6.3672   -5.4890 H        1 ZINC000003994828    0.0900
69     H69    -8.3624   -5.4092   -4.4568 H        1 ZINC000003994828    0.1000
70     H70    -5.8446  -11.6526   -0.6868 H        1 ZINC000003994828    0.3700
71     H71    -7.4675   -9.9374   -3.4089 H        1 ZINC000003994828    0.1000
72     H72    -6.2079  -11.1302   -3.0103 H        1 ZINC000003994828    0.1000
73     H73   -10.1916  -12.3727   -2.6573 H        1 ZINC000003994828    0.0800
74     H74    -9.8317  -10.6426   -2.4443 H        1 ZINC000003994828    0.0800
75     H75    -9.6268  -12.1361   -5.0966 H        1 ZINC000003994828    0.0800
76     H76   -11.7719  -10.2350   -4.0472 H        1 ZINC000003994828    0.0500
77     H77   -11.6978  -10.9096   -5.6927 H        1 ZINC000003994828    0.0600
78     H78   -11.9705  -11.9855   -4.3012 H        1 ZINC000003994828    0.0600
79     H79    -9.4302   -9.1992   -4.3004 H        1 ZINC000003994828    0.0500
80     H80    -8.1462  -10.2095   -5.0068 H        1 ZINC000003994828    0.0600
81     H81    -9.5676   -9.7660   -5.9821 H        1 ZINC000003994828    0.0600
82     H82    -5.8137  -13.6816   -0.7751 H        1 ZINC000003994828    0.1500
83     H83    -6.0565  -14.5768    1.5048 H        1 ZINC000003994828    0.1500
84     H84   -10.3730  -16.4308    2.9498 H        1 ZINC000003994828    0.1400
85     H85   -10.3106  -14.6405    2.8849 H        1 ZINC000003994828    0.0900
86     H86    -9.9149  -14.5434   -1.5653 H        1 ZINC000003994828    0.1500
87     H87    -3.6754   -8.7426    0.9223 H        1 ZINC000003994828    0.1300
88     H88    -2.0562   -6.9053    1.1706 H        1 ZINC000003994828    0.1300
89     H89    -0.3824   -3.4350    1.3186 H        1 ZINC000003994828    0.1800
@<TRIPOS>BOND
1     1     2     1
2     1     54    1
3     1     55    1
4     1     56    1
5     2     53    1
6     2     3     2
7     3     4     1
8     4     5     1
9     4     52    2
10    5     6     1
11    5     57    1
12    5     58    1
13    6     7     1
14    7     51    ar
15    7     8     ar
16    8     9     ar
17    8     59    1
18    9     10    ar
19    9     60    1
20    10    11    1
21    10    50    ar
22    11    12    1
23    11    61    1
24    11    62    1
25    12    13    1
26    12    14    1
27    12    29    1
28    14    15    am
29    14    63    1
30    15    16    2
31    15    17    1
32    17    18    1
33    18    19    1
34    18    27    1
35    18    20    1
36    20    21    1
37    20    64    1
38    20    65    1
39    21    22    1
40    22    23    1
41    22    27    1
42    22    24    1
43    24    25    1
44    25    26    1
45    25    66    1
46    25    67    1
47    26    27    1
48    26    68    1
49    26    69    1
50    27    28    1
51    29    30    1
52    29    31    1
53    29    32    1
54    31    70    1
55    32    33    1
56    32    71    1
57    32    72    1
58    33    34    1
59    33    38    am
60    34    35    1
61    34    73    1
62    34    74    1
63    35    36    1
64    35    37    1
65    35    75    1
66    36    76    1
67    36    77    1
68    36    78    1
69    37    79    1
70    37    80    1
71    37    81    1
72    38    39    2
73    38    40    2
74    38    41    1
75    41    49    ar
76    41    42    ar
77    42    43    ar
78    42    82    1
79    43    44    ar
80    43    83    1
81    44    48    ar
82    44    45    1
83    45    46    1
84    46    47    1
85    46    84    1
86    46    85    1
87    47    48    1
88    48    49    ar
89    49    86    1
90    50    51    ar
91    50    87    1
92    51    88    1
93    52    53    1
94    52    89    1
@<TRIPOS>SUBSTRUCTURE
1   ZINC000003994828 1     RESIDUE    1   A     ZIN   1
