@<TRIPOS>MOLECULE
ZINC000043203371
71    77    1     0     0
SMALL
USER_CHARGES
@<TRIPOS>ATOM
1      O1      0.2820   -0.5172   -0.3626 O.2      1 ZINC000043203371   -0.5200
2      C2      0.0701    0.6768   -0.3847 C.2      1 ZINC000043203371    0.5000
3      C3      1.2121    1.6477   -0.2291 C.3      1 ZINC000043203371    0.0800
4      N4      2.4458    0.9095    0.0520 N.am     1 ZINC000043203371   -0.5900
5      C5      3.2595    0.6038   -0.9664 C.2      1 ZINC000043203371    0.5200
6      O6      2.9353    0.9263   -2.0897 O.2      1 ZINC000043203371   -0.4700
7      C7      4.5578   -0.1225   -0.7698 C.3      1 ZINC000043203371    0.0400
8      C8      4.7461   -1.1675   -1.8861 C.3      1 ZINC000043203371   -0.1300
9      C9      5.6235   -0.4441   -2.9384 C.3      1 ZINC000043203371   -0.1200
10     C10     6.5998    0.3799   -2.0623 C.3      1 ZINC000043203371   -0.1300
11     C11     5.7327    0.8622   -0.8805 C.3      1 ZINC000043203371   -0.1300
12     N12     4.5883   -0.7868    0.5368 N.4      1 ZINC000043203371   -0.5000
13     H13     3.9277   -1.5494    0.5437 H        1 ZINC000043203371    0.4400
14     H14     5.5161   -1.1416    0.7139 H        1 ZINC000043203371    0.4400
15     C15     4.2246    0.1898    1.5758 C.3      1 ZINC000043203371   -0.0200
16     C16     2.7443    0.5401    1.4334 C.3      1 ZINC000043203371    0.1700
17     H17     2.1399   -0.3242    1.7085 H        1 ZINC000043203371    0.1300
18     C18     2.4131    1.6927    2.3461 C.ar     1 ZINC000043203371   -0.0700
19     C19     2.8155    2.9729    2.0156 C.ar     1 ZINC000043203371   -0.1500
20     C20     2.5118    4.0327    2.8536 C.ar     1 ZINC000043203371    0.1500
21     F21     2.9053    5.2840    2.5303 F        1 ZINC000043203371   -0.1200
22     C22     1.8046    3.8095    4.0223 C.ar     1 ZINC000043203371   -0.1700
23     C23     1.4017    2.5270    4.3520 C.ar     1 ZINC000043203371    0.1500
24     F24     0.7113    2.3077    5.4925 F        1 ZINC000043203371   -0.1200
25     C25     1.7024    1.4694    3.5102 C.ar     1 ZINC000043203371   -0.1400
26     N26    -1.1860    1.1353   -0.5538 N.am     1 ZINC000043203371   -0.6600
27     C27    -2.2593    0.2383   -0.5895 C.ar     1 ZINC000043203371    0.1400
28     C28    -2.2407   -0.9017    0.2030 C.ar     1 ZINC000043203371   -0.1100
29     C29    -3.3026   -1.7826    0.1645 C.ar     1 ZINC000043203371   -0.0800
30     C30    -4.3862   -1.5353   -0.6614 C.ar     1 ZINC000043203371   -0.1000
31     C31    -5.6548   -2.3364   -0.8803 C.3      1 ZINC000043203371   -0.0500
32     C32    -6.6190   -1.3677   -1.5724 C.3      1 ZINC000043203371   -0.0500
33     C33    -5.6915   -0.3599   -2.2581 C.3      1 ZINC000043203371   -0.0500
34     C34    -4.4073   -0.3999   -1.4529 C.ar     1 ZINC000043203371   -0.0700
35     C35    -3.3482    0.4884   -1.4128 C.ar     1 ZINC000043203371   -0.1200
36     C36    -7.5449   -0.7032   -0.5935 C.2      1 ZINC000043203371    0.5500
37     O37    -7.2265   -0.0268    0.3615 O.2      1 ZINC000043203371   -0.4700
38     N38    -8.7985   -1.0053   -0.9849 N.am     1 ZINC000043203371   -0.6500
39     C39    -8.8180   -1.8037   -2.1260 C.ar     1 ZINC000043203371    0.3600
40     N40    -9.8393   -2.3086   -2.8103 N.ar     1 ZINC000043203371   -0.5000
41     C41    -9.6623   -3.0528   -3.8826 C.ar     1 ZINC000043203371    0.1500
42     C42    -8.3960   -3.3455   -4.3490 C.ar     1 ZINC000043203371   -0.1900
43     C43    -7.2953   -2.8412   -3.6666 C.ar     1 ZINC000043203371   -0.0200
44     C44    -7.5157   -2.0670   -2.5487 C.ar     1 ZINC000043203371   -0.1800
45     H45     1.3318    2.2183   -1.1501 H        1 ZINC000043203371    0.1400
46     H46     1.0003    2.3287    0.5952 H        1 ZINC000043203371    0.1200
47     H47     5.2600   -2.0484   -1.5014 H        1 ZINC000043203371    0.1000
48     H48     3.7836   -1.4437   -2.3167 H        1 ZINC000043203371    0.1100
49     H49     6.1671   -1.1648   -3.5492 H        1 ZINC000043203371    0.0900
50     H50     5.0164    0.2122   -3.5620 H        1 ZINC000043203371    0.0900
51     H51     7.4154   -0.2489   -1.7053 H        1 ZINC000043203371    0.0800
52     H52     6.9893    1.2304   -2.6218 H        1 ZINC000043203371    0.0900
53     H53     5.3603    1.8678   -1.0762 H        1 ZINC000043203371    0.1100
54     H54     6.3166    0.8521    0.0399 H        1 ZINC000043203371    0.1000
55     H55     4.4060   -0.2404    2.5608 H        1 ZINC000043203371    0.1700
56     H56     4.8228    1.0927    1.4538 H        1 ZINC000043203371    0.1500
57     H57     3.3674    3.1468    1.1037 H        1 ZINC000043203371    0.1500
58     H58     1.5676    4.6354    4.6766 H        1 ZINC000043203371    0.1600
59     H59     1.3878    0.4687    3.7671 H        1 ZINC000043203371    0.1500
60     H60    -1.3459    2.0871   -0.6508 H        1 ZINC000043203371    0.4100
61     H61    -1.3970   -1.0989    0.8478 H        1 ZINC000043203371    0.1300
62     H62    -3.2882   -2.6691    0.7812 H        1 ZINC000043203371    0.1300
63     H63    -5.4550   -3.1949   -1.5214 H        1 ZINC000043203371    0.1000
64     H64    -6.0663   -2.6630    0.0747 H        1 ZINC000043203371    0.0900
65     H65    -5.5020   -0.6595   -3.2888 H        1 ZINC000043203371    0.1000
66     H66    -6.1274    0.6387   -2.2268 H        1 ZINC000043203371    0.0900
67     H67    -3.3674    1.3776   -2.0255 H        1 ZINC000043203371    0.1300
68     H68    -9.5963   -0.7018   -0.5242 H        1 ZINC000043203371    0.4200
69     H69   -10.5232   -3.4415   -4.4062 H        1 ZINC000043203371    0.1700
70     H70    -8.2631   -3.9566   -5.2295 H        1 ZINC000043203371    0.1500
71     H71    -6.2913   -3.0509   -4.0048 H        1 ZINC000043203371    0.1400
@<TRIPOS>BOND
1     1     2     2
2     2     3     1
3     2     26    am
4     3     4     1
5     3     45    1
6     3     46    1
7     4     16    1
8     4     5     am
9     5     6     2
10    5     7     1
11    7     11    1
12    7     8     1
13    7     12    1
14    8     9     1
15    8     47    1
16    8     48    1
17    9     10    1
18    9     49    1
19    9     50    1
20    10    11    1
21    10    51    1
22    10    52    1
23    11    53    1
24    11    54    1
25    12    13    1
26    12    14    1
27    12    15    1
28    15    16    1
29    15    55    1
30    15    56    1
31    16    17    1
32    16    18    1
33    18    25    ar
34    18    19    ar
35    19    20    ar
36    19    57    1
37    20    21    1
38    20    22    ar
39    22    23    ar
40    22    58    1
41    23    24    1
42    23    25    ar
43    25    59    1
44    26    27    1
45    26    60    1
46    27    35    ar
47    27    28    ar
48    28    29    ar
49    28    61    1
50    29    30    ar
51    29    62    1
52    30    34    ar
53    30    31    1
54    31    32    1
55    31    63    1
56    31    64    1
57    32    44    1
58    32    33    1
59    32    36    1
60    33    34    1
61    33    65    1
62    33    66    1
63    34    35    ar
64    35    67    1
65    36    37    2
66    36    38    am
67    38    39    1
68    38    68    1
69    39    44    ar
70    39    40    ar
71    40    41    ar
72    41    42    ar
73    41    69    1
74    42    43    ar
75    42    70    1
76    43    44    ar
77    43    71    1
@<TRIPOS>SUBSTRUCTURE
1   ZINC000043203371 1     RESIDUE    1   A     ZIN   1
