@<TRIPOS>MOLECULE
ZINC000072283655
  47   49    0    0    0
SMALL
USER_CHARGES
NO_NAME
@<TRIPOS>ATOM
    1 C1        0.9736    -1.6905    -3.5775 C.3    1 <0>       0.0200
    2 O2        0.3241    -0.8060    -2.6621 O.3    1 <0>      -0.3700
    3 C3        0.4883    -1.1672    -1.2893 C.3    1 <0>       0.2700
    4 N4        1.8537    -0.8527    -0.8615 N.am   1 <0>      -0.5800
    5 C5        2.1870     0.4242    -0.6418 C.2    1 <0>       0.7100
    6 O6        1.3289     1.2673    -0.8110 O.2    1 <0>      -0.4900
    7 N7        3.3963     0.8405    -0.2488 N.am   1 <0>      -0.5800
    8 C8        3.6229     2.2734    -0.0447 C.3    1 <0>       0.2700
    9 O9        3.0031     2.6847     1.1754 O.3    1 <0>      -0.3700
   10 C10       3.7631     2.3774     2.3458 C.3    1 <0>       0.0200
   11 C11       4.4137    -0.0204    -0.0343 C.2    1 <0>       0.5500
   12 O12       5.5041     0.3714     0.3225 O.2    1 <0>      -0.4500
   13 C13       4.1418    -1.4963    -0.2557 C.3    1 <0>      -0.0200
   14 C14       5.1090    -2.0004    -1.2957 C.ar   1 <0>      -0.0900
   15 C15       5.1591    -3.3486    -1.5971 C.ar   1 <0>      -0.0800
   16 C16       6.0462    -3.8110    -2.5511 C.ar   1 <0>      -0.1200
   17 C17       6.8829    -2.9252    -3.2039 C.ar   1 <0>      -0.1000
   18 C18       6.8322    -1.5769    -2.9031 C.ar   1 <0>      -0.1200
   19 C19       5.9420    -1.1140    -1.9522 C.ar   1 <0>      -0.1100
   20 C20       4.4236    -2.2237     1.0337 C.ar   1 <0>      -0.0900
   21 C21       5.7155    -2.2918     1.5208 C.ar   1 <0>      -0.0800
   22 C22       5.9740    -2.9589     2.7035 C.ar   1 <0>      -0.1200
   23 C23       4.9405    -3.5576     3.3995 C.ar   1 <0>      -0.1000
   24 C24       3.6485    -3.4888     2.9129 C.ar   1 <0>      -0.1200
   25 C25       3.3894    -2.8179     1.7323 C.ar   1 <0>      -0.1000
   26 C26       2.7364    -1.8605    -0.6955 C.2    1 <0>       0.5500
   27 O27       2.4199    -3.0131    -0.8984 O.2    1 <0>      -0.4500
   28 H28       2.0528    -1.6314    -3.4360 H      1 <0>       0.0400
   29 H29       0.6386    -2.7117    -3.3956 H      1 <0>       0.0500
   30 H30       0.7248    -1.4029    -4.5990 H      1 <0>       0.0900
   31 H31      -0.2214    -0.6084    -0.6792 H      1 <0>       0.1300
   32 H32       0.3073    -2.2355    -1.1705 H      1 <0>       0.1100
   33 H33       4.6941     2.4679     0.0084 H      1 <0>       0.1100
   34 H34       3.1931     2.8313    -0.8766 H      1 <0>       0.1300
   35 H35       3.9135     1.2996     2.4088 H      1 <0>       0.0400
   36 H36       4.7306     2.8767     2.2923 H      1 <0>       0.0500
   37 H37       3.2251     2.7214     3.2292 H      1 <0>       0.0900
   38 H38       4.5054    -4.0407    -1.0871 H      1 <0>       0.1400
   39 H39       6.0859    -4.8644    -2.7861 H      1 <0>       0.1300
   40 H40       7.5765    -3.2866    -3.9487 H      1 <0>       0.1300
   41 H41       7.4861    -0.8849    -3.4129 H      1 <0>       0.1300
   42 H42       5.9023    -0.0606    -1.7173 H      1 <0>       0.1200
   43 H43       6.5230    -1.8240     0.9770 H      1 <0>       0.1300
   44 H44       6.9835    -3.0127     3.0837 H      1 <0>       0.1300
   45 H45       5.1426    -4.0795     4.3232 H      1 <0>       0.1300
   46 H46       2.8411    -3.9568     3.4565 H      1 <0>       0.1300
   47 H47       2.3799    -2.7641     1.3522 H      1 <0>       0.1200
@<TRIPOS>BOND
   1    1    2 1
   2    1   28 1
   3    1   29 1
   4    1   30 1
   5    2    3 1
   6    3    4 1
   7    3   31 1
   8    3   32 1
   9    4   26 am
  10    4    5 am
  11    5    6 2
  12    5    7 am
  13    7    8 1
  14    7   11 am
  15    8    9 1
  16    8   33 1
  17    8   34 1
  18    9   10 1
  19   10   35 1
  20   10   36 1
  21   10   37 1
  22   11   12 2
  23   11   13 1
  24   13   14 1
  25   13   20 1
  26   13   26 1
  27   14   19 ar
  28   14   15 ar
  29   15   16 ar
  30   15   38 1
  31   16   17 ar
  32   16   39 1
  33   17   18 ar
  34   17   40 1
  35   18   19 ar
  36   18   41 1
  37   19   42 1
  38   20   25 ar
  39   20   21 ar
  40   21   22 ar
  41   21   43 1
  42   22   23 ar
  43   22   44 1
  44   23   24 ar
  45   23   45 1
  46   24   25 ar
  47   24   46 1
  48   25   47 1
  49   26   27 2
