@<TRIPOS>MOLECULE
ZINC000014087429
82    87    1     0     0
SMALL
USER_CHARGES
@<TRIPOS>ATOM
1      C1      0.6845    0.8391    1.5173 C.3      1 ZINC000014087429    0.0200
2      O2      0.6200   -0.5804    1.3654 O.3      1 ZINC000014087429   -0.2800
3      C3     -0.6132   -1.1443    1.3670 C.ar     1 ZINC000014087429    0.1600
4      C4     -1.7465   -0.3483    1.5062 C.ar     1 ZINC000014087429   -0.2000
5      C5     -3.0037   -0.9178    1.5096 C.ar     1 ZINC000014087429   -0.0700
6      C6     -3.1573   -2.2883    1.3741 C.ar     1 ZINC000014087429   -0.1100
7      C7     -2.0391   -3.1015    1.2325 C.ar     1 ZINC000014087429   -0.0800
8      C8     -0.7536   -2.5268    1.2231 C.ar     1 ZINC000014087429   -0.1400
9      C9      0.4329   -3.3910    1.0721 C.2      1 ZINC000014087429    0.4400
10     O10     1.5442   -2.9575    1.3096 O.2      1 ZINC000014087429   -0.4200
11     C11     0.2549   -4.7869    0.6301 C.ar     1 ZINC000014087429   -0.2800
12     C12     1.3404   -5.5434    0.1986 C.ar     1 ZINC000014087429    0.3200
13     O13     2.5801   -4.9937    0.1820 O.3      1 ZINC000014087429   -0.6500
14     C14     1.1614   -6.8700   -0.2186 C.ar     1 ZINC000014087429   -0.1900
15     C15    -0.0891   -7.4336   -0.2030 C.ar     1 ZINC000014087429   -0.0200
16     C16    -0.3432   -8.8562   -0.6310 C.3      1 ZINC000014087429   -0.0900
17     C17     0.8249   -9.3864   -1.4594 C.3      1 ZINC000014087429    0.1100
18     O18     0.6655  -10.7902   -1.6735 O.3      1 ZINC000014087429   -0.5400
19     C19     0.8723   -8.6725   -2.7857 C.2      1 ZINC000014087429    0.3100
20     O20     0.3865   -7.5726   -2.8971 O.2      1 ZINC000014087429   -0.3800
21     C21     1.5259   -9.3313   -3.9731 C.3      1 ZINC000014087429    0.0300
22     O22     1.4440   -8.4626   -5.1047 O.3      1 ZINC000014087429   -0.5500
23     C23     2.1223   -9.1258   -0.6846 C.3      1 ZINC000014087429   -0.1200
24     C24     2.3842   -7.6215   -0.6789 C.3      1 ZINC000014087429    0.1800
25     H25     2.6460   -7.2987   -1.6865 H        1 ZINC000014087429    0.0600
26     O26     3.4710   -7.3362    0.2040 O.3      1 ZINC000014087429   -0.3500
27     C27     4.7413   -7.2542   -0.4454 C.3      1 ZINC000014087429    0.2500
28     H28     4.6544   -6.6328   -1.3367 H        1 ZINC000014087429    0.1200
29     C29     5.7644   -6.6354    0.5106 C.3      1 ZINC000014087429   -0.1500
30     C30     5.9250   -7.5449    1.7326 C.3      1 ZINC000014087429    0.0100
31     H31     4.9780   -7.6056    2.2689 H        1 ZINC000014087429    0.1600
32     N32     6.9585   -6.9966    2.6209 N.4      1 ZINC000014087429   -0.6400
33     H33     6.6998   -6.0625    2.9015 H        1 ZINC000014087429    0.4400
34     H34     7.0444   -7.5817    3.4384 H        1 ZINC000014087429    0.4300
35     H35     7.8413   -6.9688    2.1329 H        1 ZINC000014087429    0.4300
36     C36     6.3389   -8.9432    1.2638 C.3      1 ZINC000014087429    0.0400
37     H37     6.4017   -9.6116    2.1226 H        1 ZINC000014087429    0.1000
38     O38     7.6122   -8.8732    0.6190 O.3      1 ZINC000014087429   -0.3300
39     C39     8.7029   -9.2985    1.4385 C.3      1 ZINC000014087429    0.2400
40     H40     8.6460   -8.8006    2.4065 H        1 ZINC000014087429    0.0300
41     C41    10.0251   -8.9382    0.7561 C.3      1 ZINC000014087429   -0.1500
42     C42    11.1882   -9.4505    1.6111 C.3      1 ZINC000014087429   -0.1200
43     C43    11.0316  -10.9606    1.8146 C.3      1 ZINC000014087429   -0.1600
44     C44     9.6705  -11.2427    2.4562 C.3      1 ZINC000014087429    0.0700
45     O45     8.6349  -10.7136    1.6258 O.3      1 ZINC000014087429   -0.3900
46     C46     5.2936   -9.4729    0.2787 C.3      1 ZINC000014087429    0.1000
47     H47     4.3319   -9.5645    0.7836 H        1 ZINC000014087429    0.0900
48     C48     5.7301  -10.8444   -0.2401 C.3      1 ZINC000014087429   -0.1400
49     O49     5.1714   -8.5650   -0.8183 O.3      1 ZINC000014087429   -0.3700
50     C50    -1.1933   -6.6835    0.2254 C.ar     1 ZINC000014087429    0.0300
51     O51    -2.4269   -7.2466    0.2352 O.3      1 ZINC000014087429   -0.4800
52     C52    -1.0320   -5.3648    0.6413 C.ar     1 ZINC000014087429   -0.0900
53     C53    -2.1872   -4.5659    1.0855 C.2      1 ZINC000014087429    0.4400
54     O54    -3.2493   -5.1037    1.3325 O.2      1 ZINC000014087429   -0.4300
55     H55     1.7262    1.1595    1.4990 H        1 ZINC000014087429    0.1000
56     H56     0.1430    1.3168    0.7008 H        1 ZINC000014087429    0.0600
57     H57     0.2335    1.1237    2.4679 H        1 ZINC000014087429    0.0500
58     H58    -1.6415    0.7213    1.6126 H        1 ZINC000014087429    0.1400
59     H59    -3.8754   -0.2898    1.6192 H        1 ZINC000014087429    0.1300
60     H60    -4.1454   -2.7243    1.3788 H        1 ZINC000014087429    0.1400
61     H61    -0.4686   -9.4805    0.2537 H        1 ZINC000014087429    0.0900
62     H62    -1.2539   -8.8943   -1.2287 H        1 ZINC000014087429    0.0900
63     H63    -0.1457  -11.0268   -2.1438 H        1 ZINC000014087429    0.3800
64     H64     2.5724   -9.5341   -3.7456 H        1 ZINC000014087429    0.0800
65     H65     1.0145  -10.2677   -4.1962 H        1 ZINC000014087429    0.0800
66     H66     1.8458   -8.8229   -5.9071 H        1 ZINC000014087429    0.3800
67     H67     2.0169   -9.4843    0.3393 H        1 ZINC000014087429    0.0900
68     H68     2.9505   -9.6409   -1.1713 H        1 ZINC000014087429    0.0800
69     H69     6.7236   -6.5352    0.0025 H        1 ZINC000014087429    0.1000
70     H70     5.4164   -5.6533    0.8307 H        1 ZINC000014087429    0.1200
71     H71    10.0650   -9.4030   -0.2291 H        1 ZINC000014087429    0.0900
72     H72    10.0984   -7.8557    0.6524 H        1 ZINC000014087429    0.0800
73     H73    12.1311   -9.2468    1.1037 H        1 ZINC000014087429    0.0800
74     H74    11.1777   -8.9491    2.5789 H        1 ZINC000014087429    0.0600
75     H75    11.0918  -11.4661    0.8508 H        1 ZINC000014087429    0.0800
76     H76    11.8247  -11.3243    2.4679 H        1 ZINC000014087429    0.0800
77     H77     9.5356  -12.3189    2.5641 H        1 ZINC000014087429    0.1100
78     H78     9.6263  -10.7704    3.4375 H        1 ZINC000014087429    0.0500
79     H79     5.7457  -11.5568    0.5848 H        1 ZINC000014087429    0.0700
80     H80     5.0283  -11.1852   -1.0012 H        1 ZINC000014087429    0.0700
81     H81     6.7274  -10.7684   -0.6734 H        1 ZINC000014087429    0.0700
82     H82    -2.6516   -7.6871    1.0663 H        1 ZINC000014087429    0.3700
@<TRIPOS>BOND
1     1     2     1
2     1     55    1
3     1     56    1
4     1     57    1
5     2     3     1
6     3     8     ar
7     3     4     ar
8     4     5     ar
9     4     58    1
10    5     6     ar
11    5     59    1
12    6     7     ar
13    6     60    1
14    7     53    1
15    7     8     ar
16    8     9     1
17    9     10    2
18    9     11    1
19    11    52    ar
20    11    12    ar
21    12    13    1
22    12    14    ar
23    14    24    1
24    14    15    ar
25    15    16    1
26    15    50    ar
27    16    17    1
28    16    61    1
29    16    62    1
30    17    18    1
31    17    19    1
32    17    23    1
33    18    63    1
34    19    20    2
35    19    21    1
36    21    22    1
37    21    64    1
38    21    65    1
39    22    66    1
40    23    24    1
41    23    67    1
42    23    68    1
43    24    25    1
44    24    26    1
45    26    27    1
46    27    28    1
47    27    49    1
48    27    29    1
49    29    30    1
50    29    69    1
51    29    70    1
52    30    31    1
53    30    32    1
54    30    36    1
55    32    33    1
56    32    34    1
57    32    35    1
58    36    37    1
59    36    38    1
60    36    46    1
61    38    39    1
62    39    40    1
63    39    45    1
64    39    41    1
65    41    42    1
66    41    71    1
67    41    72    1
68    42    43    1
69    42    73    1
70    42    74    1
71    43    44    1
72    43    75    1
73    43    76    1
74    44    45    1
75    44    77    1
76    44    78    1
77    46    47    1
78    46    48    1
79    46    49    1
80    48    79    1
81    48    80    1
82    48    81    1
83    50    51    1
84    50    52    ar
85    51    82    1
86    52    53    1
87    53    54    2
@<TRIPOS>SUBSTRUCTURE
1   ZINC000014087429 1     RESIDUE    1   A     ZIN   1
