@<TRIPOS>MOLECULE
ZINC000003823565
44    47    1     0     0
SMALL
USER_CHARGES
@<TRIPOS>ATOM
1      C1     -0.0184    1.5028    0.0103 C.3      1 ZINC000003823565   -0.1700
2      C2      0.0021   -0.0041    0.0020 C.2      1 ZINC000003823565    0.5300
3      O3      0.0203   -0.6163    1.0493 O.2      1 ZINC000003823565   -0.5400
4      N4      0.0001   -0.6716   -1.1688 N.am     1 ZINC000003823565   -0.4700
5      N5     -0.0152    0.0344   -2.3804 N.2      1 ZINC000003823565   -0.2600
6      C6     -1.1165    0.0815   -3.0864 C.2      1 ZINC000003823565    0.2600
7      C7     -1.1443    0.7909   -4.3847 C.ar     1 ZINC000003823565   -0.1300
8      C8     -2.3242    0.8414   -5.1289 C.ar     1 ZINC000003823565   -0.0300
9      C9     -2.3472    1.5027   -6.3375 C.ar     1 ZINC000003823565   -0.2000
10     C10    -1.1963    2.1195   -6.8161 C.ar     1 ZINC000003823565    0.2400
11     N11    -1.2225    2.7882   -8.0400 N.pl3    1 ZINC000003823565   -0.8700
12     C12    -0.0195    2.0712   -6.0767 C.ar     1 ZINC000003823565   -0.2100
13     C13     0.0079    1.4158   -4.8649 C.ar     1 ZINC000003823565   -0.0100
14     C14    -2.3324   -0.5837   -2.5704 C.ar     1 ZINC000003823565   -0.1000
15     C15    -3.5438    0.1070   -2.5307 C.ar     1 ZINC000003823565   -0.0700
16     C16    -4.6752   -0.5089   -2.0289 C.ar     1 ZINC000003823565    0.0300
17     C17    -4.6064   -1.8208   -1.5616 C.ar     1 ZINC000003823565    0.0600
18     C18    -3.4037   -2.5113   -1.6071 C.ar     1 ZINC000003823565   -0.1000
19     C19    -2.2757   -1.9057   -2.1138 C.ar     1 ZINC000003823565   -0.0400
20     C20    -0.9779   -2.6704   -2.2096 C.3      1 ZINC000003823565   -0.1000
21     C21     0.0198   -2.1299   -1.1789 C.3      1 ZINC000003823565    0.1400
22     H22    -0.2508   -2.4981   -0.1893 H        1 ZINC000003823565    0.1100
23     C23     1.4254   -2.6201   -1.5323 C.3      1 ZINC000003823565   -0.1600
24     O24    -5.8427   -2.1906   -1.1172 O.3      1 ZINC000003823565   -0.3000
25     C25    -6.5721   -0.9618   -0.9416 C.3      1 ZINC000003823565    0.2100
26     O26    -5.9567   -0.0611   -1.8812 O.3      1 ZINC000003823565   -0.3000
27     H27     1.0042    1.8801    0.0026 H        1 ZINC000003823565    0.1000
28     H28    -0.5455    1.8639   -0.8728 H        1 ZINC000003823565    0.0800
29     H29    -0.5286    1.8543    0.9071 H        1 ZINC000003823565    0.0900
30     H30    -3.2182    0.3623   -4.7578 H        1 ZINC000003823565    0.1300
31     H31    -3.2597    1.5417   -6.9138 H        1 ZINC000003823565    0.1300
32     H32    -2.0429    2.8227   -8.5563 H        1 ZINC000003823565    0.4000
33     H33    -0.4203    3.2187   -8.3747 H        1 ZINC000003823565    0.4000
34     H34     0.8728    2.5510   -6.4508 H        1 ZINC000003823565    0.1300
35     H35     0.9221    1.3786   -4.2911 H        1 ZINC000003823565    0.1400
36     H36    -3.5977    1.1234   -2.8918 H        1 ZINC000003823565    0.1500
37     H37    -3.3520   -3.5269   -1.2432 H        1 ZINC000003823565    0.1400
38     H38    -1.1641   -3.7267   -2.0154 H        1 ZINC000003823565    0.1000
39     H39    -0.5612   -2.5540   -3.2100 H        1 ZINC000003823565    0.0900
40     H40     1.6961   -2.2619   -2.5256 H        1 ZINC000003823565    0.0600
41     H41     2.1380   -2.2377   -0.8015 H        1 ZINC000003823565    0.0600
42     H42     1.4435   -3.7099   -1.5217 H        1 ZINC000003823565    0.0700
43     H43    -7.6258   -1.1043   -1.1815 H        1 ZINC000003823565    0.1400
44     H44    -6.4571   -0.5903    0.0767 H        1 ZINC000003823565    0.0900
@<TRIPOS>BOND
1     1     2     1
2     1     27    1
3     1     28    1
4     1     29    1
5     2     3     2
6     2     4     am
7     4     21    1
8     4     5     1
9     5     6     2
10    6     7     1
11    6     14    1
12    7     13    ar
13    7     8     ar
14    8     9     ar
15    8     30    1
16    9     10    ar
17    9     31    1
18    10    11    1
19    10    12    ar
20    11    32    1
21    11    33    1
22    12    13    ar
23    12    34    1
24    13    35    1
25    14    19    ar
26    14    15    ar
27    15    16    ar
28    15    36    1
29    16    26    1
30    16    17    ar
31    17    18    ar
32    17    24    1
33    18    19    ar
34    18    37    1
35    19    20    1
36    20    21    1
37    20    38    1
38    20    39    1
39    21    22    1
40    21    23    1
41    23    40    1
42    23    41    1
43    23    42    1
44    24    25    1
45    25    26    1
46    25    43    1
47    25    44    1
@<TRIPOS>SUBSTRUCTURE
1   ZINC000003823565 1     RESIDUE    1   A     ZIN   1
