@<TRIPOS>MOLECULE
ZINC000150345354
103   107   1     0     0
SMALL
USER_CHARGES
@<TRIPOS>ATOM
1      C1     -0.4039    2.6493   -1.1206 C.3      1 ZINC000150345354   -0.1500
2      C2     -0.2449    1.1292   -1.1915 C.3      1 ZINC000150345354   -0.1200
3      C3     -1.6171    0.4661   -1.0569 C.3      1 ZINC000150345354   -0.1200
4      C4     -1.4581   -1.0540   -1.1279 C.3      1 ZINC000150345354    0.0600
5      O5     -2.7397   -1.6734   -1.0021 O.3      1 ZINC000150345354   -0.3800
6      C6     -2.7032   -3.1009   -1.0558 C.3      1 ZINC000150345354    0.0600
7      C7     -4.1227   -3.6532   -0.9118 C.3      1 ZINC000150345354    0.0600
8      O8     -4.9062   -3.2525   -2.0377 O.3      1 ZINC000150345354   -0.3000
9      C9     -6.2013   -3.6631   -2.0657 C.ar     1 ZINC000150345354    0.1400
10     C10    -6.7069   -4.4314   -1.0259 C.ar     1 ZINC000150345354   -0.2100
11     C11    -8.0210   -4.8493   -1.0513 C.ar     1 ZINC000150345354   -0.0700
12     C12    -8.8416   -4.4994   -2.1222 C.ar     1 ZINC000150345354   -0.0900
13     C13   -10.2558   -4.9469   -2.1523 C.ar     1 ZINC000150345354   -0.0300
14     C14   -10.7633   -5.7146   -1.1017 C.ar     1 ZINC000150345354   -0.0900
15     C15   -12.0731   -6.1486   -1.1303 C.ar     1 ZINC000150345354   -0.1400
16     C16   -12.8871   -5.8184   -2.1998 C.ar     1 ZINC000150345354    0.1100
17     C17   -12.4012   -5.0194   -3.2522 C.ar     1 ZINC000150345354   -0.0500
18     C18   -11.0683   -4.5951   -3.2219 C.ar     1 ZINC000150345354   -0.0900
19     C19   -13.2783   -4.6024   -4.3427 C.2      1 ZINC000150345354    0.0100
20     C20   -14.3955   -3.8857   -4.1094 C.2      1 ZINC000150345354   -0.1700
21     C21   -15.3047   -3.5427   -5.2009 C.2      1 ZINC000150345354    0.5700
22     O22   -15.0567   -3.9051   -6.3364 O.2      1 ZINC000150345354   -0.5200
23     N23   -16.4178   -2.8252   -4.9505 N.am     1 ZINC000150345354   -0.6700
24     C24   -17.2345   -2.4103   -6.0069 C.ar     1 ZINC000150345354    0.2000
25     C25   -17.8741   -1.1786   -5.9499 C.ar     1 ZINC000150345354   -0.1600
26     C26   -18.6800   -0.7718   -6.9950 C.ar     1 ZINC000150345354   -0.0200
27     C27   -18.8510   -1.5894   -8.0971 C.ar     1 ZINC000150345354   -0.4900
28     S28   -19.8807   -1.0668   -9.4280 S.o      1 ZINC000150345354    1.3500
29     O29   -20.2634   -2.2926  -10.0364 O.2      1 ZINC000150345354   -0.8200
30     C30   -18.7263   -0.1864  -10.5156 C.3      1 ZINC000150345354   -0.4200
31     C31   -19.4675    0.3307  -11.7215 C.2      1 ZINC000150345354    0.0800
32     C32   -19.6578   -0.3184  -12.8860 C.2      1 ZINC000150345354    0.0100
33     N33   -20.3639    0.4831  -13.6972 N.pl3    1 ZINC000150345354   -0.4700
34     H34   -20.6419    0.2639  -14.6003 H        1 ZINC000150345354    0.4700
35     C35   -20.6184    1.6042  -13.0797 C.cat    1 ZINC000150345354    0.2900
36     N36   -20.0817    1.5480  -11.8417 N.pl3    1 ZINC000150345354   -0.4100
37     C37   -20.1379    2.5978  -10.8214 C.3      1 ZINC000150345354    0.0800
38     C38   -18.8671    3.4469  -10.8927 C.3      1 ZINC000150345354   -0.1500
39     C39   -18.9259    4.5433   -9.8271 C.3      1 ZINC000150345354   -0.1600
40     C40   -18.2154   -2.8160   -8.1572 C.ar     1 ZINC000150345354   -0.0300
41     C41   -17.4034   -3.2264   -7.1181 C.ar     1 ZINC000150345354   -0.1400
42     C42   -14.6877   -3.4442   -2.6909 C.3      1 ZINC000150345354   -0.0800
43     C43   -15.7397   -4.3626   -2.0736 C.3      1 ZINC000150345354   -0.1100
44     C44   -15.0706   -5.5304   -1.3527 C.3      1 ZINC000150345354    0.0500
45     N45   -14.2037   -6.2805   -2.2697 N.3      1 ZINC000150345354   -0.5000
46     C46   -14.2708   -7.7223   -1.9964 C.3      1 ZINC000150345354    0.0600
47     C47   -15.6699   -8.2410   -2.3347 C.3      1 ZINC000150345354   -0.0900
48     C48   -15.9372   -8.0498   -3.8290 C.3      1 ZINC000150345354   -0.1400
49     C49   -15.7605   -9.7281   -1.9865 C.3      1 ZINC000150345354   -0.1500
50     C50    -8.3310   -3.7279   -3.1647 C.ar     1 ZINC000150345354   -0.0700
51     C51    -7.0175   -3.3085   -3.1311 C.ar     1 ZINC000150345354   -0.1500
52     H52     0.5737    3.1217   -1.2165 H        1 ZINC000150345354    0.0600
53     H53    -1.0508    2.9852   -1.9309 H        1 ZINC000150345354    0.0600
54     H54    -0.8478    2.9239   -0.1637 H        1 ZINC000150345354    0.0600
55     H55     0.1990    0.8546   -2.1484 H        1 ZINC000150345354    0.0600
56     H56     0.4021    0.7933   -0.3812 H        1 ZINC000150345354    0.0600
57     H57    -2.0610    0.7407   -0.1000 H        1 ZINC000150345354    0.0700
58     H58    -2.2640    0.8020   -1.8673 H        1 ZINC000150345354    0.0700
59     H59    -1.0142   -1.3286   -2.0848 H        1 ZINC000150345354    0.0500
60     H60    -0.8111   -1.3899   -0.3175 H        1 ZINC000150345354    0.0500
61     H61    -2.2851   -3.4179   -2.0112 H        1 ZINC000150345354    0.0600
62     H62    -2.0820   -3.4792   -0.2439 H        1 ZINC000150345354    0.0700
63     H63    -4.0860   -4.7415   -0.8636 H        1 ZINC000150345354    0.0800
64     H64    -4.5731   -3.2640    0.0013 H        1 ZINC000150345354    0.0700
65     H65    -6.0705   -4.7025   -0.1965 H        1 ZINC000150345354    0.1300
66     H66    -8.4138   -5.4473   -0.2423 H        1 ZINC000150345354    0.1300
67     H67   -10.1293   -5.9696   -0.2653 H        1 ZINC000150345354    0.1300
68     H68   -12.4624   -6.7456   -0.3189 H        1 ZINC000150345354    0.1300
69     H69   -10.6700   -4.0029   -4.0325 H        1 ZINC000150345354    0.1300
70     H70   -13.0263   -4.8737   -5.3573 H        1 ZINC000150345354    0.1300
71     H71   -16.6524   -2.5967   -4.0375 H        1 ZINC000150345354    0.4200
72     H72   -17.7415   -0.5400   -5.0891 H        1 ZINC000150345354    0.1400
73     H73   -19.1776    0.1857   -6.9513 H        1 ZINC000150345354    0.1400
74     H74   -18.2838    0.6501   -9.9748 H        1 ZINC000150345354    0.1400
75     H75   -17.9390   -0.8680  -10.8377 H        1 ZINC000150345354    0.1300
76     H76   -19.3040   -1.3104  -13.1249 H        1 ZINC000150345354    0.2200
77     H77   -21.1702    2.4373  -13.4893 H        1 ZINC000150345354    0.2600
78     H78   -21.0079    3.2302  -10.9983 H        1 ZINC000150345354    0.1300
79     H79   -20.2151    2.1415   -9.8345 H        1 ZINC000150345354    0.1300
80     H80   -17.9972    2.8145  -10.7158 H        1 ZINC000150345354    0.0800
81     H81   -18.7899    3.9032  -11.8796 H        1 ZINC000150345354    0.0800
82     H82   -19.7958    5.1757  -10.0041 H        1 ZINC000150345354    0.0700
83     H83   -19.0031    4.0870   -8.8402 H        1 ZINC000150345354    0.0700
84     H84   -18.0205    5.1482   -9.8779 H        1 ZINC000150345354    0.0700
85     H85   -18.3507   -3.4520   -9.0195 H        1 ZINC000150345354    0.1300
86     H86   -16.9070   -4.1843   -7.1657 H        1 ZINC000150345354    0.1500
87     H87   -13.7728   -3.4920   -2.1003 H        1 ZINC000150345354    0.0800
88     H88   -15.0604   -2.4199   -2.6993 H        1 ZINC000150345354    0.0700
89     H89   -16.3400   -3.7959   -1.3619 H        1 ZINC000150345354    0.0700
90     H90   -16.3877   -4.7485   -2.8606 H        1 ZINC000150345354    0.0700
91     H91   -14.4721   -5.1465   -0.5266 H        1 ZINC000150345354    0.0500
92     H92   -15.8385   -6.1965   -0.9593 H        1 ZINC000150345354    0.0800
93     H93   -13.5329   -8.2426   -2.6072 H        1 ZINC000150345354    0.0800
94     H94   -14.0617   -7.9024   -0.9419 H        1 ZINC000150345354    0.0400
95     H95   -16.4116   -7.6873   -1.7592 H        1 ZINC000150345354    0.0700
96     H96   -15.2506   -8.6717   -4.4034 H        1 ZINC000150345354    0.0500
97     H97   -16.9638   -8.3384   -4.0543 H        1 ZINC000150345354    0.0500
98     H98   -15.7875   -7.0032   -4.0939 H        1 ZINC000150345354    0.0600
99     H99   -15.5700   -9.8643   -0.9220 H        1 ZINC000150345354    0.0500
100    H100  -16.7572  -10.0976   -2.2275 H        1 ZINC000150345354    0.0600
101    H101  -15.0187  -10.2818   -2.5621 H        1 ZINC000150345354    0.0600
102    H102   -8.9644   -3.4552   -3.9958 H        1 ZINC000150345354    0.1300
103    H103   -6.6213   -2.7107   -3.9386 H        1 ZINC000150345354    0.1300
@<TRIPOS>BOND
1     1     2     1
2     1     52    1
3     1     53    1
4     1     54    1
5     2     3     1
6     2     55    1
7     2     56    1
8     3     4     1
9     3     57    1
10    3     58    1
11    4     5     1
12    4     59    1
13    4     60    1
14    5     6     1
15    6     7     1
16    6     61    1
17    6     62    1
18    7     8     1
19    7     63    1
20    7     64    1
21    8     9     1
22    9     51    ar
23    9     10    ar
24    10    11    ar
25    10    65    1
26    11    12    ar
27    11    66    1
28    12    13    1
29    12    50    ar
30    13    18    ar
31    13    14    ar
32    14    15    ar
33    14    67    1
34    15    16    ar
35    15    68    1
36    16    45    1
37    16    17    ar
38    17    18    ar
39    17    19    1
40    18    69    1
41    19    20    2
42    19    70    1
43    20    21    1
44    20    42    1
45    21    22    2
46    21    23    am
47    23    24    1
48    23    71    1
49    24    41    ar
50    24    25    ar
51    25    26    ar
52    25    72    1
53    26    27    ar
54    26    73    1
55    27    28    1
56    27    40    ar
57    28    29    2
58    28    30    1
59    30    31    1
60    30    74    1
61    30    75    1
62    31    36    1
63    31    32    2
64    32    33    1
65    32    76    1
66    33    34    1
67    33    35    ar
68    35    36    ar
69    35    77    1
70    36    37    1
71    37    38    1
72    37    78    1
73    37    79    1
74    38    39    1
75    38    80    1
76    38    81    1
77    39    82    1
78    39    83    1
79    39    84    1
80    40    41    ar
81    40    85    1
82    41    86    1
83    42    43    1
84    42    87    1
85    42    88    1
86    43    44    1
87    43    89    1
88    43    90    1
89    44    45    1
90    44    91    1
91    44    92    1
92    45    46    1
93    46    47    1
94    46    93    1
95    46    94    1
96    47    48    1
97    47    49    1
98    47    95    1
99    48    96    1
100   48    97    1
101   48    98    1
102   49    99    1
103   49    100   1
104   49    101   1
105   50    51    ar
106   50    102   1
107   51    103   1
@<TRIPOS>SUBSTRUCTURE
1   ZINC000150345354 1     RESIDUE    1   A     ZIN   1
