@<TRIPOS>MOLECULE
ZINC000013735025
  46   51    0    0    0
SMALL
USER_CHARGES
NO_NAME
@<TRIPOS>ATOM
    1 O1        0.7750     1.8992     0.6265 O.2    1 <0>      -0.5000
    2 C2       -0.0144     1.2115     0.0087 C.2    1 <0>       0.5700
    3 C3        0.0541    -0.2618     0.1070 C.ar   1 <0>      -0.1400
    4 C4       -1.1154    -1.0097     0.2540 C.ar   1 <0>      -0.0900
    5 C5       -1.0445    -2.3844     0.3446 C.ar   1 <0>      -0.1200
    6 C6        0.1823    -3.0220     0.2901 C.ar   1 <0>      -0.0900
    7 C7        1.3452    -2.2867     0.1445 C.ar   1 <0>      -0.1200
    8 C8        1.2880    -0.9117     0.0473 C.ar   1 <0>      -0.0600
    9 N9       -0.9555     1.7925    -0.7615 N.am   1 <0>      -0.5600
   10 C10      -1.9582     0.9614    -1.4494 C.3    1 <0>       0.1800
   11 C11      -2.2098     1.5724    -2.8039 C.2    1 <0>      -0.0100
   12 C12      -2.6752     1.0223    -3.9402 C.2    1 <0>       0.1000
   13 C13      -3.0498    -0.3988    -4.1355 C.2    1 <0>       0.2600
   14 N14      -2.9950    -1.3475    -3.2359 N.2    1 <0>      -0.3800
   15 O15      -3.3712    -2.3969    -3.7139 O.3    1 <0>       0.0800
   16 C16      -3.7117    -2.2210    -4.9945 C.2    1 <0>       0.2200
   17 C17      -4.2272    -3.2782    -5.9366 C.3    1 <0>      -0.0800
   18 C18      -4.1917    -4.7305    -5.4565 C.3    1 <0>      -0.1600
   19 C19      -5.5270    -3.9902    -5.5564 C.3    1 <0>      -0.1500
   20 N20      -3.5179    -0.9566    -5.2754 N.2    1 <0>      -0.4500
   21 N21      -2.7393     2.0014    -4.8728 N.2    1 <0>      -0.4500
   22 C22      -2.3246     3.1259    -4.3488 C.2    1 <0>       0.2200
   23 N23      -1.9727     2.9032    -3.0689 N.pl3  1 <0>      -0.4000
   24 C24      -1.4639     3.7608    -2.0863 C.ar   1 <0>       0.1000
   25 C25      -1.4369     5.1310    -2.2555 C.ar   1 <0>      -0.1000
   26 C26      -0.9426     5.9388    -1.2462 C.ar   1 <0>      -0.1100
   27 C27      -0.4779     5.3763    -0.0717 C.ar   1 <0>      -0.1000
   28 C28      -0.4944     4.0049     0.1018 C.ar   1 <0>      -0.1000
   29 C29      -0.9818     3.1863    -0.9016 C.ar   1 <0>       0.1400
   30 H30      -2.0735    -0.5131     0.2971 H      1 <0>       0.1300
   31 H31      -1.9485    -2.9642     0.4588 H      1 <0>       0.1300
   32 H32       0.2323    -4.0985     0.3619 H      1 <0>       0.1300
   33 H33       2.2996    -2.7905     0.1030 H      1 <0>       0.1300
   34 H34       2.1964    -0.3389    -0.0666 H      1 <0>       0.1300
   35 H35      -1.5789    -0.0537    -1.5668 H      1 <0>       0.1300
   36 H36      -2.8835     0.9463    -0.8734 H      1 <0>       0.1000
   37 H37      -4.0458    -3.0933    -6.9954 H      1 <0>       0.1500
   38 H38      -3.9867    -5.5013    -6.1994 H      1 <0>       0.1200
   39 H39      -3.7954    -4.9213    -4.4592 H      1 <0>       0.1100
   40 H40      -6.0092    -3.6940    -4.6248 H      1 <0>       0.1000
   41 H41      -6.2005    -4.2741    -6.3651 H      1 <0>       0.1200
   42 H42      -2.2730     4.0763    -4.8591 H      1 <0>       0.2200
   43 H43      -1.8006     5.5709    -3.1724 H      1 <0>       0.1400
   44 H44      -0.9194     7.0107    -1.3765 H      1 <0>       0.1400
   45 H45      -0.0993     6.0122     0.7149 H      1 <0>       0.1400
   46 H46      -0.1302     3.5720     1.0218 H      1 <0>       0.1600
@<TRIPOS>BOND
   1    1    2 2
   2    2    3 1
   3    2    9 am
   4    3    8 ar
   5    3    4 ar
   6    4    5 ar
   7    4   30 1
   8    5    6 ar
   9    5   31 1
  10    6    7 ar
  11    6   32 1
  12    7    8 ar
  13    7   33 1
  14    8   34 1
  15    9   29 1
  16    9   10 1
  17   10   11 1
  18   10   35 1
  19   10   36 1
  20   11   23 1
  21   11   12 2
  22   12   13 1
  23   12   21 1
  24   13   20 1
  25   13   14 2
  26   14   15 1
  27   15   16 1
  28   16   17 1
  29   16   20 2
  30   17   19 1
  31   17   18 1
  32   17   37 1
  33   18   19 1
  34   18   38 1
  35   18   39 1
  36   19   40 1
  37   19   41 1
  38   21   22 2
  39   22   23 1
  40   22   42 1
  41   23   24 1
  42   24   29 ar
  43   24   25 ar
  44   25   26 ar
  45   25   43 1
  46   26   27 ar
  47   26   44 1
  48   27   28 ar
  49   27   45 1
  50   28   29 ar
  51   28   46 1
