@<TRIPOS>MOLECULE
ZINC000008577213
54    56    1     0     0
SMALL
USER_CHARGES
@<TRIPOS>ATOM
1      N1     -0.0165    1.3652    0.0095 N.pl3    1 ZINC000008577213   -0.8400
2      C2      0.0021   -0.0041    0.0020 C.2      1 ZINC000008577213    0.6000
3      N3     -1.1361   -0.6643    0.0039 N.2      1 ZINC000008577213   -0.7100
4      C4     -1.1610   -2.0041   -0.0029 C.2      1 ZINC000008577213    0.4600
5      C5      0.0269   -2.7129   -0.0083 C.2      1 ZINC000008577213   -0.4400
6      C6      0.0533   -4.2166   -0.0088 C.3      1 ZINC000008577213   -0.0100
7      C7     -1.2853   -4.7721   -0.4973 C.3      1 ZINC000008577213   -0.1000
8      H8     -1.4028   -4.5606   -1.5601 H        1 ZINC000008577213    0.0700
9      C9     -1.3279   -6.2841   -0.2673 C.3      1 ZINC000008577213   -0.1100
10     C10    -2.6135   -6.8554   -0.8687 C.3      1 ZINC000008577213   -0.0800
11     C11    -2.6555   -8.3447   -0.6423 C.ar     1 ZINC000008577213   -0.0700
12     C12    -2.1038   -9.1997   -1.5797 C.ar     1 ZINC000008577213   -0.1300
13     C13    -2.1393  -10.5641   -1.3787 C.ar     1 ZINC000008577213   -0.0600
14     C14    -2.7331  -11.0813   -0.2263 C.ar     1 ZINC000008577213   -0.1200
15     C15    -2.7743  -12.5424   -0.0041 C.2      1 ZINC000008577213    0.5500
16     O16    -2.2904  -13.2960   -0.8259 O.2      1 ZINC000008577213   -0.5600
17     N17    -3.3483  -13.0388    1.1097 N.am     1 ZINC000008577213   -0.6800
18     C18    -3.3891  -14.4865    1.3299 C.3      1 ZINC000008577213    0.0700
19     H19    -2.4806  -14.9401    0.9338 H        1 ZINC000008577213    0.0800
20     C20    -3.4894  -14.7717    2.8298 C.3      1 ZINC000008577213   -0.0800
21     C21    -2.2144  -14.2921    3.5264 C.3      1 ZINC000008577213   -0.1800
22     C22    -2.3131  -14.5730    5.0037 C.2      1 ZINC000008577213    0.4900
23     O23    -3.3108  -15.1072    5.4573 O.co2    1 ZINC000008577213   -0.7000
24     O24    -1.3953  -14.2660    5.7453 O.co2    1 ZINC000008577213   -0.7200
25     C25    -4.5885  -15.0680    0.6268 C.2      1 ZINC000008577213    0.5000
26     O26    -4.5528  -16.2112    0.2045 O.co2    1 ZINC000008577213   -0.7000
27     O27    -5.5947  -14.3952    0.4802 O.co2    1 ZINC000008577213   -0.7000
28     C28    -3.2874  -10.2132    0.7157 C.ar     1 ZINC000008577213   -0.0800
29     C29    -3.2406   -8.8506    0.5049 C.ar     1 ZINC000008577213   -0.1300
30     C30    -2.4163   -4.0969    0.2897 C.3      1 ZINC000008577213    0.1400
31     N31    -2.3780   -2.6590   -0.0088 N.pl3    1 ZINC000008577213   -0.7400
32     C32     1.2340   -2.0032   -0.0117 C.2      1 ZINC000008577213    0.5300
33     O33     2.3019   -2.5950   -0.0186 O.2      1 ZINC000008577213   -0.6300
34     N34     1.1973   -0.6547   -0.0129 N.pl3    1 ZINC000008577213   -0.7200
35     H35     0.8169    1.8615    0.0043 H        1 ZINC000008577213    0.4000
36     H36    -0.8630    1.8387    0.0161 H        1 ZINC000008577213    0.3900
37     H37     0.8496   -4.5631   -0.6676 H        1 ZINC000008577213    0.0500
38     H38     0.2447   -4.5744    1.0029 H        1 ZINC000008577213    0.0400
39     H39    -0.4655   -6.7487   -0.7452 H        1 ZINC000008577213    0.0700
40     H40    -1.3049   -6.4896    0.8029 H        1 ZINC000008577213    0.0700
41     H41    -3.4760   -6.3907   -0.3909 H        1 ZINC000008577213    0.0700
42     H42    -2.6366   -6.6498   -1.9389 H        1 ZINC000008577213    0.0700
43     H43    -1.6447   -8.7982   -2.4710 H        1 ZINC000008577213    0.1200
44     H44    -1.7089  -11.2305   -2.1115 H        1 ZINC000008577213    0.1300
45     H45    -3.7345  -12.4374    1.7656 H        1 ZINC000008577213    0.3900
46     H46    -4.3494  -14.2448    3.2431 H        1 ZINC000008577213    0.0600
47     H47    -3.6091  -15.8434    2.9887 H        1 ZINC000008577213    0.0700
48     H48    -1.3544  -14.8190    3.1131 H        1 ZINC000008577213    0.0500
49     H49    -2.0947  -13.2204    3.3675 H        1 ZINC000008577213    0.0500
50     H50    -3.7486  -10.6071    1.6093 H        1 ZINC000008577213    0.1300
51     H51    -3.6688   -8.1778    1.2331 H        1 ZINC000008577213    0.1200
52     H52    -3.3769   -4.5115   -0.0160 H        1 ZINC000008577213    0.0700
53     H53    -2.2683   -4.2559    1.3578 H        1 ZINC000008577213    0.0500
54     H54    -3.1955   -2.1760   -0.2071 H        1 ZINC000008577213    0.3900
@<TRIPOS>BOND
1     1     2     1
2     1     35    1
3     1     36    1
4     2     34    1
5     2     3     2
6     3     4     1
7     4     31    1
8     4     5     2
9     5     6     1
10    5     32    1
11    6     7     1
12    6     37    1
13    6     38    1
14    7     8     1
15    7     9     1
16    7     30    1
17    9     10    1
18    9     39    1
19    9     40    1
20    10    11    1
21    10    41    1
22    10    42    1
23    11    29    ar
24    11    12    ar
25    12    13    ar
26    12    43    1
27    13    14    ar
28    13    44    1
29    14    15    1
30    14    28    ar
31    15    16    2
32    15    17    am
33    17    18    1
34    17    45    1
35    18    19    1
36    18    20    1
37    18    25    1
38    20    21    1
39    20    46    1
40    20    47    1
41    21    22    1
42    21    48    1
43    21    49    1
44    22    23    ar
45    22    24    ar
46    25    26    ar
47    25    27    ar
48    28    29    ar
49    28    50    1
50    29    51    1
51    30    31    1
52    30    52    1
53    30    53    1
54    31    54    1
55    32    33    2
56    32    34    1
@<TRIPOS>SUBSTRUCTURE
1   ZINC000008577213 1     RESIDUE    1   A     ZIN   1
