@<TRIPOS>MOLECULE
ZINC000253665303
57    60    1     0     0
SMALL
USER_CHARGES
@<TRIPOS>ATOM
1      C1     -0.0528    1.3656   -0.2281 C.3      1 ZINC000253665303   -0.1400
2      C2      0.0651   -0.1546   -0.1016 C.3      1 ZINC000253665303   -0.1200
3      H3     -0.9235   -0.6113   -0.1479 H        1 ZINC000253665303    0.0900
4      C4      0.9652   -0.7157   -1.2363 C.3      1 ZINC000253665303   -0.1100
5      C5      2.3432   -0.8015   -0.5708 C.3      1 ZINC000253665303   -0.0900
6      H6      2.7883    0.1901   -0.4882 H        1 ZINC000253665303    0.1000
7      C7      3.3243   -1.7703   -1.2032 C.3      1 ZINC000253665303   -0.0800
8      H8      2.8969   -2.7726   -1.2322 H        1 ZINC000253665303    0.1100
9      C9      3.6902   -1.3100   -2.6202 C.3      1 ZINC000253665303   -0.1200
10     C10     4.4609   -2.4481   -3.2919 C.3      1 ZINC000253665303   -0.0900
11     C11     5.5583   -2.9408   -2.3952 C.2      1 ZINC000253665303   -0.0400
12     C12     6.4928   -3.7671   -2.9200 C.2      1 ZINC000253665303   -0.2300
13     C13     7.5120   -4.2520   -1.9493 C.2      1 ZINC000253665303    0.4100
14     O14     8.6944   -4.3315   -2.2253 O.2      1 ZINC000253665303   -0.4500
15     C15     6.9726   -4.6317   -0.6141 C.2      1 ZINC000253665303   -0.2300
16     C16     6.0367   -3.7935   -0.1176 C.2      1 ZINC000253665303   -0.0900
17     C17     5.6897   -2.5925   -0.9517 C.3      1 ZINC000253665303   -0.0100
18     C18     6.9368   -1.7089   -0.8811 C.3      1 ZINC000253665303   -0.1600
19     C19     4.5946   -1.7611   -0.3452 C.3      1 ZINC000253665303    0.0700
20     Cl20    5.1751   -0.0543   -0.3234 Cl       1 ZINC000253665303   -0.1600
21     C21     4.3268   -2.1492    1.1045 C.3      1 ZINC000253665303    0.1100
22     H22     5.2441   -2.0307    1.6812 H        1 ZINC000253665303    0.0800
23     O23     3.9159   -3.5170    1.1546 O.3      1 ZINC000253665303   -0.5400
24     C24     3.2256   -1.2706    1.7229 C.3      1 ZINC000253665303   -0.1300
25     C25     1.9781   -1.3535    0.8343 C.3      1 ZINC000253665303   -0.0400
26     C26     1.5738   -2.8172    0.6474 C.3      1 ZINC000253665303   -0.1700
27     C27     0.7600   -0.5249    1.2324 C.3      1 ZINC000253665303    0.1100
28     O28     1.1673    0.6378    1.9565 O.3      1 ZINC000253665303   -0.5300
29     C29    -0.1865   -1.3534    2.0624 C.2      1 ZINC000253665303    0.3300
30     O30    -1.0846   -1.9596    1.5294 O.2      1 ZINC000253665303   -0.4100
31     C31    -0.0121   -1.4253    3.5576 C.3      1 ZINC000253665303    0.0300
32     O32    -1.0241   -2.2662    4.1152 O.3      1 ZINC000253665303   -0.5600
33     H33     0.9414    1.8113   -0.1932 H        1 ZINC000253665303    0.0700
34     H34    -0.5299    1.6155   -1.1757 H        1 ZINC000253665303    0.0600
35     H35    -0.6537    1.7531    0.5946 H        1 ZINC000253665303    0.0500
36     H36     0.6243   -1.7036   -1.5460 H        1 ZINC000253665303    0.0700
37     H37     0.9884   -0.0312   -2.0842 H        1 ZINC000253665303    0.0800
38     H38     2.7831   -1.0941   -3.1847 H        1 ZINC000253665303    0.0800
39     H39     4.3161   -0.4191   -2.5695 H        1 ZINC000253665303    0.0800
40     H40     3.7761   -3.2686   -3.5065 H        1 ZINC000253665303    0.0900
41     H41     4.8934   -2.0879   -4.2253 H        1 ZINC000253665303    0.0900
42     H42     6.4989   -4.0522   -3.9617 H        1 ZINC000253665303    0.1500
43     H43     7.3044   -5.5115   -0.0828 H        1 ZINC000253665303    0.1500
44     H44     5.5600   -3.9779    0.8338 H        1 ZINC000253665303    0.1800
45     H45     7.7908   -2.2529   -1.2848 H        1 ZINC000253665303    0.0600
46     H46     6.7739   -0.8032   -1.4652 H        1 ZINC000253665303    0.0900
47     H47     7.1342   -1.4413    0.1569 H        1 ZINC000253665303    0.0700
48     H48     3.7266   -3.8383    2.0468 H        1 ZINC000253665303    0.3800
49     H49     3.0112   -1.6046    2.7380 H        1 ZINC000253665303    0.0800
50     H50     3.5456   -0.2286    1.7344 H        1 ZINC000253665303    0.0900
51     H51     1.4489   -3.2871    1.6229 H        1 ZINC000253665303    0.0500
52     H52     0.6342   -2.8672    0.0971 H        1 ZINC000253665303    0.0600
53     H53     2.3501   -3.3401    0.0889 H        1 ZINC000253665303    0.1100
54     H54     0.4346    1.2036    2.2362 H        1 ZINC000253665303    0.3800
55     H55     0.9703   -1.8365    3.7894 H        1 ZINC000253665303    0.0800
56     H56    -0.0966   -0.4248    3.9818 H        1 ZINC000253665303    0.0800
57     H57    -0.9731   -2.3586    5.0764 H        1 ZINC000253665303    0.3900
@<TRIPOS>BOND
1     1     2     1
2     1     33    1
3     1     34    1
4     1     35    1
5     2     3     1
6     2     27    1
7     2     4     1
8     4     5     1
9     4     36    1
10    4     37    1
11    5     6     1
12    5     25    1
13    5     7     1
14    7     8     1
15    7     19    1
16    7     9     1
17    9     10    1
18    9     38    1
19    9     39    1
20    10    11    1
21    10    40    1
22    10    41    1
23    11    17    1
24    11    12    2
25    12    13    1
26    12    42    1
27    13    14    2
28    13    15    1
29    15    16    2
30    15    43    1
31    16    17    1
32    16    44    1
33    17    18    1
34    17    19    1
35    18    45    1
36    18    46    1
37    18    47    1
38    19    20    1
39    19    21    1
40    21    22    1
41    21    23    1
42    21    24    1
43    23    48    1
44    24    25    1
45    24    49    1
46    24    50    1
47    25    26    1
48    25    27    1
49    26    51    1
50    26    52    1
51    26    53    1
52    27    28    1
53    27    29    1
54    28    54    1
55    29    30    2
56    29    31    1
57    31    32    1
58    31    55    1
59    31    56    1
60    32    57    1
@<TRIPOS>SUBSTRUCTURE
1   ZINC000253665303 1     RESIDUE    1   A     ZIN   1
