@<TRIPOS>MOLECULE
ZINC000022042561
  54   56    0    0    0
SMALL
USER_CHARGES
NO_NAME
@<TRIPOS>ATOM
    1 C1       -0.0187     1.5258     0.0104 C.3    1 <0>      -0.1900
    2 C2        0.0021    -0.0041     0.0020 C.3    1 <0>       0.0900
    3 H3        0.5123    -0.3556    -0.8948 H      1 <0>       0.0800
    4 C4       -1.4333    -0.5336     0.0129 C.3    1 <0>      -0.0800
    5 C5       -1.4159    -2.0348    -0.1192 C.ar   1 <0>      -0.0700
    6 C6       -1.4497    -2.6188    -1.3716 C.ar   1 <0>      -0.1200
    7 C7       -1.4338    -3.9958    -1.4928 C.ar   1 <0>      -0.1200
    8 C8       -1.3836    -4.7886    -0.3615 C.ar   1 <0>      -0.1300
    9 C9       -1.3488    -4.2045     0.8909 C.ar   1 <0>      -0.1200
   10 C10      -1.3605    -2.8275     1.0119 C.ar   1 <0>      -0.1000
   11 N11       0.7126    -0.4907     1.1921 N.3    1 <0>      -0.5200
   12 C12       0.0021    -0.1115     2.4214 C.3    1 <0>       0.0500
   13 C13       0.7294    -0.7034     3.6310 C.3    1 <0>       0.0600
   14 N14       2.1147    -0.2135     3.6544 N.3    1 <0>      -0.5200
   15 C15       2.8252    -0.7001     4.8445 C.3    1 <0>       0.0900
   16 H16       2.2244    -0.5029     5.7323 H      1 <0>       0.0800
   17 C17       3.0651    -2.2057     4.7152 C.3    1 <0>      -0.1900
   18 C18       4.1686     0.0217     4.9671 C.3    1 <0>      -0.0700
   19 C19       3.9298     1.4884     5.2173 C.ar   1 <0>      -0.0700
   20 C20       3.8142     2.3615     4.1518 C.ar   1 <0>      -0.0900
   21 C21       3.5951     3.7070     4.3813 C.ar   1 <0>      -0.1200
   22 C22       3.4912     4.1793     5.6763 C.ar   1 <0>      -0.1300
   23 C23       3.6059     3.3060     6.7418 C.ar   1 <0>      -0.1200
   24 C24       3.8207     1.9599     6.5122 C.ar   1 <0>      -0.1200
   25 C25       2.8251    -0.5927     2.4251 C.3    1 <0>       0.0500
   26 C26       2.0979    -0.0008     1.2155 C.3    1 <0>       0.0600
   27 H27       1.0039     1.9031     0.0027 H      1 <0>       0.0600
   28 H28      -0.5459     1.8868    -0.8726 H      1 <0>       0.0600
   29 H29      -0.5289     1.8773     0.9072 H      1 <0>       0.0600
   30 H30      -1.9156    -0.2570     0.9504 H      1 <0>       0.0700
   31 H31      -1.9862    -0.1019    -0.8214 H      1 <0>       0.0800
   32 H32      -1.4890    -1.9994    -2.2555 H      1 <0>       0.1200
   33 H33      -1.4609    -4.4521    -2.4712 H      1 <0>       0.1200
   34 H34      -1.3718    -5.8644    -0.4561 H      1 <0>       0.1200
   35 H35      -1.3099    -4.8240     1.7747 H      1 <0>       0.1200
   36 H36      -1.3333    -2.3712     1.9904 H      1 <0>       0.1200
   37 H37      -0.0218     0.9748     2.5072 H      1 <0>       0.0500
   38 H38      -1.0171    -0.4963     2.3858 H      1 <0>       0.0800
   39 H39       0.2206    -0.3993     4.5458 H      1 <0>       0.0700
   40 H40       0.7294    -1.7910     3.5589 H      1 <0>       0.0400
   41 H41       3.5922    -2.5667     5.5982 H      1 <0>       0.0600
   42 H42       2.1080    -2.7199     4.6278 H      1 <0>       0.0600
   43 H43       3.6659    -2.4029     3.8273 H      1 <0>       0.0600
   44 H44       4.7338    -0.4013     5.7976 H      1 <0>       0.0800
   45 H45       4.7332    -0.1020     4.0430 H      1 <0>       0.0700
   46 H46       3.8954     1.9925     3.1401 H      1 <0>       0.1200
   47 H47       3.5056     4.3892     3.5489 H      1 <0>       0.1200
   48 H48       3.3208     5.2305     5.8557 H      1 <0>       0.1200
   49 H49       3.5250     3.6751     7.7536 H      1 <0>       0.1200
   50 H50       3.9103     1.2777     7.3446 H      1 <0>       0.1200
   51 H51       3.8443    -0.2079     2.4607 H      1 <0>       0.0800
   52 H52       2.8490    -1.6790     2.3393 H      1 <0>       0.0500
   53 H53       2.6066    -0.3049     0.3007 H      1 <0>       0.0800
   54 H54       2.0978     1.0868     1.2876 H      1 <0>       0.0500
@<TRIPOS>BOND
   1    1    2 1
   2    1   27 1
   3    1   28 1
   4    1   29 1
   5    2    3 1
   6    2    4 1
   7    2   11 1
   8    4    5 1
   9    4   30 1
  10    4   31 1
  11    5   10 ar
  12    5    6 ar
  13    6    7 ar
  14    6   32 1
  15    7    8 ar
  16    7   33 1
  17    8    9 ar
  18    8   34 1
  19    9   10 ar
  20    9   35 1
  21   10   36 1
  22   11   26 1
  23   11   12 1
  24   12   13 1
  25   12   37 1
  26   12   38 1
  27   13   14 1
  28   13   39 1
  29   13   40 1
  30   14   15 1
  31   14   25 1
  32   15   16 1
  33   15   17 1
  34   15   18 1
  35   17   41 1
  36   17   42 1
  37   17   43 1
  38   18   19 1
  39   18   44 1
  40   18   45 1
  41   19   24 ar
  42   19   20 ar
  43   20   21 ar
  44   20   46 1
  45   21   22 ar
  46   21   47 1
  47   22   23 ar
  48   22   48 1
  49   23   24 ar
  50   23   49 1
  51   24   50 1
  52   25   26 1
  53   25   51 1
  54   25   52 1
  55   26   53 1
  56   26   54 1
