@<TRIPOS>MOLECULE
ZINC000011726230
57    60    1     0     0
SMALL
USER_CHARGES
@<TRIPOS>ATOM
1      C1     -0.0184    1.5028    0.0103 C.3      1 ZINC000011726230   -0.1200
2      C2      0.0021   -0.0041    0.0020 C.ar     1 ZINC000011726230   -0.0900
3      C3      0.0057   -0.6885   -1.1987 C.ar     1 ZINC000011726230   -0.1100
4      C4      0.0245   -2.0710   -1.2063 C.ar     1 ZINC000011726230   -0.1200
5      C5      0.0400   -2.7685   -0.0132 C.ar     1 ZINC000011726230   -0.1000
6      C6      0.0373   -2.0838    1.1879 C.ar     1 ZINC000011726230   -0.0800
7      C7      0.0538   -2.8443    2.4888 C.3      1 ZINC000011726230    0.0500
8      N8      1.4402   -3.0728    2.9033 N.2      1 ZINC000011726230   -0.1400
9      N9      1.8455   -2.6246    3.9861 N.2      1 ZINC000011726230   -0.2000
10     C10     3.1459   -2.8389    4.3749 C.ar     1 ZINC000011726230    0.3500
11     C11     3.6102   -2.3450    5.5915 C.ar     1 ZINC000011726230   -0.2200
12     C12     4.9400   -2.5894    5.9414 C.ar     1 ZINC000011726230    0.4000
13     N13     5.4484   -2.1190    7.1412 N.3      1 ZINC000011726230   -0.4700
14     C14     5.2797   -0.6627    7.2501 C.3      1 ZINC000011726230    0.0200
15     C15     5.7991   -0.1946    8.6121 C.3      1 ZINC000011726230    0.0600
16     O16     7.1645   -0.5940    8.7588 O.3      1 ZINC000011726230   -0.3800
17     C17     7.3652   -2.0065    8.6588 C.3      1 ZINC000011726230    0.0600
18     C18     6.8616   -2.4929    7.2973 C.3      1 ZINC000011726230    0.0300
19     N19     5.7107   -3.2797    5.1076 N.ar     1 ZINC000011726230   -0.5500
20     C20     5.2337   -3.7334    3.9594 C.ar     1 ZINC000011726230    0.5400
21     O21     6.0520   -4.4330    3.1373 O.3      1 ZINC000011726230   -0.2900
22     C22     5.4914   -4.9019    1.9093 C.3      1 ZINC000011726230    0.0900
23     C23     6.5576   -5.6641    1.1201 C.3      1 ZINC000011726230   -0.0700
24     C24     5.9664   -6.1586   -0.1749 C.ar     1 ZINC000011726230    0.1300
25     C25     6.5768   -5.8353   -1.3718 C.ar     1 ZINC000011726230   -0.1600
26     C26     6.0250   -6.2957   -2.5577 C.ar     1 ZINC000011726230   -0.0700
27     C27     4.8750   -7.0673   -2.4946 C.ar     1 ZINC000011726230   -0.1700
28     C28     4.3205   -7.3501   -1.2604 C.ar     1 ZINC000011726230    0.1100
29     N29     4.8755   -6.8994   -0.1525 N.ar     1 ZINC000011726230   -0.4800
30     N30     3.9807   -3.5281    3.5950 N.ar     1 ZINC000011726230   -0.5700
31     C31     0.0229   -0.7017    1.1955 C.ar     1 ZINC000011726230   -0.1100
32     H32     1.0042    1.8801    0.0026 H        1 ZINC000011726230    0.0700
33     H33    -0.5455    1.8639   -0.8728 H        1 ZINC000011726230    0.0700
34     H34    -0.5286    1.8543    0.9071 H        1 ZINC000011726230    0.0700
35     H35    -0.0064   -0.1435   -2.1310 H        1 ZINC000011726230    0.1200
36     H36     0.0266   -2.6058   -2.1446 H        1 ZINC000011726230    0.1300
37     H37     0.0540   -3.8484   -0.0191 H        1 ZINC000011726230    0.1300
38     H38    -0.4637   -2.2660    3.2543 H        1 ZINC000011726230    0.0800
39     H39    -0.4484   -3.8025    2.3559 H        1 ZINC000011726230    0.1200
40     H40     2.9586   -1.7868    6.2474 H        1 ZINC000011726230    0.1600
41     H41     5.8430   -0.1708    6.4571 H        1 ZINC000011726230    0.0600
42     H42     4.2233   -0.4107    7.1572 H        1 ZINC000011726230    0.1000
43     H43     5.7288    0.8913    8.6748 H        1 ZINC000011726230    0.1100
44     H44     5.2010   -0.6451    9.4041 H        1 ZINC000011726230    0.0700
45     H45     8.4274   -2.2310    8.7554 H        1 ZINC000011726230    0.1100
46     H46     6.8126   -2.5097    9.4522 H        1 ZINC000011726230    0.0600
47     H47     6.9599   -3.5769    7.2389 H        1 ZINC000011726230    0.1000
48     H48     7.4501   -2.0302    6.5050 H        1 ZINC000011726230    0.0700
49     H49     4.6534   -5.5655    2.1225 H        1 ZINC000011726230    0.0900
50     H50     5.1421   -4.0528    1.3217 H        1 ZINC000011726230    0.0700
51     H51     7.3956   -5.0005    0.9069 H        1 ZINC000011726230    0.0900
52     H52     6.9069   -6.5132    1.7076 H        1 ZINC000011726230    0.1000
53     H53     7.4721   -5.2314   -1.3834 H        1 ZINC000011726230    0.1400
54     H54     6.4801   -6.0585   -3.5080 H        1 ZINC000011726230    0.1400
55     H55     4.4179   -7.4424   -3.3984 H        1 ZINC000011726230    0.1400
56     H56     3.4245   -7.9502   -1.2027 H        1 ZINC000011726230    0.1600
57     H57     0.0208   -0.1668    2.1337 H        1 ZINC000011726230    0.1200
@<TRIPOS>BOND
1     1     2     1
2     1     32    1
3     1     33    1
4     1     34    1
5     2     31    ar
6     2     3     ar
7     3     4     ar
8     3     35    1
9     4     5     ar
10    4     36    1
11    5     6     ar
12    5     37    1
13    6     7     1
14    6     31    ar
15    7     8     1
16    7     38    1
17    7     39    1
18    8     9     2
19    9     10    1
20    10    30    ar
21    10    11    ar
22    11    12    ar
23    11    40    1
24    12    13    1
25    12    19    ar
26    13    18    1
27    13    14    1
28    14    15    1
29    14    41    1
30    14    42    1
31    15    16    1
32    15    43    1
33    15    44    1
34    16    17    1
35    17    18    1
36    17    45    1
37    17    46    1
38    18    47    1
39    18    48    1
40    19    20    ar
41    20    21    1
42    20    30    ar
43    21    22    1
44    22    23    1
45    22    49    1
46    22    50    1
47    23    24    1
48    23    51    1
49    23    52    1
50    24    29    ar
51    24    25    ar
52    25    26    ar
53    25    53    1
54    26    27    ar
55    26    54    1
56    27    28    ar
57    27    55    1
58    28    29    ar
59    28    56    1
60    31    57    1
@<TRIPOS>SUBSTRUCTURE
1   ZINC000011726230 1     RESIDUE    1   A     ZIN   1
