@<TRIPOS>MOLECULE
ZINC000003918583
80    84    1     0     0
SMALL
USER_CHARGES
@<TRIPOS>ATOM
1      C1      0.3644    0.6928    1.5758 C.3      1 ZINC000003918583    0.1100
2      N2      0.3645   -0.7588    1.3779 N.am     1 ZINC000003918583   -0.6400
3      C3      1.6317   -1.4760    1.2171 C.3      1 ZINC000003918583    0.0800
4      C4     -0.8012   -1.4343    1.3437 C.2      1 ZINC000003918583    0.7100
5      O5     -1.8530   -0.8390    1.4771 O.2      1 ZINC000003918583   -0.5700
6      N6     -0.8011   -2.7697    1.1615 N.am     1 ZINC000003918583   -0.7400
7      C7     -2.0590   -3.5179    1.2258 C.3      1 ZINC000003918583    0.2400
8      C8     -2.7170   -3.2831    2.5611 C.ar     1 ZINC000003918583   -0.0700
9      C9     -4.0849   -3.4318    2.6933 C.ar     1 ZINC000003918583   -0.1100
10     C10    -4.6884   -3.2165    3.9182 C.ar     1 ZINC000003918583   -0.1200
11     C11    -3.9239   -2.8528    5.0110 C.ar     1 ZINC000003918583   -0.1200
12     C12    -2.5558   -2.7050    4.8790 C.ar     1 ZINC000003918583   -0.1200
13     C13    -1.9518   -2.9245    3.6551 C.ar     1 ZINC000003918583   -0.1000
14     C14    -2.9911   -3.0489    0.1051 C.3      1 ZINC000003918583   -0.1200
15     C15    -2.3424   -3.3454   -1.2488 C.3      1 ZINC000003918583    0.0600
16     N16    -2.0916   -4.7874   -1.3677 N.3      1 ZINC000003918583   -0.5300
17     C17    -1.5970   -5.1270   -2.7085 C.3      1 ZINC000003918583    0.0600
18     C18    -1.5844   -6.6475   -2.8776 C.3      1 ZINC000003918583   -0.1400
19     C19    -1.0693   -7.0012   -4.2741 C.3      1 ZINC000003918583    0.1500
20     C20     0.3299   -6.4679   -4.4445 C.ar     1 ZINC000003918583   -0.0600
21     C21     1.1652   -6.3587   -3.3488 C.ar     1 ZINC000003918583   -0.0900
22     C22     2.4492   -5.8697   -3.5026 C.ar     1 ZINC000003918583   -0.1200
23     C23     2.8994   -5.4895   -4.7546 C.ar     1 ZINC000003918583    0.0700
24     F24     4.1541   -5.0120   -4.9058 F        1 ZINC000003918583   -0.1300
25     C25     2.0613   -5.5995   -5.8541 C.ar     1 ZINC000003918583    0.0700
26     F26     2.4986   -5.2288   -7.0775 F        1 ZINC000003918583   -0.1300
27     C27     0.7784   -6.0938   -5.6976 C.ar     1 ZINC000003918583   -0.1000
28     C28    -1.0623   -8.5244   -4.4467 C.3      1 ZINC000003918583    0.1000
29     N29    -2.4561   -8.9961   -4.4623 N.am     1 ZINC000003918583   -0.6100
30     C30    -2.8544  -10.0099   -3.6684 C.2      1 ZINC000003918583    0.5700
31     O31    -2.0426  -10.5994   -2.9822 O.2      1 ZINC000003918583   -0.5300
32     C32    -4.2786  -10.4048   -3.6323 C.ar     1 ZINC000003918583   -0.1300
33     C33    -5.0013  -10.5313   -4.8197 C.ar     1 ZINC000003918583   -0.1000
34     C34    -6.3299  -10.9006   -4.7790 C.ar     1 ZINC000003918583   -0.1200
35     C35    -6.9462  -11.1451   -3.5646 C.ar     1 ZINC000003918583   -0.1000
36     C36    -6.2357  -11.0211   -2.3839 C.ar     1 ZINC000003918583   -0.1200
37     C37    -4.9049  -10.6585   -2.4110 C.ar     1 ZINC000003918583   -0.0700
38     C38    -3.4021   -8.3286   -5.3705 C.3      1 ZINC000003918583    0.0600
39     C39    -3.2951   -6.8150   -5.1529 C.3      1 ZINC000003918583    0.0400
40     O40    -1.9254   -6.4197   -5.2603 O.3      1 ZINC000003918583   -0.3600
41     C41    -1.1616   -5.2518   -0.3304 C.3      1 ZINC000003918583    0.0500
42     C42    -1.7751   -5.0123    1.0510 C.3      1 ZINC000003918583   -0.1100
43     H43     1.3908    1.0597    1.5749 H        1 ZINC000003918583    0.0700
44     H44    -0.1926    1.1695    0.7692 H        1 ZINC000003918583    0.0600
45     H45    -0.1051    0.9292    2.5307 H        1 ZINC000003918583    0.0600
46     H46     1.9966   -1.7926    2.1942 H        1 ZINC000003918583    0.0600
47     H47     1.4764   -2.3512    0.5862 H        1 ZINC000003918583    0.0600
48     H48     2.3652   -0.8179    0.7512 H        1 ZINC000003918583    0.0800
49     H49     0.0318   -3.2355    0.9879 H        1 ZINC000003918583    0.3900
50     H50    -4.6822   -3.7159    1.8395 H        1 ZINC000003918583    0.1200
51     H51    -5.7573   -3.3320    4.0213 H        1 ZINC000003918583    0.1200
52     H52    -4.3955   -2.6839    5.9678 H        1 ZINC000003918583    0.1200
53     H53    -1.9586   -2.4206    5.7327 H        1 ZINC000003918583    0.1200
54     H54    -0.8829   -2.8090    3.5520 H        1 ZINC000003918583    0.1100
55     H55    -3.9414   -3.5780    0.1770 H        1 ZINC000003918583    0.0800
56     H56    -3.1629   -1.9767    0.1994 H        1 ZINC000003918583    0.0900
57     H57    -3.0098   -3.0257   -2.0491 H        1 ZINC000003918583    0.0800
58     H58    -1.3988   -2.8051   -1.3255 H        1 ZINC000003918583    0.0300
59     H59    -2.2501   -4.6832   -3.4599 H        1 ZINC000003918583    0.0800
60     H60    -0.5857   -4.7394   -2.8317 H        1 ZINC000003918583    0.0400
61     H61    -0.9313   -7.0913   -2.1262 H        1 ZINC000003918583    0.0800
62     H62    -2.5957   -7.0351   -2.7544 H        1 ZINC000003918583    0.0900
63     H63     0.8144   -6.6553   -2.3714 H        1 ZINC000003918583    0.1400
64     H64     3.1008   -5.7842   -2.6456 H        1 ZINC000003918583    0.1500
65     H65     0.1249   -6.1803   -6.5531 H        1 ZINC000003918583    0.1500
66     H66    -0.5760   -8.7851   -5.3868 H        1 ZINC000003918583    0.0800
67     H67    -0.5279   -8.9856   -3.6162 H        1 ZINC000003918583    0.1100
68     H68    -4.5215  -10.3401   -5.7682 H        1 ZINC000003918583    0.1300
69     H69    -6.8902  -10.9989   -5.6971 H        1 ZINC000003918583    0.1300
70     H70    -7.9866  -11.4336   -3.5383 H        1 ZINC000003918583    0.1300
71     H71    -6.7228  -11.2130   -1.4393 H        1 ZINC000003918583    0.1300
72     H72    -4.3513  -10.5624   -1.4886 H        1 ZINC000003918583    0.1300
73     H73    -3.1514   -8.5696   -6.4035 H        1 ZINC000003918583    0.0800
74     H74    -4.4172   -8.6601   -5.1516 H        1 ZINC000003918583    0.1100
75     H75    -3.8842   -6.2959   -5.9089 H        1 ZINC000003918583    0.1100
76     H76    -3.6702   -6.5623   -4.1611 H        1 ZINC000003918583    0.0700
77     H77    -0.9714   -6.3168   -0.4637 H        1 ZINC000003918583    0.0800
78     H78    -0.2236   -4.7026   -0.4114 H        1 ZINC000003918583    0.0300
79     H79    -1.0780   -5.3428    1.8210 H        1 ZINC000003918583    0.0800
80     H80    -2.7063   -5.5722    1.1377 H        1 ZINC000003918583    0.0900
@<TRIPOS>BOND
1     1     2     1
2     1     43    1
3     1     44    1
4     1     45    1
5     2     3     1
6     2     4     am
7     3     46    1
8     3     47    1
9     3     48    1
10    4     5     2
11    4     6     am
12    6     7     1
13    6     49    1
14    7     42    1
15    7     8     1
16    7     14    1
17    8     13    ar
18    8     9     ar
19    9     10    ar
20    9     50    1
21    10    11    ar
22    10    51    1
23    11    12    ar
24    11    52    1
25    12    13    ar
26    12    53    1
27    13    54    1
28    14    15    1
29    14    55    1
30    14    56    1
31    15    16    1
32    15    57    1
33    15    58    1
34    16    17    1
35    16    41    1
36    17    18    1
37    17    59    1
38    17    60    1
39    18    19    1
40    18    61    1
41    18    62    1
42    19    40    1
43    19    20    1
44    19    28    1
45    20    27    ar
46    20    21    ar
47    21    22    ar
48    21    63    1
49    22    23    ar
50    22    64    1
51    23    24    1
52    23    25    ar
53    25    26    1
54    25    27    ar
55    27    65    1
56    28    29    1
57    28    66    1
58    28    67    1
59    29    30    am
60    29    38    1
61    30    31    2
62    30    32    1
63    32    37    ar
64    32    33    ar
65    33    34    ar
66    33    68    1
67    34    35    ar
68    34    69    1
69    35    36    ar
70    35    70    1
71    36    37    ar
72    36    71    1
73    37    72    1
74    38    39    1
75    38    73    1
76    38    74    1
77    39    40    1
78    39    75    1
79    39    76    1
80    41    42    1
81    41    77    1
82    41    78    1
83    42    79    1
84    42    80    1
@<TRIPOS>SUBSTRUCTURE
1   ZINC000003918583 1     RESIDUE    1   A     ZIN   1
