@<TRIPOS>MOLECULE
ZINC000002020029
  38   39    0    0    0
SMALL
USER_CHARGES
NO_NAME
@<TRIPOS>ATOM
    1 C1       -0.0184     1.5028     0.0103 C.3    1 <0>      -0.2100
    2 C2        0.0021    -0.0041     0.0020 C.2    1 <0>       0.3500
    3 O3        0.0202    -0.6134     1.0444 O.2    1 <0>      -0.4600
    4 C4       -0.0002    -0.7505    -1.3071 C.3    1 <0>      -0.1700
    5 C5        0.0229    -2.2561    -1.0359 C.3    1 <0>      -0.1100
    6 C6        0.0206    -3.0139    -2.3650 C.3    1 <0>      -0.1300
    7 C7        0.0437    -4.5194    -2.0937 C.3    1 <0>       0.1000
    8 N8        0.0415    -5.2450    -3.3664 N.pl3  1 <0>      -0.4100
    9 C9       -1.0374    -5.7336    -4.0086 C.2    1 <0>       0.2700
   10 N10      -0.6631    -6.3218    -5.1161 N.2    1 <0>      -0.5000
   11 C11       0.6639    -6.2435    -5.2439 C.2    1 <0>       0.3200
   12 C12       1.1440    -5.5528    -4.1382 C.2    1 <0>      -0.1500
   13 C13       2.5320    -5.3254    -4.0187 C.2    1 <0>       0.5900
   14 O14       2.9771    -4.7227    -3.0585 O.2    1 <0>      -0.5100
   15 N15       3.3598    -5.7839    -4.9805 N.am   1 <0>      -0.5500
   16 C16       4.8015    -5.5518    -4.8625 C.3    1 <0>       0.0800
   17 C17       2.8817    -6.4508    -6.0451 C.2    1 <0>       0.7100
   18 O18       3.6578    -6.8497    -6.8921 O.2    1 <0>      -0.5300
   19 N19       1.5648    -6.6851    -6.1993 N.am   1 <0>      -0.5100
   20 C20       1.0848    -7.4166    -7.3744 C.3    1 <0>       0.0900
   21 H21       1.0042     1.8801     0.0026 H      1 <0>       0.1000
   22 H22      -0.5455     1.8639    -0.8728 H      1 <0>       0.0900
   23 H23      -0.5286     1.8543     0.9071 H      1 <0>       0.0900
   24 H24      -0.8991    -0.4962    -1.8688 H      1 <0>       0.1000
   25 H25       0.8807    -0.4720    -1.8857 H      1 <0>       0.1000
   26 H26       0.9218    -2.5103    -0.4742 H      1 <0>       0.0700
   27 H27      -0.8579    -2.5345    -0.4573 H      1 <0>       0.0700
   28 H28      -0.8783    -2.7596    -2.9267 H      1 <0>       0.0700
   29 H29       0.9015    -2.7354    -2.9435 H      1 <0>       0.0800
   30 H30       0.9426    -4.7737    -1.5321 H      1 <0>       0.1100
   31 H31      -0.8371    -4.7979    -1.5152 H      1 <0>       0.1100
   32 H32      -2.0570    -5.6526    -3.6616 H      1 <0>       0.2300
   33 H33       5.2601    -6.3808    -4.3235 H      1 <0>       0.0800
   34 H34       5.2404    -5.4782    -5.8575 H      1 <0>       0.1000
   35 H35       4.9767    -4.6236    -4.3185 H      1 <0>       0.0900
   36 H36       1.9317    -7.6871    -8.0049 H      1 <0>       0.1000
   37 H37       0.5674    -8.3206    -7.0533 H      1 <0>       0.0800
   38 H38       0.3981    -6.7861    -7.9393 H      1 <0>       0.0800
@<TRIPOS>BOND
   1    1    2 1
   2    1   21 1
   3    1   22 1
   4    1   23 1
   5    2    3 2
   6    2    4 1
   7    4    5 1
   8    4   24 1
   9    4   25 1
  10    5    6 1
  11    5   26 1
  12    5   27 1
  13    6    7 1
  14    6   28 1
  15    6   29 1
  16    7    8 1
  17    7   30 1
  18    7   31 1
  19    8   12 1
  20    8    9 1
  21    9   10 2
  22    9   32 1
  23   10   11 1
  24   11   19 1
  25   11   12 2
  26   12   13 1
  27   13   14 2
  28   13   15 am
  29   15   16 1
  30   15   17 am
  31   16   33 1
  32   16   34 1
  33   16   35 1
  34   17   18 2
  35   17   19 am
  36   19   20 1
  37   20   36 1
  38   20   37 1
  39   20   38 1
