@<TRIPOS>MOLECULE
ZINC000003794610
  34   35    0    0    0
SMALL
USER_CHARGES
NO_NAME
@<TRIPOS>ATOM
    1 C1       -0.0179     1.4678     0.0101 C.3    1 <0>      -0.0400
    2 C2        0.0021    -0.0041     0.0020 C.1    1 <0>      -0.1400
    3 C3        0.0180    -1.1779    -0.0044 C.1    1 <0>      -0.1300
    4 C4        0.0374    -2.6098    -0.0123 C.2    1 <0>      -0.1400
    5 C5        1.2192    -3.2943    -0.0215 C.2    1 <0>       0.1900
    6 N6        1.2042    -4.6593    -0.0284 N.am   1 <0>      -0.5200
    7 C7        2.4738    -5.3902    -0.0383 C.3    1 <0>       0.3100
    8 H8        3.3116    -4.7004    -0.1402 H      1 <0>       0.1300
    9 O9        2.4889    -6.3688    -1.0997 O.3    1 <0>      -0.3400
   10 C10       3.4787    -7.3510    -0.7509 C.3    1 <0>       0.0600
   11 H11       4.4373    -7.0858    -1.1968 H      1 <0>       0.0900
   12 C12       3.0392    -8.7307    -1.2453 C.3    1 <0>       0.0800
   13 O13       3.0298    -8.7439    -2.6742 O.3    1 <0>      -0.5600
   14 C14       3.5986    -7.3551     0.7854 C.3    1 <0>       0.0500
   15 H15       3.2968    -8.3216     1.1891 H      1 <0>       0.0900
   16 O16       4.9351    -7.0433     1.1836 O.3    1 <0>      -0.5500
   17 C17       2.6225    -6.2433     1.2472 C.3    1 <0>       0.0700
   18 H18       3.0550    -5.6585     2.0590 H      1 <0>       0.1000
   19 O19       1.3644    -6.7984     1.6359 O.3    1 <0>      -0.5100
   20 C20       0.0505    -5.3463    -0.0259 C.2    1 <0>       0.7000
   21 O21       0.0869    -6.5616    -0.0314 O.2    1 <0>      -0.4700
   22 N22      -1.1439    -4.7289    -0.0169 N.am   1 <0>      -0.6600
   23 C23      -1.2144    -3.3811    -0.0045 C.2    1 <0>       0.5600
   24 O24      -2.2922    -2.8156     0.0036 O.2    1 <0>      -0.5000
   25 H25       1.0047     1.8451     0.0024 H      1 <0>       0.0800
   26 H26      -0.5451     1.8289    -0.8729 H      1 <0>       0.0900
   27 H27      -0.5281     1.8193     0.9069 H      1 <0>       0.0800
   28 H28       2.1578    -2.7601    -0.0237 H      1 <0>       0.1800
   29 H29       3.7346    -9.4862    -0.8795 H      1 <0>       0.0600
   30 H30       2.0380    -8.9480    -0.8733 H      1 <0>       0.0600
   31 H31       2.7601    -9.5896    -3.0579 H      1 <0>       0.3800
   32 H32       5.5962    -7.6764     0.8718 H      1 <0>       0.3900
   33 H33       1.4190    -7.4136     2.3800 H      1 <0>       0.3700
   34 H34      -1.9590    -5.2547    -0.0157 H      1 <0>       0.4300
@<TRIPOS>BOND
   1    1    2 1
   2    1   25 1
   3    1   26 1
   4    1   27 1
   5    2    3 3
   6    3    4 1
   7    4   23 1
   8    4    5 2
   9    5    6 1
  10    5   28 1
  11    6    7 1
  12    6   20 am
  13    7    8 1
  14    7   17 1
  15    7    9 1
  16    9   10 1
  17   10   11 1
  18   10   12 1
  19   10   14 1
  20   12   13 1
  21   12   29 1
  22   12   30 1
  23   13   31 1
  24   14   15 1
  25   14   16 1
  26   14   17 1
  27   16   32 1
  28   17   18 1
  29   17   19 1
  30   19   33 1
  31   20   21 2
  32   20   22 am
  33   22   23 am
  34   22   34 1
  35   23   24 2
