@<TRIPOS>MOLECULE
ZINC000005735917
41    42    1     0     0
SMALL
USER_CHARGES
@<TRIPOS>ATOM
1      C1     -0.0187    1.5241    0.0104 C.3      1 ZINC000005735917   -0.1500
2      C2      0.0021   -0.0041    0.0020 C.3      1 ZINC000005735917   -0.0800
3      H3      0.5300   -0.3094   -0.9271 H        1 ZINC000005735917    0.0700
4      C4     -1.4124   -0.5591   -0.0879 C.3      1 ZINC000005735917   -0.1300
5      C5     -2.1377   -0.4112    1.2484 C.3      1 ZINC000005735917    0.0900
6      H6     -2.2078    0.6368    1.5270 H        1 ZINC000005735917    0.0900
7      O7     -3.4827   -0.9545    1.1226 O.3      1 ZINC000005735917   -0.3500
8      C8     -4.4481   -0.1073    0.7325 C.2      1 ZINC000005735917    0.4400
9      O9     -4.1812    1.0486    0.5036 O.2      1 ZINC000005735917   -0.4900
10     C10    -5.8648   -0.5980    0.5803 C.3      1 ZINC000005735917    0.1400
11     H11    -6.1178   -1.2771    1.3945 H        1 ZINC000005735917    0.1300
12     C12    -6.0418   -1.3063   -0.7812 C.3      1 ZINC000005735917   -0.1200
13     C13    -6.5562   -0.1522   -1.6724 C.3      1 ZINC000005735917   -0.1600
14     C14    -7.1954    0.8125   -0.6980 C.2      1 ZINC000005735917    0.5300
15     O15    -7.9582    1.7046   -1.0032 O.2      1 ZINC000005735917   -0.5200
16     N16    -6.7955    0.5365    0.5575 N.am     1 ZINC000005735917   -0.7100
17     C17    -1.3780   -1.1989    2.3133 C.3      1 ZINC000005735917   -0.1000
18     C18     0.0340   -0.6506    2.4879 C.3      1 ZINC000005735917   -0.0500
19     C19    -0.0147    0.7104    3.1877 C.3      1 ZINC000005735917   -0.1500
20     C20     0.8031   -1.6186    3.4131 C.3      1 ZINC000005735917   -0.1500
21     C21     0.7873   -0.5604    1.1724 C.3      1 ZINC000005735917   -0.1000
22     H22     1.0039    1.9014    0.0027 H        1 ZINC000005735917    0.0600
23     H23    -0.5458    1.8852   -0.8726 H        1 ZINC000005735917    0.0600
24     H24    -0.5288    1.8756    0.9072 H        1 ZINC000005735917    0.0600
25     H25    -1.9684   -0.0202   -0.8599 H        1 ZINC000005735917    0.0700
26     H26    -1.3744   -1.6166   -0.3618 H        1 ZINC000005735917    0.0700
27     H27    -5.0894   -1.6883   -1.1488 H        1 ZINC000005735917    0.1000
28     H28    -6.7804   -2.1049   -0.7123 H        1 ZINC000005735917    0.1100
29     H29    -5.7269    0.3258   -2.1939 H        1 ZINC000005735917    0.1100
30     H30    -7.2946   -0.5202   -2.3847 H        1 ZINC000005735917    0.1100
31     H31    -7.0852    1.0248    1.3439 H        1 ZINC000005735917    0.4200
32     H32    -1.9142   -1.1312    3.2633 H        1 ZINC000005735917    0.0700
33     H33    -1.3258   -2.2496    2.0166 H        1 ZINC000005735917    0.0800
34     H34    -0.4794    0.5988    4.1673 H        1 ZINC000005735917    0.0600
35     H35     0.9987    1.0936    3.3078 H        1 ZINC000005735917    0.0600
36     H36    -0.5979    1.4076    2.5861 H        1 ZINC000005735917    0.0600
37     H37     0.8346   -2.6084    2.9577 H        1 ZINC000005735917    0.0600
38     H38     1.8195   -1.2525    3.5575 H        1 ZINC000005735917    0.0600
39     H39     0.2979   -1.6781    4.3771 H        1 ZINC000005735917    0.0600
40     H40     1.1520   -1.5666    0.9081 H        1 ZINC000005735917    0.0600
41     H41     1.6860    0.0592    1.3240 H        1 ZINC000005735917    0.0700
@<TRIPOS>BOND
1     1     2     1
2     1     22    1
3     1     23    1
4     1     24    1
5     2     3     1
6     2     21    1
7     2     4     1
8     4     5     1
9     4     25    1
10    4     26    1
11    5     6     1
12    5     7     1
13    5     17    1
14    7     8     1
15    8     9     2
16    8     10    1
17    10    11    1
18    10    16    1
19    10    12    1
20    12    13    1
21    12    27    1
22    12    28    1
23    13    14    1
24    13    29    1
25    13    30    1
26    14    15    2
27    14    16    am
28    16    31    1
29    17    18    1
30    17    32    1
31    17    33    1
32    18    19    1
33    18    20    1
34    18    21    1
35    19    34    1
36    19    35    1
37    19    36    1
38    20    37    1
39    20    38    1
40    20    39    1
41    21    40    1
42    21    41    1
@<TRIPOS>SUBSTRUCTURE
1   ZINC000005735917 1     RESIDUE    1   A     ZIN   1
