@<TRIPOS>MOLECULE
ZINC000252606121
46    48    1     0     0
SMALL
USER_CHARGES
@<TRIPOS>ATOM
1      C1      0.1025    1.3022    2.0994 C.3      1 ZINC000252606121    0.0300
2      O2     -0.0400   -0.1143    2.2231 O.3      1 ZINC000252606121   -0.2200
3      N3     -1.3360   -0.5921    1.9117 N.2      1 ZINC000252606121   -0.2900
4      C4     -1.5956   -1.8667    1.9859 C.2      1 ZINC000252606121    0.1900
5      C5     -2.9796   -2.3542    1.7792 C.2      1 ZINC000252606121    0.5800
6      O6     -3.2218   -3.5429    1.8483 O.2      1 ZINC000252606121   -0.4700
7      N7     -3.9699   -1.4791    1.5144 N.am     1 ZINC000252606121   -0.7000
8      C8     -5.3381   -1.9610    1.3101 C.3      1 ZINC000252606121    0.1300
9      H9     -5.3764   -2.9935    0.9629 H        1 ZINC000252606121    0.1600
10     C10    -6.2659   -1.6761    2.4790 C.2      1 ZINC000252606121    0.5300
11     O11    -6.2379   -1.9303    3.6646 O.2      1 ZINC000252606121   -0.4400
12     N12    -7.1298   -1.0299    1.6772 N.am     1 ZINC000252606121   -0.5500
13     C13    -8.4758   -0.6253    1.6920 C.2      1 ZINC000252606121    0.0900
14     C14    -9.1320   -0.2959    2.9677 C.2      1 ZINC000252606121    0.5200
15     O15   -10.3322   -0.0598    2.9952 O.co2    1 ZINC000252606121   -0.6600
16     O16    -8.4773   -0.2581    4.0006 O.co2    1 ZINC000252606121   -0.6500
17     C17    -9.1541   -0.5409    0.5554 C.2      1 ZINC000252606121   -0.1800
18     C18   -10.6050   -0.1541    0.6837 C.3      1 ZINC000252606121    0.1400
19     O19   -11.1889   -0.0198   -0.6389 O.3      1 ZINC000252606121   -0.3800
20     C20   -12.4547    0.4219   -0.7042 C.2      1 ZINC000252606121    0.4500
21     C21   -13.1272    0.5866   -2.0427 C.3      1 ZINC000252606121   -0.1400
22     O22   -13.0550    0.6876    0.3102 O.2      1 ZINC000252606121   -0.5100
23     C23    -8.6649   -0.7796   -0.8351 C.3      1 ZINC000252606121   -0.0100
24     S24    -7.1423   -1.7736   -0.8683 S.3      1 ZINC000252606121   -0.2300
25     C25    -6.2072   -1.0087    0.4951 C.3      1 ZINC000252606121    0.1300
26     H26    -5.7616   -0.0439    0.2527 H        1 ZINC000252606121    0.1400
27     C27    -0.5092   -2.8268    2.2763 C.2      1 ZINC000252606121    0.1000
28     C28     0.7387   -2.4307    2.5951 C.2      1 ZINC000252606121   -0.2300
29     S29     1.7229   -3.8672    2.8637 S.3      1 ZINC000252606121    0.0500
30     C30     0.3328   -4.8898    2.5144 C.2      1 ZINC000252606121    0.3500
31     N31     0.3358   -6.2745    2.5292 N.pl3    1 ZINC000252606121   -0.8100
32     N32    -0.6953   -4.1470    2.2471 N.2      1 ZINC000252606121   -0.5000
33     H33     1.1228    1.5884    2.3550 H        1 ZINC000252606121    0.1000
34     H34    -0.1124    1.6007    1.0733 H        1 ZINC000252606121    0.0600
35     H35    -0.5941    1.7979    2.7755 H        1 ZINC000252606121    0.0600
36     H36    -3.7766   -0.5301    1.4592 H        1 ZINC000252606121    0.4100
37     H37   -11.1387   -0.9248    1.2399 H        1 ZINC000252606121    0.1000
38     H38   -10.6824    0.7955    1.2132 H        1 ZINC000252606121    0.1000
39     H39   -13.1572   -0.3751   -2.5550 H        1 ZINC000252606121    0.0900
40     H40   -14.1437    0.9519   -1.8962 H        1 ZINC000252606121    0.1000
41     H41   -12.5673    1.3019   -2.6451 H        1 ZINC000252606121    0.0900
42     H42    -9.4395   -1.3004   -1.3980 H        1 ZINC000252606121    0.1300
43     H43    -8.4701    0.1815   -1.3112 H        1 ZINC000252606121    0.1000
44     H44     1.0776   -1.4081    2.6721 H        1 ZINC000252606121    0.2000
45     H45     1.1502   -6.7555    2.7445 H        1 ZINC000252606121    0.4100
46     H46    -0.4765   -6.7635    2.3244 H        1 ZINC000252606121    0.4200
@<TRIPOS>BOND
1     1     2     1
2     1     33    1
3     1     34    1
4     1     35    1
5     2     3     1
6     3     4     2
7     4     5     1
8     4     27    1
9     5     6     2
10    5     7     am
11    7     8     1
12    7     36    1
13    8     9     1
14    8     25    1
15    8     10    1
16    10    11    2
17    10    12    am
18    12    25    1
19    12    13    1
20    13    14    1
21    13    17    2
22    14    15    ar
23    14    16    ar
24    17    18    1
25    17    23    1
26    18    19    1
27    18    37    1
28    18    38    1
29    19    20    1
30    20    21    1
31    20    22    2
32    21    39    1
33    21    40    1
34    21    41    1
35    23    24    1
36    23    42    1
37    23    43    1
38    24    25    1
39    25    26    1
40    27    32    1
41    27    28    2
42    28    29    1
43    28    44    1
44    29    30    1
45    30    31    1
46    30    32    2
47    31    45    1
48    31    46    1
@<TRIPOS>SUBSTRUCTURE
1   ZINC000252606121 1     RESIDUE    1   A     ZIN   1
