@<TRIPOS>MOLECULE
ZINC000009212299
52    55    1     0     0
SMALL
USER_CHARGES
@<TRIPOS>ATOM
1      C1      0.3113    1.4795   -0.4293 C.3      1 ZINC000009212299   -0.0600
2      N2      0.0605    0.1021    0.0156 N.4      1 ZINC000009212299   -0.3700
3      H3      0.4417   -0.5439   -0.6592 H        1 ZINC000009212299    0.4200
4      C4      0.7022   -0.1160    1.3189 C.3      1 ZINC000009212299   -0.0700
5      C5     -1.3868   -0.1166    0.1397 C.3      1 ZINC000009212299    0.0400
6      H6     -1.7735    0.5210    0.9347 H        1 ZINC000009212299    0.1400
7      C7     -1.6327   -1.5502    0.5031 C.2      1 ZINC000009212299    0.3100
8      O8     -0.8006   -2.1514    1.3663 O.3      1 ZINC000009212299   -0.6100
9      C9     -2.6803   -2.2684   -0.0171 C.2      1 ZINC000009212299   -0.4700
10     C10    -2.8906   -3.6636    0.4010 C.2      1 ZINC000009212299    0.5900
11     N11    -3.8659   -4.3983   -0.1694 N.am     1 ZINC000009212299   -0.8700
12     O12    -2.1841   -4.1537    1.2613 O.2      1 ZINC000009212299   -0.5600
13     C13    -3.5887   -1.6540   -0.9840 C.2      1 ZINC000009212299    0.3900
14     O14    -4.3805   -2.3323   -1.6054 O.2      1 ZINC000009212299   -0.4700
15     C15    -3.5240   -0.1531   -1.1961 C.3      1 ZINC000009212299    0.0800
16     O16    -4.2544    0.5240   -0.1714 O.3      1 ZINC000009212299   -0.5400
17     C17    -4.1014    0.1389   -2.5556 C.2      1 ZINC000009212299    0.3800
18     O18    -5.3109    0.1421   -2.6798 O.2      1 ZINC000009212299   -0.4900
19     C19    -3.3231    0.4044   -3.6756 C.2      1 ZINC000009212299   -0.4800
20     C20    -3.9521    0.6850   -4.8763 C.2      1 ZINC000009212299    0.3400
21     O21    -5.2979    0.7868   -4.9334 O.3      1 ZINC000009212299   -0.5900
22     C22    -3.1416    0.8717   -6.0891 C.ar     1 ZINC000009212299   -0.0700
23     C23    -3.6933    1.4650   -7.2326 C.ar     1 ZINC000009212299    0.1400
24     O24    -4.9893    1.8671   -7.2362 O.3      1 ZINC000009212299   -0.4700
25     C25    -2.9047    1.6386   -8.3606 C.ar     1 ZINC000009212299   -0.1500
26     C26    -1.5855    1.2304   -8.3543 C.ar     1 ZINC000009212299   -0.1000
27     C27    -1.0369    0.6396   -7.2253 C.ar     1 ZINC000009212299   -0.0500
28     Cl28    0.6231    0.1317   -7.2332 Cl       1 ZINC000009212299   -0.0800
29     C29    -1.8068    0.4551   -6.0982 C.ar     1 ZINC000009212299   -0.0800
30     C30    -1.2260   -0.2079   -4.8754 C.3      1 ZINC000009212299    0.1500
31     H31    -0.1437   -0.0784   -4.8715 H        1 ZINC000009212299    0.0600
32     O32    -1.5386   -1.6022   -4.8960 O.3      1 ZINC000009212299   -0.5300
33     C33    -1.8193    0.4275   -3.6205 C.3      1 ZINC000009212299    0.0200
34     H34    -1.4942    1.4664   -3.5637 H        1 ZINC000009212299    0.0500
35     C35    -1.3292   -0.3135   -2.3742 C.3      1 ZINC000009212299   -0.1100
36     C36    -2.0555    0.2654   -1.1661 C.3      1 ZINC000009212299   -0.0700
37     H37    -2.0175    1.3521   -1.2415 H        1 ZINC000009212299    0.0900
38     H38     1.3852    1.6418   -0.5213 H        1 ZINC000009212299    0.1200
39     H39    -0.1648    1.6413   -1.3963 H        1 ZINC000009212299    0.1200
40     H40    -0.1005    2.1774    0.2998 H        1 ZINC000009212299    0.1200
41     H41     0.1864    0.4691    2.0803 H        1 ZINC000009212299    0.1000
42     H42     0.6507   -1.1738    1.5768 H        1 ZINC000009212299    0.1800
43     H43     1.7456    0.1949    1.2668 H        1 ZINC000009212299    0.1000
44     H44    -4.4752   -3.9875   -0.8026 H        1 ZINC000009212299    0.4100
45     H45    -3.9587   -5.3378    0.0533 H        1 ZINC000009212299    0.3800
46     H46    -5.1916    0.2885   -0.1353 H        1 ZINC000009212299    0.3900
47     H47    -5.1188    2.7795   -6.9432 H        1 ZINC000009212299    0.3900
48     H48    -3.3236    2.0937   -9.2459 H        1 ZINC000009212299    0.1400
49     H49    -0.9764    1.3718   -9.2349 H        1 ZINC000009212299    0.1300
50     H50    -1.1919   -2.0716   -5.6671 H        1 ZINC000009212299    0.3700
51     H51    -1.5554   -1.3760   -2.4643 H        1 ZINC000009212299    0.1000
52     H52    -0.2542   -0.1731   -2.2608 H        1 ZINC000009212299    0.0500
@<TRIPOS>BOND
1     1     2     1
2     1     38    1
3     1     39    1
4     1     40    1
5     2     3     1
6     2     4     1
7     2     5     1
8     4     41    1
9     4     42    1
10    4     43    1
11    5     6     1
12    5     36    1
13    5     7     1
14    7     8     1
15    7     9     2
16    9     10    1
17    9     13    1
18    10    11    am
19    10    12    2
20    11    44    1
21    11    45    1
22    13    14    2
23    13    15    1
24    15    36    1
25    15    16    1
26    15    17    1
27    16    46    1
28    17    18    2
29    17    19    1
30    19    33    1
31    19    20    2
32    20    21    1
33    20    22    1
34    22    29    ar
35    22    23    ar
36    23    24    1
37    23    25    ar
38    24    47    1
39    25    26    ar
40    25    48    1
41    26    27    ar
42    26    49    1
43    27    28    1
44    27    29    ar
45    29    30    1
46    30    31    1
47    30    32    1
48    30    33    1
49    32    50    1
50    33    34    1
51    33    35    1
52    35    36    1
53    35    51    1
54    35    52    1
55    36    37    1
@<TRIPOS>SUBSTRUCTURE
1   ZINC000009212299 1     RESIDUE    1   A     ZIN   1
