@<TRIPOS>MOLECULE
ZINC000000595076
55    57    1     0     0
SMALL
USER_CHARGES
@<TRIPOS>ATOM
1      C1      0.5941    0.7974   -0.7385 C.3      1 ZINC000000595076   -0.1100
2      C2      0.6295   -0.7063   -0.6454 C.ar     1 ZINC000000595076   -0.1000
3      C3      0.7234   -1.4680   -1.7951 C.ar     1 ZINC000000595076   -0.1300
4      C4      0.7559   -2.8473   -1.7096 C.ar     1 ZINC000000595076   -0.0900
5      C5      0.6949   -3.4650   -0.4744 C.ar     1 ZINC000000595076   -0.0900
6      C6      0.7299   -4.9687   -0.3813 C.3      1 ZINC000000595076    0.1900
7      N7      2.1192   -5.4186   -0.2644 N.am     1 ZINC000000595076   -0.4800
8      N8      2.8024   -5.7048    0.9256 N.2      1 ZINC000000595076   -0.3800
9      C9      4.0056   -6.0711    0.6212 C.2      1 ZINC000000595076    0.2300
10     C10     5.0761   -6.4695    1.6042 C.3      1 ZINC000000595076   -0.0100
11     C11     4.5223   -6.3750    3.0274 C.3      1 ZINC000000595076   -0.1000
12     C12     5.6092   -6.7795    4.0254 C.3      1 ZINC000000595076   -0.0700
13     C13     5.0638   -6.6864    5.4272 C.ar     1 ZINC000000595076   -0.1300
14     C14     5.1726   -5.5024    6.1329 C.ar     1 ZINC000000595076   -0.0900
15     C15     4.6734   -5.4146    7.4180 C.ar     1 ZINC000000595076   -0.1700
16     C16     4.0622   -6.5155    8.0002 C.ar     1 ZINC000000595076    0.1600
17     O17     3.5699   -6.4314    9.2642 O.3      1 ZINC000000595076   -0.3100
18     C18     2.8444   -7.5608    9.7543 C.3      1 ZINC000000595076    0.0300
19     C19     2.3389   -7.2678   11.1683 C.3      1 ZINC000000595076   -0.1100
20     C20     1.6539   -7.8403    8.8348 C.3      1 ZINC000000595076   -0.1800
21     C21     3.7498   -8.7652    9.7840 C.2      1 ZINC000000595076    0.4800
22     O22     4.9089   -8.6656    9.4193 O.co2    1 ZINC000000595076   -0.6700
23     O23     3.3232   -9.8391   10.1727 O.co2    1 ZINC000000595076   -0.6900
24     C24     3.9539   -7.7022    7.2899 C.ar     1 ZINC000000595076   -0.1600
25     C25     4.4504   -7.7835    6.0033 C.ar     1 ZINC000000595076   -0.0900
26     N26     4.1470   -6.0378   -0.7447 N.pl3    1 ZINC000000595076   -0.6900
27     C27     2.9766   -5.6398   -1.2826 C.2      1 ZINC000000595076    0.5800
28     O28     2.7393   -5.4982   -2.4690 O.2      1 ZINC000000595076   -0.6600
29     C29     0.6023   -2.7032    0.6754 C.ar     1 ZINC000000595076   -0.0900
30     C30     0.5737   -1.3238    0.5902 C.ar     1 ZINC000000595076   -0.1300
31     H31     1.6110    1.1878   -0.7008 H        1 ZINC000000595076    0.0600
32     H32     0.1263    1.0923   -1.6778 H        1 ZINC000000595076    0.0600
33     H33     0.0192    1.1996    0.0956 H        1 ZINC000000595076    0.0600
34     H34     0.7711   -0.9855   -2.7601 H        1 ZINC000000595076    0.1100
35     H35     0.8286   -3.4425   -2.6079 H        1 ZINC000000595076    0.1300
36     H36     0.1684   -5.2915    0.4954 H        1 ZINC000000595076    0.0800
37     H37     0.2829   -5.3987   -1.2777 H        1 ZINC000000595076    0.0700
38     H38     5.3903   -7.4938    1.4039 H        1 ZINC000000595076    0.0700
39     H39     5.9306   -5.8006    1.5017 H        1 ZINC000000595076    0.0700
40     H40     4.2081   -5.3507    3.2277 H        1 ZINC000000595076    0.0600
41     H41     3.6678   -7.0439    3.1299 H        1 ZINC000000595076    0.0600
42     H42     5.9235   -7.8038    3.8251 H        1 ZINC000000595076    0.0600
43     H43     6.4637   -6.1106    3.9229 H        1 ZINC000000595076    0.0600
44     H44     5.6485   -4.6457    5.6792 H        1 ZINC000000595076    0.1200
45     H45     4.7593   -4.4897    7.9691 H        1 ZINC000000595076    0.1200
46     H46     1.6179   -6.4510   11.1344 H        1 ZINC000000595076    0.0500
47     H47     1.8600   -8.1585   11.5748 H        1 ZINC000000595076    0.0800
48     H48     3.1787   -6.9850   11.8030 H        1 ZINC000000595076    0.0500
49     H49     2.0012   -7.9192    7.8046 H        1 ZINC000000595076    0.0700
50     H50     1.1782   -8.7754    9.1304 H        1 ZINC000000595076    0.0700
51     H51     0.9343   -7.0255    8.9142 H        1 ZINC000000595076    0.0500
52     H52     3.4788   -8.5608    7.7411 H        1 ZINC000000595076    0.1400
53     H53     4.3660   -8.7070    5.4497 H        1 ZINC000000595076    0.1100
54     H54     0.5551   -3.1857    1.6404 H        1 ZINC000000595076    0.1200
55     H55     0.5014   -0.7286    1.4885 H        1 ZINC000000595076    0.1200
@<TRIPOS>BOND
1     1     2     1
2     1     31    1
3     1     32    1
4     1     33    1
5     2     30    ar
6     2     3     ar
7     3     4     ar
8     3     34    1
9     4     5     ar
10    4     35    1
11    5     6     1
12    5     29    ar
13    6     7     1
14    6     36    1
15    6     37    1
16    7     27    am
17    7     8     1
18    8     9     2
19    9     10    1
20    9     26    1
21    10    11    1
22    10    38    1
23    10    39    1
24    11    12    1
25    11    40    1
26    11    41    1
27    12    13    1
28    12    42    1
29    12    43    1
30    13    25    ar
31    13    14    ar
32    14    15    ar
33    14    44    1
34    15    16    ar
35    15    45    1
36    16    17    1
37    16    24    ar
38    17    18    1
39    18    19    1
40    18    20    1
41    18    21    1
42    19    46    1
43    19    47    1
44    19    48    1
45    20    49    1
46    20    50    1
47    20    51    1
48    21    22    ar
49    21    23    ar
50    24    25    ar
51    24    52    1
52    25    53    1
53    26    27    1
54    27    28    2
55    29    30    ar
56    29    54    1
57    30    55    1
@<TRIPOS>SUBSTRUCTURE
1   ZINC000000595076 1     RESIDUE    1   A     ZIN   1
