@<TRIPOS>MOLECULE
ZINC000003874302
  49   51    0    0    0
SMALL
USER_CHARGES
NO_NAME
@<TRIPOS>ATOM
    1 C1        0.2152     1.3079    -0.1265 C.3    1 <0>       0.0200
    2 O2        0.0890    -0.0912     0.1350 O.3    1 <0>      -0.3500
    3 C3       -1.2073    -0.6211    -0.1492 C.3    1 <0>       0.3000
    4 N4       -2.2915     0.2394     0.3309 N.am   1 <0>      -0.7200
    5 C5       -3.5650    -0.0181    -0.0273 C.2    1 <0>       0.5300
    6 O6       -3.8135    -0.9621    -0.7470 O.2    1 <0>      -0.4600
    7 C7       -4.6802     0.8670     0.4666 C.3    1 <0>      -0.1300
    8 S8       -6.2631     0.2649    -0.1837 S.3    1 <0>      -0.1300
    9 C9       -7.4612     1.4380     0.5084 C.3    1 <0>       0.2600
   10 F10      -7.4025     1.3949     1.9055 F      1 <0>      -0.1900
   11 F11      -7.1559     2.7305     0.0685 F      1 <0>      -0.1900
   12 C12      -1.3782    -1.0723    -1.5908 C.2    1 <0>       0.5400
   13 O13      -1.2515    -0.5334    -2.6700 O.2    1 <0>      -0.4500
   14 N14      -1.7241    -2.3014    -1.1926 N.am   1 <0>      -0.5500
   15 C15      -2.3622    -3.4618    -1.6846 C.2    1 <0>       0.1600
   16 C16      -2.3496    -3.8539    -3.1033 C.2    1 <0>       0.5300
   17 O17      -2.8685    -4.9056    -3.4519 O.co2  1 <0>      -0.6500
   18 O18      -1.8202    -3.1281    -3.9338 O.co2  1 <0>      -0.6500
   19 C19      -2.9842    -4.1740    -0.7228 C.2    1 <0>      -0.2300
   20 C20      -3.7275    -5.4231    -1.1209 C.3    1 <0>      -0.0400
   21 S21      -2.5880    -6.8293    -1.1203 S.3    1 <0>       0.0400
   22 C22      -3.6893    -8.1158    -1.6066 C.2    1 <0>       0.2400
   23 N23      -4.9696    -7.9870    -1.8797 N.2    1 <0>      -0.3300
   24 N24      -5.4773    -9.1219    -2.2014 N.2    1 <0>      -0.0300
   25 N25      -4.5772   -10.0436    -2.1589 N.2    1 <0>      -0.1000
   26 N26      -3.3759    -9.4222    -1.7752 N.pl3  1 <0>      -0.3800
   27 C27      -2.0675   -10.0542    -1.5889 C.3    1 <0>       0.1300
   28 C28      -1.2964   -10.0297    -2.9102 C.3    1 <0>       0.0600
   29 O29      -0.0202   -10.6462    -2.7285 O.3    1 <0>      -0.5700
   30 C30      -2.9702    -3.7817     0.7222 C.3    1 <0>       0.1300
   31 O31      -2.5573    -2.4367     0.9691 O.3    1 <0>      -0.3600
   32 C32      -1.3689    -2.0850     0.2454 C.3    1 <0>       0.2700
   33 H33      -0.4652    -2.5844     0.5946 H      1 <0>       0.1300
   34 H34       1.2274     1.6328     0.1145 H      1 <0>       0.1000
   35 H35       0.0131     1.5003    -1.1802 H      1 <0>       0.0600
   36 H36      -0.4986     1.8580     0.4867 H      1 <0>       0.0500
   37 H37      -2.0927     0.9944     0.9065 H      1 <0>       0.4100
   38 H38      -4.7041     0.8477     1.5561 H      1 <0>       0.1200
   39 H39      -4.5119     1.8883     0.1249 H      1 <0>       0.1200
   40 H40      -8.4648     1.1695     0.1785 H      1 <0>       0.1500
   41 H41      -4.5334    -5.6082    -0.4108 H      1 <0>       0.0900
   42 H42      -4.1454    -5.2945    -2.1194 H      1 <0>       0.1500
   43 H43      -1.5056    -9.5096    -0.8302 H      1 <0>       0.1100
   44 H44      -2.2051   -11.0867    -1.2678 H      1 <0>       0.1100
   45 H45      -1.8583   -10.5743    -3.6690 H      1 <0>       0.0600
   46 H46      -1.1588    -8.9972    -3.2314 H      1 <0>       0.0700
   47 H47       0.5244   -10.6661    -3.5274 H      1 <0>       0.3900
   48 H48      -3.9741    -3.9141     1.1255 H      1 <0>       0.1100
   49 H49      -2.2969    -4.4528     1.2555 H      1 <0>       0.0600
@<TRIPOS>BOND
   1    1    2 1
   2    1   34 1
   3    1   35 1
   4    1   36 1
   5    2    3 1
   6    3   32 1
   7    3    4 1
   8    3   12 1
   9    4    5 am
  10    4   37 1
  11    5    6 2
  12    5    7 1
  13    7    8 1
  14    7   38 1
  15    7   39 1
  16    8    9 1
  17    9   10 1
  18    9   11 1
  19    9   40 1
  20   12   13 2
  21   12   14 am
  22   14   32 1
  23   14   15 1
  24   15   16 1
  25   15   19 2
  26   16   17 ar
  27   16   18 ar
  28   19   20 1
  29   19   30 1
  30   20   21 1
  31   20   41 1
  32   20   42 1
  33   21   22 1
  34   22   26 1
  35   22   23 2
  36   23   24 1
  37   24   25 2
  38   25   26 1
  39   26   27 1
  40   27   28 1
  41   27   43 1
  42   27   44 1
  43   28   29 1
  44   28   45 1
  45   28   46 1
  46   29   47 1
  47   30   31 1
  48   30   48 1
  49   30   49 1
  50   31   32 1
  51   32   33 1
