@<TRIPOS>MOLECULE
ZINC000001537633
  59   62    0    0    0
SMALL
USER_CHARGES
NO_NAME
@<TRIPOS>ATOM
    1 C1       -0.0187     1.5258     0.0104 C.3    1 <0>      -0.1600
    2 C2        0.0021    -0.0041     0.0020 C.3    1 <0>      -0.1200
    3 C3        0.7182    -0.4975    -1.2568 C.3    1 <0>      -0.1500
    4 C4        0.7390    -2.0273    -1.2652 C.3    1 <0>      -0.0100
    5 N5        1.4265    -2.5011    -2.4738 N.4    1 <0>      -0.3800
    6 H6        0.9872    -2.0996    -3.2886 H      1 <0>       0.4200
    7 C7        1.3384    -3.9646    -2.5432 C.3    1 <0>       0.0000
    8 C8        1.9823    -4.4572    -3.8410 C.3    1 <0>      -0.1400
    9 C9        3.4529    -4.0310    -3.8685 C.3    1 <0>      -0.1100
   10 C10       4.0825    -4.4510    -5.1982 C.3    1 <0>       0.1200
   11 N11       5.5161    -4.1503    -5.1763 N.am   1 <0>      -0.7300
   12 C12       6.2812    -4.4366    -6.2483 C.2    1 <0>       0.6100
   13 O13       5.7808    -4.9451    -7.2350 O.2    1 <0>      -0.5200
   14 C14       7.7125    -4.1364    -6.2264 C.2    1 <0>      -0.2600
   15 C15       8.7314    -4.9727    -5.8050 C.2    1 <0>       0.3200
   16 O16       8.6001    -6.2365    -5.3322 O.3    1 <0>      -0.2800
   17 C17       9.8106    -7.0047    -5.2949 C.3    1 <0>       0.0500
   18 C18      10.9209    -6.1593    -4.6618 C.3    1 <0>      -0.1700
   19 C19      11.2171    -4.9561    -5.5659 C.3    1 <0>       0.1000
   20 N20       9.9352    -4.3327    -5.9349 N.pl3  1 <0>      -0.5000
   21 C21       9.7445    -3.0743    -6.4421 C.ar   1 <0>       0.1000
   22 C22      10.6452    -2.0576    -6.7506 C.ar   1 <0>      -0.1200
   23 C23      10.1188    -0.8806    -7.2576 C.ar   1 <0>      -0.1000
   24 C24       8.7612    -0.7039    -7.4558 C.ar   1 <0>      -0.1300
   25 C25       7.8448    -1.6995    -7.1575 C.ar   1 <0>      -0.0800
   26 C26       8.3575    -2.8928    -6.6519 C.ar   1 <0>      -0.0500
   27 C27       3.5359    -2.5090    -3.7207 C.3    1 <0>      -0.1400
   28 C28       2.8349    -2.0901    -2.4266 C.3    1 <0>      -0.0100
   29 H29       1.0039     1.9031     0.0027 H      1 <0>       0.0600
   30 H30      -0.5459     1.8868    -0.8726 H      1 <0>       0.0600
   31 H31      -0.5289     1.8773     0.9072 H      1 <0>       0.0700
   32 H32       0.5293    -0.3651     0.8851 H      1 <0>       0.0700
   33 H33      -1.0205    -0.3814     0.0098 H      1 <0>       0.0700
   34 H34       0.1910    -0.1364    -2.1398 H      1 <0>       0.0900
   35 H35       1.7408    -0.1202    -1.2645 H      1 <0>       0.0900
   36 H36       1.2661    -2.3884    -0.3821 H      1 <0>       0.1300
   37 H37      -0.2836    -2.4046    -1.2575 H      1 <0>       0.1300
   38 H38       1.8600    -4.4004    -1.6911 H      1 <0>       0.1300
   39 H39       0.2913    -4.2665    -2.5203 H      1 <0>       0.1300
   40 H40       1.9174    -5.5442    -3.8898 H      1 <0>       0.1200
   41 H41       1.4612    -4.0222    -4.6938 H      1 <0>       0.0900
   42 H42       3.9861    -4.5079    -3.0461 H      1 <0>       0.1000
   43 H43       3.9379    -5.5211    -5.3468 H      1 <0>       0.0800
   44 H44       3.6089    -3.9038    -6.0134 H      1 <0>       0.0700
   45 H45       5.9148    -3.7453    -4.3902 H      1 <0>       0.4000
   46 H46       9.6532    -7.9043    -4.7000 H      1 <0>       0.1200
   47 H47      10.0974    -7.2825    -6.3092 H      1 <0>       0.0800
   48 H48      10.5970    -5.8076    -3.6822 H      1 <0>       0.0900
   49 H49      11.8215    -6.7635    -4.5532 H      1 <0>       0.1100
   50 H50      11.8353    -4.2362    -5.0295 H      1 <0>       0.1000
   51 H51      11.7359    -5.2900    -6.4645 H      1 <0>       0.0900
   52 H52      11.7075    -2.1813    -6.6008 H      1 <0>       0.1300
   53 H53      10.7915    -0.0731    -7.5063 H      1 <0>       0.1300
   54 H54       8.4060     0.2353    -7.8535 H      1 <0>       0.1200
   55 H55       6.7854    -1.5592    -7.3132 H      1 <0>       0.1300
   56 H56       4.5816    -2.2034    -3.6836 H      1 <0>       0.1100
   57 H57       3.0471    -2.0335    -4.5711 H      1 <0>       0.0900
   58 H58       2.8918    -1.0071    -2.3172 H      1 <0>       0.1300
   59 H59       3.3253    -2.5664    -1.5776 H      1 <0>       0.1300
@<TRIPOS>BOND
   1    1    2 1
   2    1   29 1
   3    1   30 1
   4    1   31 1
   5    2    3 1
   6    2   32 1
   7    2   33 1
   8    3    4 1
   9    3   34 1
  10    3   35 1
  11    4    5 1
  12    4   36 1
  13    4   37 1
  14    5    6 1
  15    5   28 1
  16    5    7 1
  17    7    8 1
  18    7   38 1
  19    7   39 1
  20    8    9 1
  21    8   40 1
  22    8   41 1
  23    9   10 1
  24    9   27 1
  25    9   42 1
  26   10   11 1
  27   10   43 1
  28   10   44 1
  29   11   12 am
  30   11   45 1
  31   12   13 2
  32   12   14 1
  33   14   26 1
  34   14   15 2
  35   15   20 1
  36   15   16 1
  37   16   17 1
  38   17   18 1
  39   17   46 1
  40   17   47 1
  41   18   19 1
  42   18   48 1
  43   18   49 1
  44   19   20 1
  45   19   50 1
  46   19   51 1
  47   20   21 1
  48   21   26 ar
  49   21   22 ar
  50   22   23 ar
  51   22   52 1
  52   23   24 ar
  53   23   53 1
  54   24   25 ar
  55   24   54 1
  56   25   26 ar
  57   25   55 1
  58   27   28 1
  59   27   56 1
  60   27   57 1
  61   28   58 1
  62   28   59 1
