@<TRIPOS>MOLECULE
ZINC000000000277
38    40    1     0     0
SMALL
USER_CHARGES
@<TRIPOS>ATOM
1      C1     -0.2035    1.5351    0.0612 C.3      1 ZINC000000000277   -0.1500
2      C2     -0.1087    0.0083    0.0340 C.3      1 ZINC000000000277    0.0500
3      N3      0.6101   -0.4577    1.2224 N.2      1 ZINC000000000277   -0.5400
4      C4     -0.0049   -1.1789    2.1135 C.2      1 ZINC000000000277    0.5400
5      N5     -1.3382   -1.5346    1.9755 N.pl3    1 ZINC000000000277   -0.7100
6      C6     -1.7044   -2.8126    2.4278 C.ar     1 ZINC000000000277    0.2000
7      C7     -2.9685   -3.3129    2.1548 C.ar     1 ZINC000000000277   -0.1500
8      C8     -3.3242   -4.5679    2.6112 C.ar     1 ZINC000000000277   -0.0600
9      C9     -2.4195   -5.3205    3.3388 C.ar     1 ZINC000000000277   -0.0700
10     Cl10   -2.8701   -6.8948    3.9151 Cl       1 ZINC000000000277   -0.0600
11     C11    -1.1567   -4.8232    3.6084 C.ar     1 ZINC000000000277   -0.0500
12     C12    -0.7931   -3.5706    3.1511 C.ar     1 ZINC000000000277   -0.1600
13     C13     0.5913   -3.0451    3.4312 C.3      1 ZINC000000000277    0.2200
14     C14     1.5896   -3.7128    2.4834 C.3      1 ZINC000000000277   -0.1700
15     C15     0.9671   -3.3595    4.8563 C.ar     1 ZINC000000000277   -0.0800
16     C16     1.4617   -4.6087    5.1813 C.ar     1 ZINC000000000277   -0.1100
17     C17     1.8064   -4.8970    6.4885 C.ar     1 ZINC000000000277   -0.1200
18     C18     1.6569   -3.9360    7.4708 C.ar     1 ZINC000000000277   -0.1100
19     C19     1.1631   -2.6864    7.1457 C.ar     1 ZINC000000000277   -0.1200
20     C20     0.8224   -2.3967    5.8377 C.ar     1 ZINC000000000277   -0.0900
21     O21     0.6253   -1.6323    3.2318 O.3      1 ZINC000000000277   -0.2900
22     H22     0.7997    1.9613    0.0694 H        1 ZINC000000000277    0.0700
23     H23    -0.7384    1.8818   -0.8230 H        1 ZINC000000000277    0.0700
24     H24    -0.7393    1.8499    0.9567 H        1 ZINC000000000277    0.0500
25     H25    -1.1119   -0.4179    0.0258 H        1 ZINC000000000277    0.0400
26     H26     0.4271   -0.3066   -0.8615 H        1 ZINC000000000277    0.0900
27     H27    -1.9875   -0.9288    1.5851 H        1 ZINC000000000277    0.4200
28     H28    -3.6730   -2.7235    1.5868 H        1 ZINC000000000277    0.1400
29     H29    -4.3079   -4.9608    2.4004 H        1 ZINC000000000277    0.1400
30     H30    -0.4544   -5.4145    4.1772 H        1 ZINC000000000277    0.1400
31     H31     1.3171   -3.4889    1.4520 H        1 ZINC000000000277    0.0600
32     H32     2.5915   -3.3335    2.6850 H        1 ZINC000000000277    0.0800
33     H33     1.5717   -4.7916    2.6379 H        1 ZINC000000000277    0.0800
34     H34     1.5785   -5.3596    4.4138 H        1 ZINC000000000277    0.1300
35     H35     2.1922   -5.8733    6.7425 H        1 ZINC000000000277    0.1300
36     H36     1.9255   -4.1615    8.4922 H        1 ZINC000000000277    0.1300
37     H37     1.0460   -1.9357    7.9132 H        1 ZINC000000000277    0.1300
38     H38     0.4366   -1.4204    5.5837 H        1 ZINC000000000277    0.1300
@<TRIPOS>BOND
1     1     2     1
2     1     22    1
3     1     23    1
4     1     24    1
5     2     3     1
6     2     25    1
7     2     26    1
8     3     4     2
9     4     21    1
10    4     5     1
11    5     6     1
12    5     27    1
13    6     12    ar
14    6     7     ar
15    7     8     ar
16    7     28    1
17    8     9     ar
18    8     29    1
19    9     10    1
20    9     11    ar
21    11    12    ar
22    11    30    1
23    12    13    1
24    13    14    1
25    13    15    1
26    13    21    1
27    14    31    1
28    14    32    1
29    14    33    1
30    15    20    ar
31    15    16    ar
32    16    17    ar
33    16    34    1
34    17    18    ar
35    17    35    1
36    18    19    ar
37    18    36    1
38    19    20    ar
39    19    37    1
40    20    38    1
@<TRIPOS>SUBSTRUCTURE
1   ZINC000000000277 1     RESIDUE    1   A     ZIN   1
