@<TRIPOS>MOLECULE
ZINC000084758480
  47   50    0    0    0
SMALL
USER_CHARGES
NO_NAME
@<TRIPOS>ATOM
    1 C1       -0.0225     1.8097     0.0120 C.3    1 <0>      -0.6600
    2 S2        0.0021    -0.0041     0.0020 S.o2   1 <0>       2.6100
    3 O3        0.8448    -0.4970     1.0346 O.2    1 <0>      -0.9100
    4 O4       -1.3093    -0.5195    -0.1821 O.2    1 <0>      -0.9300
    5 N5        0.7961    -0.3989    -1.3965 N.am   1 <0>      -0.7400
    6 C6        0.2272    -0.5929    -2.6050 C.2    1 <0>       0.1000
    7 C7        1.2110    -0.8970    -3.4802 C.2    1 <0>      -0.2300
    8 C8        1.5024    -1.2419    -4.9226 C.3    1 <0>       0.1100
    9 N9        2.9524    -1.0077    -5.1063 N.3    1 <0>      -0.4900
   10 C10       3.5182    -1.9489    -6.0820 C.3    1 <0>       0.0400
   11 H11       3.2188    -2.9648    -5.8242 H      1 <0>       0.0600
   12 C12       3.0048    -1.6041    -7.4825 C.3    1 <0>       0.0700
   13 O13       3.6014    -2.4843    -8.4372 O.3    1 <0>      -0.3700
   14 C14       5.0263    -2.3963    -8.5011 C.3    1 <0>       0.1000
   15 H15       5.3165    -1.3768    -8.7550 H      1 <0>       0.0800
   16 C16       5.5414    -3.3426    -9.5548 C.ar   1 <0>      -0.0900
   17 C17       4.7973    -4.4508    -9.9114 C.ar   1 <0>      -0.1000
   18 C18       5.2708    -5.3206   -10.8792 C.ar   1 <0>       0.0900
   19 F19       4.5434    -6.4044   -11.2276 F      1 <0>      -0.1300
   20 C20       6.4894    -5.0793   -11.4901 C.ar   1 <0>      -0.1200
   21 C21       7.2336    -3.9706   -11.1337 C.ar   1 <0>      -0.1200
   22 C22       6.7579    -3.0985   -10.1695 C.ar   1 <0>       0.0900
   23 F23       7.4854    -2.0147    -9.8211 F      1 <0>      -0.1300
   24 C24       5.6209    -2.7729    -7.1416 C.3    1 <0>       0.0700
   25 H25       5.3650    -3.8058    -6.9056 H      1 <0>       0.0900
   26 N26       7.0820    -2.6275    -7.1876 N.3    1 <0>      -0.8300
   27 C27       5.0464    -1.8460    -6.0659 C.3    1 <0>      -0.1100
   28 C28       3.5280    -1.2289    -3.7606 C.3    1 <0>       0.1200
   29 C29       2.4266    -0.8890    -2.7823 C.2    1 <0>       0.0800
   30 N30       2.1778    -0.5846    -1.5356 N.2    1 <0>      -0.2200
   31 H31       1.0001     2.1870     0.0043 H      1 <0>       0.1400
   32 H32      -0.5497     2.1708    -0.8711 H      1 <0>       0.1400
   33 H33      -0.5327     2.1613     0.9088 H      1 <0>       0.1400
   34 H34      -0.8261    -0.5186    -2.8319 H      1 <0>       0.2000
   35 H35       1.2627    -2.2876    -5.1153 H      1 <0>       0.0700
   36 H36       0.9296    -0.5952    -5.5872 H      1 <0>       0.1000
   37 H37       1.9211    -1.7180    -7.5106 H      1 <0>       0.1000
   38 H38       3.2686    -0.5742    -7.7230 H      1 <0>       0.0700
   39 H39       3.8464    -4.6388    -9.4351 H      1 <0>       0.1500
   40 H40       6.8588    -5.7577   -12.2449 H      1 <0>       0.1500
   41 H41       8.1844    -3.7825   -11.6100 H      1 <0>       0.1500
   42 H42       7.4831    -3.2272    -7.8929 H      1 <0>       0.3400
   43 H43       7.3450    -1.6652    -7.3390 H      1 <0>       0.3500
   44 H44       5.3435    -0.8180    -6.2737 H      1 <0>       0.0800
   45 H45       5.4231    -2.1450    -5.0877 H      1 <0>       0.0900
   46 H46       3.8253    -2.2712    -3.6452 H      1 <0>       0.0800
   47 H47       4.3847    -0.5732    -3.6054 H      1 <0>       0.1100
@<TRIPOS>BOND
   1    1    2 1
   2    1   31 1
   3    1   32 1
   4    1   33 1
   5    2    3 2
   6    2    4 2
   7    2    5 am
   8    5   30 1
   9    5    6 1
  10    6    7 2
  11    6   34 1
  12    7   29 1
  13    7    8 1
  14    8    9 1
  15    8   35 1
  16    8   36 1
  17    9   10 1
  18    9   28 1
  19   10   11 1
  20   10   27 1
  21   10   12 1
  22   12   13 1
  23   12   37 1
  24   12   38 1
  25   13   14 1
  26   14   15 1
  27   14   16 1
  28   14   24 1
  29   16   22 ar
  30   16   17 ar
  31   17   18 ar
  32   17   39 1
  33   18   19 1
  34   18   20 ar
  35   20   21 ar
  36   20   40 1
  37   21   22 ar
  38   21   41 1
  39   22   23 1
  40   24   25 1
  41   24   26 1
  42   24   27 1
  43   26   42 1
  44   26   43 1
  45   27   44 1
  46   27   45 1
  47   28   29 1
  48   28   46 1
  49   28   47 1
  50   29   30 2
