@<TRIPOS>MOLECULE
ZINC000003992513
66    68    1     0     0
SMALL
USER_CHARGES
@<TRIPOS>ATOM
1      C1      6.1157    2.7964    6.0223 C.3      1 ZINC000003992513   -0.1600
2      C2      6.6368    1.5669    6.7691 C.3      1 ZINC000003992513   -0.1200
3      C3      5.5597    1.0593    7.7298 C.3      1 ZINC000003992513    0.0900
4      H4      5.2502    1.8697    8.3897 H        1 ZINC000003992513    0.0900
5      C5      6.1232   -0.0919    8.5655 C.3      1 ZINC000003992513   -0.1700
6      O6      4.4151    0.5902    6.9694 O.3      1 ZINC000003992513   -0.3500
7      C7      3.2111    0.6950    7.5536 C.2      1 ZINC000003992513    0.4600
8      O8      3.1168    1.1630    8.6635 O.2      1 ZINC000003992513   -0.4800
9      C9      1.9770    0.2287    6.8251 C.3      1 ZINC000003992513   -0.0500
10     C10     0.7836    0.3356    7.7391 C.2      1 ZINC000003992513    0.1000
11     C11    -0.0775    1.3905    7.7828 C.2      1 ZINC000003992513   -0.2200
12     C12    -0.0249    2.6136    6.9692 C.2      1 ZINC000003992513    0.4700
13     O13     0.6699    3.5488    7.3207 O.2      1 ZINC000003992513   -0.4200
14     C14    -0.8150    2.7075    5.7257 C.ar     1 ZINC000003992513   -0.1700
15     C15    -1.5295    1.5984    5.2642 C.ar     1 ZINC000003992513    0.0000
16     C16    -2.2659    1.6902    4.1036 C.ar     1 ZINC000003992513   -0.1400
17     I17    -3.3374    0.0287    3.4105 I        1 ZINC000003992513    0.0100
18     C18    -2.2995    2.8841    3.3919 C.ar     1 ZINC000003992513    0.2000
19     O19    -3.0266    2.9707    2.2491 O.3      1 ZINC000003992513   -0.3100
20     C20    -4.3883    3.3851    2.3764 C.3      1 ZINC000003992513    0.0700
21     C21    -5.0412    3.4231    0.9933 C.3      1 ZINC000003992513    0.0500
22     N22    -5.0595    2.0694    0.4230 N.3      1 ZINC000003992513   -0.5300
23     C23    -6.0227    1.9768   -0.6823 C.3      1 ZINC000003992513    0.0400
24     C24    -6.3120    0.5051   -0.9847 C.3      1 ZINC000003992513   -0.1500
25     C25    -3.7168    1.6638   -0.0134 C.3      1 ZINC000003992513    0.0400
26     C26    -3.1576    2.7090   -0.9808 C.3      1 ZINC000003992513   -0.1900
27     C27    -1.5904    3.9898    3.8481 C.ar     1 ZINC000003992513   -0.1400
28     I28    -1.6469    5.7859    2.7710 I        1 ZINC000003992513    0.0000
29     C29    -0.8552    3.9074    5.0100 C.ar     1 ZINC000003992513    0.0000
30     C30    -1.0746    1.0496    8.8174 C.ar     1 ZINC000003992513   -0.1000
31     C31    -2.1947    1.6913    9.3343 C.ar     1 ZINC000003992513   -0.0700
32     C32    -2.9331    1.0808   10.3261 C.ar     1 ZINC000003992513   -0.1200
33     C33    -2.5610   -0.1657   10.8053 C.ar     1 ZINC000003992513   -0.0900
34     C34    -1.4521   -0.8109   10.2998 C.ar     1 ZINC000003992513   -0.1000
35     C35    -0.6959   -0.2116    9.3004 C.ar     1 ZINC000003992513    0.0600
36     O36     0.4079   -0.5938    8.6251 O.3      1 ZINC000003992513   -0.1700
37     H37     5.8698    3.5798    6.7392 H        1 ZINC000003992513    0.0500
38     H38     6.8830    3.1581    5.3379 H        1 ZINC000003992513    0.0600
39     H39     5.2229    2.5273    5.4578 H        1 ZINC000003992513    0.0600
40     H40     6.8827    0.7836    6.0522 H        1 ZINC000003992513    0.0800
41     H41     7.5296    1.8361    7.3336 H        1 ZINC000003992513    0.0900
42     H42     6.4327   -0.9023    7.9056 H        1 ZINC000003992513    0.0700
43     H43     6.9824    0.2602    9.1363 H        1 ZINC000003992513    0.0800
44     H44     5.3558   -0.4535    9.2499 H        1 ZINC000003992513    0.0600
45     H45     1.8175    0.8517    5.9450 H        1 ZINC000003992513    0.1400
46     H46     2.1071   -0.8087    6.5171 H        1 ZINC000003992513    0.1400
47     H47    -1.5039    0.6707    5.8164 H        1 ZINC000003992513    0.1500
48     H48    -4.9246    2.6805    3.0121 H        1 ZINC000003992513    0.0700
49     H49    -4.4255    4.3786    2.8232 H        1 ZINC000003992513    0.0600
50     H50    -6.0625    3.7932    1.0836 H        1 ZINC000003992513    0.0900
51     H51    -4.4715    4.0846    0.3406 H        1 ZINC000003992513    0.0600
52     H52    -6.9484    2.4786   -0.4005 H        1 ZINC000003992513    0.0700
53     H53    -5.6056    2.4547   -1.5687 H        1 ZINC000003992513    0.0400
54     H54    -6.9689    0.4346   -1.8515 H        1 ZINC000003992513    0.0600
55     H55    -5.3764   -0.0133   -1.1946 H        1 ZINC000003992513    0.0500
56     H56    -6.7966    0.0456   -0.1232 H        1 ZINC000003992513    0.0600
57     H57    -3.0615    1.5841    0.8539 H        1 ZINC000003992513    0.1000
58     H58    -3.7742    0.6980   -0.5154 H        1 ZINC000003992513    0.0700
59     H59    -2.9849    3.6432   -0.4463 H        1 ZINC000003992513    0.0600
60     H60    -2.2170    2.3505   -1.3990 H        1 ZINC000003992513    0.0600
61     H61    -3.8723    2.8779   -1.7861 H        1 ZINC000003992513    0.0500
62     H62    -0.3050    4.7667    5.3639 H        1 ZINC000003992513    0.1500
63     H63    -2.4845    2.6626    8.9614 H        1 ZINC000003992513    0.1300
64     H64    -3.8036    1.5753   10.7310 H        1 ZINC000003992513    0.1400
65     H65    -3.1452   -0.6360   11.5824 H        1 ZINC000003992513    0.1400
66     H66    -1.1718   -1.7820   10.6804 H        1 ZINC000003992513    0.1400
@<TRIPOS>BOND
1     1     2     1
2     1     37    1
3     1     38    1
4     1     39    1
5     2     3     1
6     2     40    1
7     2     41    1
8     3     4     1
9     3     5     1
10    3     6     1
11    5     42    1
12    5     43    1
13    5     44    1
14    6     7     1
15    7     8     2
16    7     9     1
17    9     10    1
18    9     45    1
19    9     46    1
20    10    36    1
21    10    11    2
22    11    12    1
23    11    30    1
24    12    13    2
25    12    14    1
26    14    29    ar
27    14    15    ar
28    15    16    ar
29    15    47    1
30    16    17    1
31    16    18    ar
32    18    19    1
33    18    27    ar
34    19    20    1
35    20    21    1
36    20    48    1
37    20    49    1
38    21    22    1
39    21    50    1
40    21    51    1
41    22    23    1
42    22    25    1
43    23    24    1
44    23    52    1
45    23    53    1
46    24    54    1
47    24    55    1
48    24    56    1
49    25    26    1
50    25    57    1
51    25    58    1
52    26    59    1
53    26    60    1
54    26    61    1
55    27    28    1
56    27    29    ar
57    29    62    1
58    30    35    ar
59    30    31    ar
60    31    32    ar
61    31    63    1
62    32    33    ar
63    32    64    1
64    33    34    ar
65    33    65    1
66    34    35    ar
67    34    66    1
68    35    36    1
@<TRIPOS>SUBSTRUCTURE
1   ZINC000003992513 1     RESIDUE    1   A     ZIN   1
