@<TRIPOS>MOLECULE
ZINC000003826221
51    53    1     0     0
SMALL
USER_CHARGES
@<TRIPOS>ATOM
1      C1      1.0185    1.1976    0.4267 C.3      1 ZINC000003826221    0.0400
2      O2      0.9884   -0.2265    0.3133 O.3      1 ZINC000003826221   -0.3000
3      C3      1.4196   -0.7599   -0.8558 C.ar     1 ZINC000003826221    0.4200
4      C4      1.4158   -2.1371   -1.0454 C.ar     1 ZINC000003826221   -0.3200
5      C5      1.8671   -2.6388   -2.2608 C.ar     1 ZINC000003826221    0.4200
6      O6      1.8807   -3.9746   -2.4898 O.3      1 ZINC000003826221   -0.3000
7      C7      2.3592   -4.4096   -3.7641 C.3      1 ZINC000003826221    0.0400
8      N8      2.2848   -1.7910   -3.1956 N.ar     1 ZINC000003826221   -0.6000
9      C9      2.2743   -0.4859   -2.9800 C.ar     1 ZINC000003826221    0.5900
10     O10     2.7075    0.3472   -3.9561 O.3      1 ZINC000003826221   -0.2500
11     C11     2.6764    1.7479   -3.6747 C.3      1 ZINC000003826221    0.0000
12     H12     2.8164    1.9068   -2.6054 H        1 ZINC000003826221    0.1000
13     C13     1.3459    2.3157   -4.0969 C.2      1 ZINC000003826221    0.5000
14     O14     1.0750    3.4794   -3.8541 O.co2    1 ZINC000003826221   -0.6700
15     O15     0.5403    1.6114   -4.6813 O.co2    1 ZINC000003826221   -0.6800
16     C16     3.7975    2.4480   -4.4454 C.3      1 ZINC000003826221    0.2200
17     O17     3.5440    2.3504   -5.8483 O.3      1 ZINC000003826221   -0.3600
18     C18     3.4658    1.0083   -6.3329 C.3      1 ZINC000003826221    0.0300
19     C19     3.8520    3.8997   -4.0446 C.ar     1 ZINC000003826221   -0.0400
20     C20     3.4753    4.2794   -2.7700 C.ar     1 ZINC000003826221   -0.0600
21     C21     3.5253    5.6111   -2.4023 C.ar     1 ZINC000003826221   -0.1200
22     C22     3.9525    6.5629   -3.3092 C.ar     1 ZINC000003826221   -0.1200
23     C23     4.3301    6.1830   -4.5836 C.ar     1 ZINC000003826221   -0.1300
24     C24     4.2841    4.8509   -4.9499 C.ar     1 ZINC000003826221   -0.0900
25     C25     5.1144    1.7888   -4.1258 C.ar     1 ZINC000003826221   -0.0900
26     C26     5.3094    1.1962   -2.8923 C.ar     1 ZINC000003826221   -0.1000
27     C27     6.5174    0.5915   -2.5991 C.ar     1 ZINC000003826221   -0.1200
28     C28     7.5303    0.5791   -3.5397 C.ar     1 ZINC000003826221   -0.1200
29     C29     7.3351    1.1709   -4.7736 C.ar     1 ZINC000003826221   -0.1200
30     C30     6.1255    1.7718   -5.0683 C.ar     1 ZINC000003826221   -0.1000
31     N31     1.8467    0.0272   -1.8381 N.ar     1 ZINC000003826221   -0.6300
32     H32     2.0425    1.5504    0.3039 H        1 ZINC000003826221    0.0600
33     H33     0.3877    1.6371   -0.3460 H        1 ZINC000003826221    0.0700
34     H34     0.6482    1.4918    1.4088 H        1 ZINC000003826221    0.1000
35     H35     1.0707   -2.8014   -0.2670 H        1 ZINC000003826221    0.1500
36     H36     1.7362   -3.9839   -4.5508 H        1 ZINC000003826221    0.0700
37     H37     3.3893   -4.0791   -3.8976 H        1 ZINC000003826221    0.0600
38     H38     2.3171   -5.4975   -3.8160 H        1 ZINC000003826221    0.1000
39     H39     4.3426    0.4512   -6.0026 H        1 ZINC000003826221    0.0400
40     H40     2.5655    0.5332   -5.9433 H        1 ZINC000003826221    0.0700
41     H41     3.4299    1.0168   -7.4222 H        1 ZINC000003826221    0.0800
42     H42     3.1415    3.5358   -2.0614 H        1 ZINC000003826221    0.1100
43     H43     3.2303    5.9078   -1.4067 H        1 ZINC000003826221    0.1200
44     H44     3.9909    7.6034   -3.0222 H        1 ZINC000003826221    0.1100
45     H45     4.6635    6.9267   -5.2922 H        1 ZINC000003826221    0.1200
46     H46     4.5791    4.5541   -5.9455 H        1 ZINC000003826221    0.1200
47     H47     4.5180    1.2059   -2.1574 H        1 ZINC000003826221    0.1100
48     H48     6.6699    0.1292   -1.6351 H        1 ZINC000003826221    0.1200
49     H49     8.4744    0.1073   -3.3104 H        1 ZINC000003826221    0.1200
50     H50     8.1266    1.1615   -5.5083 H        1 ZINC000003826221    0.1200
51     H51     5.9730    2.2342   -6.0323 H        1 ZINC000003826221    0.1300
@<TRIPOS>BOND
1     1     2     1
2     1     32    1
3     1     33    1
4     1     34    1
5     2     3     1
6     3     31    ar
7     3     4     ar
8     4     5     ar
9     4     35    1
10    5     6     1
11    5     8     ar
12    6     7     1
13    7     36    1
14    7     37    1
15    7     38    1
16    8     9     ar
17    9     10    1
18    9     31    ar
19    10    11    1
20    11    12    1
21    11    13    1
22    11    16    1
23    13    14    ar
24    13    15    ar
25    16    17    1
26    16    19    1
27    16    25    1
28    17    18    1
29    18    39    1
30    18    40    1
31    18    41    1
32    19    24    ar
33    19    20    ar
34    20    21    ar
35    20    42    1
36    21    22    ar
37    21    43    1
38    22    23    ar
39    22    44    1
40    23    24    ar
41    23    45    1
42    24    46    1
43    25    30    ar
44    25    26    ar
45    26    27    ar
46    26    47    1
47    27    28    ar
48    27    48    1
49    28    29    ar
50    28    49    1
51    29    30    ar
52    29    50    1
53    30    51    1
@<TRIPOS>SUBSTRUCTURE
1   ZINC000003826221 1     RESIDUE    1   A     ZIN   1
