@<TRIPOS>MOLECULE
ZINC000169321098
46    45    1     0     0
SMALL
USER_CHARGES
@<TRIPOS>ATOM
1      C1      1.1719    3.3004    0.0086 C.3      1 ZINC000169321098   -0.1200
2      C2      1.1924    1.7935    0.0003 C.2      1 ZINC000169321098   -0.0700
3      C3     -0.0126    1.0758    0.0080 C.2      1 ZINC000169321098   -0.1400
4      C4     -1.2132    1.7474    0.0173 C.2      1 ZINC000169321098   -0.0900
5      C5     -2.4188    1.0294    0.0191 C.2      1 ZINC000169321098   -0.1200
6      C6     -3.6100    1.6957    0.0284 C.2      1 ZINC000169321098   -0.1000
7      C7     -3.6304    3.2025    0.0367 C.3      1 ZINC000169321098   -0.1100
8      C8     -4.8195    0.9753    0.0302 C.2      1 ZINC000169321098    0.4500
9      O9     -4.8014   -0.3575    0.0229 O.co2    1 ZINC000169321098   -0.7000
10     O10    -5.9828    1.6260    0.0393 O.co2    1 ZINC000169321098   -0.7100
11     C11     2.3933    1.1218   -0.0148 C.2      1 ZINC000169321098   -0.1400
12     C12     3.5981    1.8394   -0.0224 C.2      1 ZINC000169321098   -0.1200
13     C13     4.7991    1.1675   -0.0375 C.2      1 ZINC000169321098   -0.1200
14     C14     4.8181   -0.2346   -0.0452 C.2      1 ZINC000169321098   -0.1400
15     C15     6.0191   -0.9064   -0.0603 C.2      1 ZINC000169321098   -0.0700
16     C16     7.3138   -0.1352   -0.0685 C.3      1 ZINC000169321098   -0.1200
17     C17     6.0381   -2.3088   -0.0680 C.2      1 ZINC000169321098   -0.1400
18     C18     7.2387   -2.9804   -0.0831 C.2      1 ZINC000169321098   -0.0900
19     C19     7.2577   -4.3835   -0.0908 C.2      1 ZINC000169321098   -0.1200
20     C20     8.4489   -5.0497   -0.1057 C.2      1 ZINC000169321098   -0.1000
21     C21     9.7436   -4.2786   -0.1140 C.3      1 ZINC000169321098   -0.1100
22     C22     8.4679   -6.4574   -0.1135 C.2      1 ZINC000169321098    0.4500
23     O23     7.3228   -7.1395   -0.1062 O.co2    1 ZINC000169321098   -0.7000
24     O24     9.6312   -7.1081   -0.1281 O.co2    1 ZINC000169321098   -0.7100
25     H25     1.1768    3.6582    1.0382 H        1 ZINC000169321098    0.0700
26     H26     2.0520    3.6785   -0.5116 H        1 ZINC000169321098    0.0700
27     H27     0.2722    3.6543   -0.4948 H        1 ZINC000169321098    0.0700
28     H28     0.0021   -0.0041    0.0020 H        1 ZINC000169321098    0.1200
29     H29    -1.2279    2.8273    0.0232 H        1 ZINC000169321098    0.1200
30     H30    -2.4042   -0.0505    0.0132 H        1 ZINC000169321098    0.1300
31     H31    -3.6402    3.5714   -0.9890 H        1 ZINC000169321098    0.0600
32     H32    -4.5228    3.5509    0.5566 H        1 ZINC000169321098    0.0700
33     H33    -2.7430    3.5751    0.5483 H        1 ZINC000169321098    0.0500
34     H34     2.4080    0.0419   -0.0207 H        1 ZINC000169321098    0.1200
35     H35     3.5834    2.9193   -0.0165 H        1 ZINC000169321098    0.1100
36     H36     5.7270    1.7202   -0.0434 H        1 ZINC000169321098    0.1100
37     H37     3.8903   -0.7873   -0.0393 H        1 ZINC000169321098    0.1200
38     H38     7.6357    0.0452    0.9571 H        1 ZINC000169321098    0.0700
39     H39     8.0764   -0.7111   -0.5927 H        1 ZINC000169321098    0.0700
40     H40     7.1656    0.8181   -0.5758 H        1 ZINC000169321098    0.0700
41     H41     5.1102   -2.8614   -0.0621 H        1 ZINC000169321098    0.1200
42     H42     8.1666   -2.4277   -0.0890 H        1 ZINC000169321098    0.1200
43     H43     6.3299   -4.9361   -0.0849 H        1 ZINC000169321098    0.1300
44     H44    10.0655   -4.0981    0.9117 H        1 ZINC000169321098    0.0600
45     H45    10.5062   -4.8545   -0.6382 H        1 ZINC000169321098    0.0700
46     H46     9.5954   -3.3253   -0.6213 H        1 ZINC000169321098    0.0500
@<TRIPOS>BOND
1     1     2     1
2     1     25    1
3     1     26    1
4     1     27    1
5     2     3     1
6     2     11    2
7     3     4     2
8     3     28    1
9     4     5     1
10    4     29    1
11    5     6     2
12    5     30    1
13    6     7     1
14    6     8     1
15    7     31    1
16    7     32    1
17    7     33    1
18    8     9     ar
19    8     10    ar
20    11    12    1
21    11    34    1
22    12    13    2
23    12    35    1
24    13    14    1
25    13    36    1
26    14    15    2
27    14    37    1
28    15    16    1
29    15    17    1
30    16    38    1
31    16    39    1
32    16    40    1
33    17    18    2
34    17    41    1
35    18    19    1
36    18    42    1
37    19    20    2
38    19    43    1
39    20    21    1
40    20    22    1
41    21    44    1
42    21    45    1
43    21    46    1
44    22    23    ar
45    22    24    ar
@<TRIPOS>SUBSTRUCTURE
1   ZINC000169321098 1     RESIDUE    1   A     ZIN   1
