@<TRIPOS>MOLECULE
ZINC000116846024
28    29    1     0     0
SMALL
USER_CHARGES
@<TRIPOS>ATOM
1      N1     -0.0162    1.3436    0.0094 N.am     1 ZINC000116846024   -0.8200
2      C2      0.0021   -0.0041    0.0020 C.2      1 ZINC000116846024    0.6500
3      O3      1.0625   -0.5972   -0.0113 O.2      1 ZINC000116846024   -0.5600
4      O4     -1.1546   -0.6930    0.0094 O.3      1 ZINC000116846024   -0.3500
5      C5     -1.0590   -2.1419    0.0007 C.3      1 ZINC000116846024    0.1400
6      H6     -0.1421   -2.4485    0.5041 H        1 ZINC000116846024    0.1200
7      C7     -2.2650   -2.7370    0.7303 C.3      1 ZINC000116846024    0.1400
8      N8     -2.2185   -2.3540    2.1436 N.pl3    1 ZINC000116846024   -0.1400
9      N9     -1.6337   -3.0196    3.0795 N.2      1 ZINC000116846024   -0.3100
10     C10    -1.8050   -2.3692    4.2042 C.2      1 ZINC000116846024    0.1500
11     N11    -2.5178   -1.2798    3.9172 N.2      1 ZINC000116846024   -0.2900
12     N12    -2.7506   -1.2955    2.6485 N.2      1 ZINC000116846024   -0.0500
13     C13    -1.0395   -2.6355   -1.4231 C.ar     1 ZINC000116846024   -0.1100
14     C14    -1.6009   -1.8703   -2.4276 C.ar     1 ZINC000116846024   -0.0800
15     C15    -1.5831   -2.3231   -3.7338 C.ar     1 ZINC000116846024   -0.1100
16     C16    -1.0042   -3.5413   -4.0358 C.ar     1 ZINC000116846024   -0.0900
17     C17    -0.4423   -4.3076   -3.0318 C.ar     1 ZINC000116846024   -0.1100
18     C18    -0.4543   -3.8523   -1.7256 C.ar     1 ZINC000116846024   -0.0200
19     Cl19    0.2513   -4.8141   -0.4643 Cl       1 ZINC000116846024   -0.0500
20     H20     0.8172    1.8399    0.0041 H        1 ZINC000116846024    0.4300
21     H21    -0.8627    1.8171    0.0160 H        1 ZINC000116846024    0.4100
22     H22    -3.1837   -2.3594    0.2815 H        1 ZINC000116846024    0.1300
23     H23    -2.2400   -3.8235    0.6473 H        1 ZINC000116846024    0.1400
24     H24    -1.4387   -2.6601    5.1776 H        1 ZINC000116846024    0.2400
25     H25    -2.0540   -0.9187   -2.1921 H        1 ZINC000116846024    0.1400
26     H26    -2.0221   -1.7247   -4.5185 H        1 ZINC000116846024    0.1400
27     H27    -0.9913   -3.8948   -5.0562 H        1 ZINC000116846024    0.1400
28     H28     0.0101   -5.2595   -3.2679 H        1 ZINC000116846024    0.1400
@<TRIPOS>BOND
1     1     2     am
2     1     20    1
3     1     21    1
4     2     3     2
5     2     4     1
6     4     5     1
7     5     6     1
8     5     7     1
9     5     13    1
10    7     8     1
11    7     22    1
12    7     23    1
13    8     12    1
14    8     9     1
15    9     10    2
16    10    11    1
17    10    24    1
18    11    12    2
19    13    18    ar
20    13    14    ar
21    14    15    ar
22    14    25    1
23    15    16    ar
24    15    26    1
25    16    17    ar
26    16    27    1
27    17    18    ar
28    17    28    1
29    18    19    1
@<TRIPOS>SUBSTRUCTURE
1   ZINC000116846024 1     RESIDUE    1   A     ZIN   1
