@<TRIPOS>MOLECULE
ZINC000000597817
  54   57    0    0    0
SMALL
USER_CHARGES
NO_NAME
@<TRIPOS>ATOM
    1 C1        6.7302     0.9704     0.2462 C.3    1 <0>      -0.1700
    2 C2        5.6740    -0.0664    -0.1419 C.3    1 <0>       0.1000
    3 N3        4.7107    -0.2150     0.9518 N.pl3  1 <0>      -0.7000
    4 C4        3.6445    -1.1140     0.8282 C.ar   1 <0>       0.2200
    5 C5        3.4211    -1.7824    -0.3678 C.ar   1 <0>      -0.0800
    6 C6        2.3513    -2.6649    -0.4426 C.ar   1 <0>      -0.0700
    7 C7        1.5483    -2.8505     0.6638 C.ar   1 <0>       0.0800
    8 N8        1.7822    -2.2022     1.7904 N.ar   1 <0>      -0.4200
    9 H9        1.2007    -2.3533     2.5520 H      1 <0>       0.4400
   10 C10       2.7921    -1.3568     1.9088 C.ar   1 <0>       0.3100
   11 N11       3.0012    -0.6948     3.1162 N.pl3  1 <0>      -0.6700
   12 C12       2.2947     0.5590     3.4140 C.3    1 <0>       0.1200
   13 C13       1.5467     0.3963     4.7430 C.3    1 <0>       0.1000
   14 N14       2.4776    -0.1467     5.7423 N.am   1 <0>      -0.6100
   15 C15       2.6793     0.4934     6.9111 C.2    1 <0>       0.5900
   16 O16       2.1047     1.5414     7.1376 O.2    1 <0>      -0.5000
   17 C17       3.5940    -0.0751     7.9124 C.2    1 <0>       0.0100
   18 C18       4.2682     0.6337     8.8554 C.2    1 <0>      -0.1000
   19 C19       5.0358    -0.2812     9.6162 C.ar   1 <0>      -0.0800
   20 C20       5.9110    -0.1324    10.7001 C.ar   1 <0>      -0.1000
   21 C21       6.5246    -1.2432    11.2393 C.ar   1 <0>       0.1000
   22 O22       7.3746    -1.1024    12.2914 O.3    1 <0>      -0.3200
   23 C23       7.9771    -2.2931    12.8025 C.3    1 <0>       0.0300
   24 C24       6.2781    -2.5093    10.7122 C.ar   1 <0>      -0.1600
   25 C25       5.4211    -2.6703     9.6473 C.ar   1 <0>      -0.1000
   26 C26       4.7907    -1.5633     9.0872 C.ar   1 <0>       0.0800
   27 N27       3.8999    -1.4151     8.0479 N.pl3  1 <0>      -0.5900
   28 C28       3.1841    -1.4005     5.4445 C.3    1 <0>       0.0600
   29 C29       3.9278    -1.2407     4.1178 C.3    1 <0>       0.1200
   30 H30       7.2498     0.6405     1.1458 H      1 <0>       0.0700
   31 H31       7.4469     1.0810    -0.5675 H      1 <0>       0.0900
   32 H32       6.2462     1.9282     0.4368 H      1 <0>       0.0700
   33 H33       5.1544     0.2635    -1.0414 H      1 <0>       0.0800
   34 H34       6.1580    -1.0243    -0.3325 H      1 <0>       0.0800
   35 H35       4.8115     0.3093     1.7616 H      1 <0>       0.4200
   36 H36       4.0640    -1.6197    -1.2203 H      1 <0>       0.1700
   37 H37       2.1497    -3.2006    -1.3585 H      1 <0>       0.1900
   38 H38       0.7156    -3.5360     0.6076 H      1 <0>       0.2100
   39 H39       3.0141     1.3736     3.4965 H      1 <0>       0.0900
   40 H40       1.5826     0.7757     2.6177 H      1 <0>       0.0900
   41 H41       1.1774     1.3662     5.0761 H      1 <0>       0.1200
   42 H42       0.7107    -0.2905     4.6106 H      1 <0>       0.0700
   43 H43       4.2264     1.7033     8.9988 H      1 <0>       0.1600
   44 H44       6.1043     0.8474    11.1111 H      1 <0>       0.1400
   45 H45       8.6305    -2.0401    13.6375 H      1 <0>       0.1000
   46 H46       7.1993    -2.9762    13.1438 H      1 <0>       0.0600
   47 H47       8.5611    -2.7713    12.0161 H      1 <0>       0.0600
   48 H48       6.7643    -3.3722    11.1431 H      1 <0>       0.1400
   49 H49       5.2375    -3.6562     9.2465 H      1 <0>       0.1300
   50 H50       3.5466    -2.1334     7.5001 H      1 <0>       0.4200
   51 H51       3.8962    -1.6172     6.2409 H      1 <0>       0.1200
   52 H52       2.4647    -2.2152     5.3620 H      1 <0>       0.0800
   53 H53       4.2966    -2.2113     3.7860 H      1 <0>       0.0900
   54 H54       4.7641    -0.5538     4.2476 H      1 <0>       0.0800
@<TRIPOS>BOND
   1    1    2 1
   2    1   30 1
   3    1   31 1
   4    1   32 1
   5    2    3 1
   6    2   33 1
   7    2   34 1
   8    3    4 1
   9    3   35 1
  10    4   10 ar
  11    4    5 ar
  12    5    6 ar
  13    5   36 1
  14    6    7 ar
  15    6   37 1
  16    7    8 ar
  17    7   38 1
  18    8    9 1
  19    8   10 ar
  20   10   11 1
  21   11   29 1
  22   11   12 1
  23   12   13 1
  24   12   39 1
  25   12   40 1
  26   13   14 1
  27   13   41 1
  28   13   42 1
  29   14   15 am
  30   14   28 1
  31   15   16 2
  32   15   17 1
  33   17   27 1
  34   17   18 2
  35   18   19 1
  36   18   43 1
  37   19   26 ar
  38   19   20 ar
  39   20   21 ar
  40   20   44 1
  41   21   22 1
  42   21   24 ar
  43   22   23 1
  44   23   45 1
  45   23   46 1
  46   23   47 1
  47   24   25 ar
  48   24   48 1
  49   25   26 ar
  50   25   49 1
  51   26   27 1
  52   27   50 1
  53   28   29 1
  54   28   51 1
  55   28   52 1
  56   29   53 1
  57   29   54 1
