@<TRIPOS>MOLECULE
ZINC000169320508
96    97    1     0     0
SMALL
USER_CHARGES
@<TRIPOS>ATOM
1      C1    -12.0764   -7.7258   -2.5235 C.3      1 ZINC000169320508   -0.1500
2      C2    -10.6078   -7.3557   -2.7407 C.3      1 ZINC000169320508   -0.1300
3      C3     -9.8812   -7.3404   -1.3944 C.3      1 ZINC000169320508   -0.1100
4      C4     -8.4126   -6.9703   -1.6116 C.3      1 ZINC000169320508   -0.1500
5      C5     -7.7161   -6.8303   -0.2565 C.3      1 ZINC000169320508    0.1100
6      O6     -8.3854   -5.8096    0.5300 O.3      1 ZINC000169320508   -0.3400
7      C7     -8.4735   -4.5841   -0.0105 C.2      1 ZINC000169320508    0.4600
8      O8     -7.9258   -4.3462   -1.0609 O.2      1 ZINC000169320508   -0.5100
9      C9     -9.2555   -3.5048    0.6929 C.3      1 ZINC000169320508   -0.0800
10     C10    -9.1973   -2.2152   -0.1284 C.3      1 ZINC000169320508   -0.1700
11     C11    -9.9793   -1.1360    0.5750 C.2      1 ZINC000169320508    0.4900
12     O12   -10.5319   -1.3760    1.6349 O.co2    1 ZINC000169320508   -0.7000
13     O13   -10.0593   -0.0228    0.0841 O.co2    1 ZINC000169320508   -0.7000
14     C14    -7.7693   -8.1684    0.4871 C.3      1 ZINC000169320508   -0.1000
15     C15    -7.0029   -8.0372    1.8069 C.3      1 ZINC000169320508   -0.1300
16     C16    -5.5679   -7.5924    1.5130 C.3      1 ZINC000169320508    0.2700
17     C17    -4.8157   -7.3995    2.8320 C.3      1 ZINC000169320508   -0.1300
18     C18    -3.3628   -7.0179    2.5322 C.3      1 ZINC000169320508   -0.1200
19     C19    -2.7315   -8.1042    1.6560 C.3      1 ZINC000169320508   -0.1100
20     H20    -2.7127   -9.0474    2.2020 H        1 ZINC000169320508    0.0700
21     C21    -1.3032   -7.6980    1.2876 C.3      1 ZINC000169320508   -0.1800
22     C22    -3.5636   -8.2673    0.3813 C.3      1 ZINC000169320508    0.1000
23     H23    -3.5493   -7.3353   -0.1839 H        1 ZINC000169320508    0.0800
24     C24    -2.9736   -9.3911   -0.4729 C.3      1 ZINC000169320508   -0.1100
25     C25    -1.7402   -8.8904   -1.1795 C.2      1 ZINC000169320508   -0.1000
26     C26    -0.5666   -9.4741   -0.9615 C.2      1 ZINC000169320508   -0.1200
27     C27    -0.4757  -10.6619   -0.0386 C.3      1 ZINC000169320508   -0.1200
28     C28     0.6440   -8.9607   -1.6212 C.2      1 ZINC000169320508   -0.0900
29     C29     1.7982   -9.6049   -1.4859 C.2      1 ZINC000169320508   -0.2000
30     C30     3.0607   -9.0182   -2.0627 C.3      1 ZINC000169320508    0.1500
31     H31     2.8474   -8.0324   -2.4761 H        1 ZINC000169320508    0.1000
32     O32     3.5535   -9.8720   -3.0972 O.3      1 ZINC000169320508   -0.5500
33     C33     4.1143   -8.8919   -0.9606 C.3      1 ZINC000169320508   -0.0900
34     H34     3.7279   -8.2625   -0.1589 H        1 ZINC000169320508    0.0800
35     C35     4.4417  -10.2799   -0.4065 C.3      1 ZINC000169320508   -0.1400
36     C36     5.3640   -8.2704   -1.5290 C.2      1 ZINC000169320508   -0.1300
37     C37     5.8208   -7.1206   -1.0341 C.2      1 ZINC000169320508   -0.2100
38     C38     7.0373   -6.5156   -1.5875 C.2      1 ZINC000169320508    0.5100
39     O39     7.6325   -7.0668   -2.5037 O.co2    1 ZINC000169320508   -0.7000
40     O40     7.4569   -5.4597   -1.1329 O.co2    1 ZINC000169320508   -0.7100
41     O41    -4.9106   -8.5916    0.7315 O.3      1 ZINC000169320508   -0.3800
42     O42    -5.5901   -6.3592    0.7920 O.3      1 ZINC000169320508   -0.3700
43     C43    -6.2533   -6.4332   -0.4717 C.3      1 ZINC000169320508    0.1100
44     H44    -6.2090   -5.4612   -0.9629 H        1 ZINC000169320508    0.1200
45     C45    -5.5743   -7.4643   -1.3359 C.2      1 ZINC000169320508   -0.1900
46     C46    -4.8684   -7.0813   -2.4025 C.2      1 ZINC000169320508   -0.1000
47     C47    -4.3696   -8.0803   -3.3462 C.2      1 ZINC000169320508   -0.0800
48     C48    -4.7902   -9.5210   -3.2107 C.3      1 ZINC000169320508   -0.1100
49     C49    -3.5290   -7.7107   -4.3429 C.2      1 ZINC000169320508   -0.1900
50     C50    -3.2092   -8.6244   -5.3731 C.2      1 ZINC000169320508    0.5000
51     O51    -3.6700   -9.7594   -5.3501 O.co2    1 ZINC000169320508   -0.6900
52     O52    -2.4712   -8.2812   -6.2890 O.co2    1 ZINC000169320508   -0.7000
53     H53   -12.5940   -7.7367   -3.4827 H        1 ZINC000169320508    0.0500
54     H54   -12.1384   -8.7131   -2.0659 H        1 ZINC000169320508    0.0500
55     H55   -12.5429   -6.9912   -1.8672 H        1 ZINC000169320508    0.0500
56     H56   -10.1412   -8.0903   -3.3971 H        1 ZINC000169320508    0.0600
57     H57   -10.5457   -6.3684   -3.1983 H        1 ZINC000169320508    0.0600
58     H58   -10.3477   -6.6058   -0.7380 H        1 ZINC000169320508    0.0600
59     H59    -9.9432   -8.3277   -0.9368 H        1 ZINC000169320508    0.0600
60     H60    -7.9231   -7.7518   -2.1927 H        1 ZINC000169320508    0.0800
61     H61    -8.3520   -6.0248   -2.1506 H        1 ZINC000169320508    0.0900
62     H62   -10.2932   -3.8200    0.8013 H        1 ZINC000169320508    0.1000
63     H63    -8.8247   -3.3277    1.6784 H        1 ZINC000169320508    0.1000
64     H64    -8.1595   -1.9000   -0.2368 H        1 ZINC000169320508    0.0700
65     H65    -9.6280   -2.3924   -1.1139 H        1 ZINC000169320508    0.0700
66     H66    -8.8073   -8.4303    0.6927 H        1 ZINC000169320508    0.0800
67     H67    -7.3105   -8.9445   -0.1254 H        1 ZINC000169320508    0.0900
68     H68    -7.4915   -7.2962    2.4396 H        1 ZINC000169320508    0.0900
69     H69    -6.9885   -9.0003    2.3170 H        1 ZINC000169320508    0.0800
70     H70    -5.2893   -6.6049    3.4085 H        1 ZINC000169320508    0.0800
71     H71    -4.8379   -8.3277    3.4031 H        1 ZINC000169320508    0.0800
72     H72    -3.3377   -6.0641    2.0052 H        1 ZINC000169320508    0.0700
73     H73    -2.8075   -6.9345    3.4664 H        1 ZINC000169320508    0.0600
74     H74    -0.7139   -7.5771    2.1965 H        1 ZINC000169320508    0.0500
75     H75    -0.8548   -8.4716    0.6641 H        1 ZINC000169320508    0.0900
76     H76    -1.3232   -6.7560    0.7395 H        1 ZINC000169320508    0.0500
77     H77    -2.7092  -10.2332    0.1668 H        1 ZINC000169320508    0.0700
78     H78    -3.7096   -9.7119   -1.2101 H        1 ZINC000169320508    0.1000
79     H79    -1.8103   -8.0572   -1.8630 H        1 ZINC000169320508    0.1200
80     H80    -0.6009  -11.5794   -0.6137 H        1 ZINC000169320508    0.0600
81     H81     0.4989  -10.6691    0.4494 H        1 ZINC000169320508    0.0600
82     H82    -1.2594  -10.5965    0.7161 H        1 ZINC000169320508    0.0700
83     H83     0.5946   -8.0603   -2.2154 H        1 ZINC000169320508    0.1200
84     H84     1.8315  -10.5491   -0.9626 H        1 ZINC000169320508    0.1100
85     H85     3.7648  -10.7678   -2.8005 H        1 ZINC000169320508    0.3600
86     H86     5.1281  -10.1828    0.4347 H        1 ZINC000169320508    0.0600
87     H87     3.5238  -10.7636   -0.0724 H        1 ZINC000169320508    0.0600
88     H88     4.9065  -10.8823   -1.1870 H        1 ZINC000169320508    0.0600
89     H89     5.8893   -8.7568   -2.3376 H        1 ZINC000169320508    0.1200
90     H90     5.2955   -6.6342   -0.2255 H        1 ZINC000169320508    0.0900
91     H91    -5.6588   -8.5132   -1.0925 H        1 ZINC000169320508    0.1400
92     H92    -4.6658   -6.0334   -2.5681 H        1 ZINC000169320508    0.1000
93     H93    -5.7131   -9.6840   -3.7673 H        1 ZINC000169320508    0.0500
94     H94    -4.0073  -10.1670   -3.6081 H        1 ZINC000169320508    0.1100
95     H95    -4.9544   -9.7542   -2.1587 H        1 ZINC000169320508    0.0400
96     H96    -3.1034   -6.7181   -4.3501 H        1 ZINC000169320508    0.0900
@<TRIPOS>BOND
1     1     2     1
2     1     53    1
3     1     54    1
4     1     55    1
5     2     3     1
6     2     56    1
7     2     57    1
8     3     4     1
9     3     58    1
10    3     59    1
11    4     5     1
12    4     60    1
13    4     61    1
14    5     43    1
15    5     6     1
16    5     14    1
17    6     7     1
18    7     8     2
19    7     9     1
20    9     10    1
21    9     62    1
22    9     63    1
23    10    11    1
24    10    64    1
25    10    65    1
26    11    12    ar
27    11    13    ar
28    14    15    1
29    14    66    1
30    14    67    1
31    15    16    1
32    15    68    1
33    15    69    1
34    16    41    1
35    16    17    1
36    16    42    1
37    17    18    1
38    17    70    1
39    17    71    1
40    18    19    1
41    18    72    1
42    18    73    1
43    19    20    1
44    19    21    1
45    19    22    1
46    21    74    1
47    21    75    1
48    21    76    1
49    22    23    1
50    22    24    1
51    22    41    1
52    24    25    1
53    24    77    1
54    24    78    1
55    25    26    2
56    25    79    1
57    26    27    1
58    26    28    1
59    27    80    1
60    27    81    1
61    27    82    1
62    28    29    2
63    28    83    1
64    29    30    1
65    29    84    1
66    30    31    1
67    30    32    1
68    30    33    1
69    32    85    1
70    33    34    1
71    33    35    1
72    33    36    1
73    35    86    1
74    35    87    1
75    35    88    1
76    36    37    2
77    36    89    1
78    37    38    1
79    37    90    1
80    38    39    ar
81    38    40    ar
82    42    43    1
83    43    44    1
84    43    45    1
85    45    46    2
86    45    91    1
87    46    47    1
88    46    92    1
89    47    48    1
90    47    49    2
91    48    93    1
92    48    94    1
93    48    95    1
94    49    50    1
95    49    96    1
96    50    51    ar
97    50    52    ar
@<TRIPOS>SUBSTRUCTURE
1   ZINC000169320508 1     RESIDUE    1   A     ZIN   1
