@<TRIPOS>MOLECULE
ZINC000003814354
28    30    1     0     0
SMALL
USER_CHARGES
@<TRIPOS>ATOM
1      C1     -0.0187    1.5258    0.0104 C.3      1 ZINC000003814354   -0.1400
2      C2      0.0021   -0.0041    0.0020 C.3      1 ZINC000003814354    0.0800
3      H3      0.5118   -0.3586   -0.8939 H        1 ZINC000003814354    0.1000
4      C4     -1.4361   -0.5397    0.0235 C.3      1 ZINC000003814354   -0.1300
5      C5     -1.3837   -2.0615   -0.0705 C.3      1 ZINC000003814354    0.1100
6      N6     -2.7070   -2.6382    0.1989 N.am     1 ZINC000003814354   -0.7600
7      C7     -3.0709   -3.2940   -0.9199 C.2      1 ZINC000003814354    0.6600
8      O8     -4.1223   -3.8915   -1.0413 O.2      1 ZINC000003814354   -0.6100
9      N9     -2.1447   -3.2133   -1.8832 N.pl3    1 ZINC000003814354   -0.7100
10     C10    -1.0757   -2.4924   -1.4856 C.2      1 ZINC000003814354    0.5100
11     O11    -0.0787   -2.2424   -2.1285 O.2      1 ZINC000003814354   -0.5500
12     C12    -0.3640   -2.6192    0.8825 C.ar     1 ZINC000003814354   -0.1100
13     C13    -0.4038   -3.9667    1.1982 C.ar     1 ZINC000003814354   -0.1000
14     C14     0.5227   -4.5074    2.0714 C.ar     1 ZINC000003814354    0.0600
15     F15     0.4772   -5.8228    2.3762 F        1 ZINC000003814354   -0.1400
16     C16     1.4964   -3.6995    2.6332 C.ar     1 ZINC000003814354   -0.1200
17     C17     1.5404   -2.3559    2.3206 C.ar     1 ZINC000003814354   -0.1300
18     C18     0.6097   -1.8094    1.4444 C.ar     1 ZINC000003814354    0.1300
19     O19     0.6837   -0.4813    1.1628 O.3      1 ZINC000003814354   -0.3100
20     H20     1.0039    1.9031    0.0027 H        1 ZINC000003814354    0.0700
21     H21    -0.5459    1.8868   -0.8726 H        1 ZINC000003814354    0.0800
22     H22    -0.5289    1.8773    0.9072 H        1 ZINC000003814354    0.0600
23     H23    -1.9236   -0.2457    0.9530 H        1 ZINC000003814354    0.0700
24     H24    -1.9901   -0.1383   -0.8251 H        1 ZINC000003814354    0.0900
25     H25    -3.2177   -2.5624    1.0201 H        1 ZINC000003814354    0.4000
26     H26    -1.1624   -4.5988    0.7607 H        1 ZINC000003814354    0.1400
27     H27     2.2204   -4.1199    3.3154 H        1 ZINC000003814354    0.1400
28     H28     2.3008   -1.7264    2.7587 H        1 ZINC000003814354    0.1400
@<TRIPOS>BOND
1     1     2     1
2     1     20    1
3     1     21    1
4     1     22    1
5     2     3     1
6     2     19    1
7     2     4     1
8     4     5     1
9     4     23    1
10    4     24    1
11    5     10    1
12    5     6     1
13    5     12    1
14    6     7     am
15    6     25    1
16    7     8     2
17    7     9     1
18    9     10    1
19    10    11    2
20    12    18    ar
21    12    13    ar
22    13    14    ar
23    13    26    1
24    14    15    1
25    14    16    ar
26    16    17    ar
27    16    27    1
28    17    18    ar
29    17    28    1
30    18    19    1
@<TRIPOS>SUBSTRUCTURE
1   ZINC000003814354 1     RESIDUE    1   A     ZIN   1
