@<TRIPOS>MOLECULE
ZINC000030691732
44    47    1     0     0
SMALL
USER_CHARGES
@<TRIPOS>ATOM
1      C1     -0.0187    1.5258    0.0104 C.3      1 ZINC000030691732   -0.1500
2      C2      0.0021   -0.0041    0.0020 C.3      1 ZINC000030691732   -0.1200
3      C3      0.7182   -0.4975   -1.2568 C.3      1 ZINC000030691732   -0.0700
4      C4      0.7386   -2.0043   -1.2651 C.2      1 ZINC000030691732   -0.0900
5      C5     -0.2130   -2.7105   -1.9353 C.2      1 ZINC000030691732    0.1200
6      C6     -1.3018   -1.9809   -2.6792 C.3      1 ZINC000030691732    0.1600
7      N7     -0.9179   -1.8330   -4.0852 N.pl3    1 ZINC000030691732   -0.4300
8      C8     -0.2999   -0.7518   -4.6503 C.2      1 ZINC000030691732   -0.0400
9      C9     -0.1320   -1.0319   -5.9597 C.2      1 ZINC000030691732   -0.0200
10     N10    -0.6309   -2.2492   -6.1977 N.2      1 ZINC000030691732   -0.4500
11     C11    -1.1039   -2.7504   -5.0781 C.2      1 ZINC000030691732    0.2400
12     C12    -1.7385   -4.0767   -4.9234 C.ar     1 ZINC000030691732    0.1700
13     N13    -2.1801   -4.4612   -3.7315 N.ar     1 ZINC000030691732   -0.4300
14     C14    -2.7510   -5.6344   -3.5520 C.ar     1 ZINC000030691732    0.1000
15     C15    -2.9129   -6.5159   -4.6056 C.ar     1 ZINC000030691732   -0.1400
16     C16    -2.4667   -6.1569   -5.8694 C.ar     1 ZINC000030691732   -0.1100
17     C17    -1.8744   -4.9144   -6.0335 C.ar     1 ZINC000030691732    0.0900
18     F18    -1.4259   -4.5235   -7.2465 F        1 ZINC000030691732   -0.1100
19     N19    -0.1874   -4.0450   -1.9379 N.2      1 ZINC000030691732   -0.4500
20     C20     0.7365   -4.7189   -1.3075 C.2      1 ZINC000030691732    0.3600
21     N21     1.7159   -4.0851   -0.6186 N.pl3    1 ZINC000030691732   -0.3300
22     N22     2.8130   -4.5165    0.1366 N.2      1 ZINC000030691732   -0.3300
23     C23     3.4244   -3.4421    0.5775 C.2      1 ZINC000030691732    0.2700
24     C24     4.6625   -3.4390    1.4367 C.3      1 ZINC000030691732   -0.0700
25     N25     2.7872   -2.3590    0.1516 N.2      1 ZINC000030691732   -0.5300
26     C26     1.7461   -2.7154   -0.5844 C.2      1 ZINC000030691732    0.3000
27     H27     1.0039    1.9031    0.0027 H        1 ZINC000030691732    0.0600
28     H28    -0.5459    1.8868   -0.8726 H        1 ZINC000030691732    0.0600
29     H29    -0.5289    1.8773    0.9072 H        1 ZINC000030691732    0.0600
30     H30     0.5293   -0.3651    0.8851 H        1 ZINC000030691732    0.0700
31     H31    -1.0205   -0.3814    0.0098 H        1 ZINC000030691732    0.0600
32     H32     0.1910   -0.1364   -2.1398 H        1 ZINC000030691732    0.0800
33     H33     1.7408   -0.1202   -1.2645 H        1 ZINC000030691732    0.0900
34     H34    -2.2299   -2.5487   -2.6138 H        1 ZINC000030691732    0.1400
35     H35    -1.4468   -0.9954   -2.2365 H        1 ZINC000030691732    0.1100
36     H36    -0.0027    0.1549   -4.1443 H        1 ZINC000030691732    0.1800
37     H37     0.3271   -0.3831   -6.6908 H        1 ZINC000030691732    0.1800
38     H38    -3.0975   -5.9125   -2.5676 H        1 ZINC000030691732    0.1700
39     H39    -3.3823   -7.4753   -4.4459 H        1 ZINC000030691732    0.1500
40     H40    -2.5820   -6.8287   -6.7071 H        1 ZINC000030691732    0.1500
41     H41     0.7194   -5.7984   -1.3354 H        1 ZINC000030691732    0.2100
42     H42     5.5469   -3.4255    0.7995 H        1 ZINC000030691732    0.0900
43     H43     4.6604   -2.5546    2.0739 H        1 ZINC000030691732    0.0900
44     H44     4.6759   -4.3345    2.0579 H        1 ZINC000030691732    0.0900
@<TRIPOS>BOND
1     1     2     1
2     1     27    1
3     1     28    1
4     1     29    1
5     2     3     1
6     2     30    1
7     2     31    1
8     3     4     1
9     3     32    1
10    3     33    1
11    4     26    1
12    4     5     2
13    5     6     1
14    5     19    1
15    6     7     1
16    6     34    1
17    6     35    1
18    7     11    1
19    7     8     1
20    8     9     2
21    8     36    1
22    9     10    1
23    9     37    1
24    10    11    2
25    11    12    1
26    12    17    ar
27    12    13    ar
28    13    14    ar
29    14    15    ar
30    14    38    1
31    15    16    ar
32    15    39    1
33    16    17    ar
34    16    40    1
35    17    18    1
36    19    20    2
37    20    21    1
38    20    41    1
39    21    26    1
40    21    22    1
41    22    23    2
42    23    24    1
43    23    25    1
44    24    42    1
45    24    43    1
46    24    44    1
47    25    26    2
@<TRIPOS>SUBSTRUCTURE
1   ZINC000030691732 1     RESIDUE    1   A     ZIN   1
