@<TRIPOS>MOLECULE
ZINC000072266909
91    92    1     0     0
SMALL
USER_CHARGES
@<TRIPOS>ATOM
1      C1      0.1666    1.3894   -0.8850 C.3      1 ZINC000072266909   -0.1500
2      C2      0.1668   -0.1329   -0.7315 C.3      1 ZINC000072266909   -0.1300
3      C3     -1.2750   -0.6450   -0.7256 C.3      1 ZINC000072266909   -0.1200
4      C4     -1.2749   -2.1673   -0.5720 C.3      1 ZINC000072266909   -0.1200
5      C5     -2.7166   -2.6794   -0.5662 C.3      1 ZINC000072266909   -0.1200
6      C6     -2.7165   -4.2016   -0.4126 C.3      1 ZINC000072266909   -0.1200
7      C7     -4.1583   -4.7137   -0.4068 C.3      1 ZINC000072266909   -0.1200
8      C8     -4.1582   -6.2360   -0.2532 C.3      1 ZINC000072266909   -0.1200
9      C9     -5.5999   -6.7481   -0.2473 C.3      1 ZINC000072266909   -0.1200
10     C10    -5.5998   -8.2704   -0.0938 C.3      1 ZINC000072266909   -0.1200
11     C11    -7.0415   -8.7825   -0.0879 C.3      1 ZINC000072266909   -0.1300
12     C12    -7.0414  -10.3047    0.0657 C.3      1 ZINC000072266909   -0.1100
13     C13    -8.4838  -10.8108    0.1309 C.3      1 ZINC000072266909    0.0900
14     C14    -9.2018  -10.4051   -1.0884 C.1      1 ZINC000072266909    0.2100
15     N15    -9.7559  -10.0920   -2.0293 N.1      1 ZINC000072266909   -0.4100
16     C16    -8.4844  -12.3370    0.2391 C.3      1 ZINC000072266909   -0.1000
17     C17    -9.9271  -12.8454    0.2723 C.3      1 ZINC000072266909   -0.1600
18     C18    -9.9292  -14.3603    0.4864 C.3      1 ZINC000072266909   -0.0100
19     N19   -11.3144  -14.8484    0.5183 N.4      1 ZINC000072266909   -0.3900
20     H20   -11.8333  -14.3422    1.2201 H        1 ZINC000072266909    0.4300
21     C21   -11.9371  -14.6408   -0.7959 C.3      1 ZINC000072266909   -0.0600
22     C22   -11.3213  -16.2812    0.8426 C.3      1 ZINC000072266909   -0.0100
23     C23   -12.7655  -16.7618    0.9985 C.3      1 ZINC000072266909   -0.1000
24     C24   -12.7727  -18.2316    1.3312 C.ar     1 ZINC000072266909   -0.0700
25     C25   -12.8084  -19.1693    0.3161 C.ar     1 ZINC000072266909   -0.1500
26     C26   -12.8150  -20.5188    0.6181 C.ar     1 ZINC000072266909   -0.0700
27     C27   -12.7860  -20.9330    1.9354 C.ar     1 ZINC000072266909   -0.2000
28     C28   -12.7501  -19.9938    2.9561 C.ar     1 ZINC000072266909    0.1400
29     O29   -12.7211  -20.3988    4.2531 O.3      1 ZINC000072266909   -0.3200
30     C30   -12.7295  -21.8075    4.4931 C.3      1 ZINC000072266909    0.0200
31     C31   -12.7378  -18.6408    2.6504 C.ar     1 ZINC000072266909   -0.1500
32     C32    -9.1689  -10.2215    1.3369 C.ar     1 ZINC000072266909   -0.0400
33     C33   -10.2501   -9.3759    1.1725 C.ar     1 ZINC000072266909   -0.1600
34     C34   -10.8809   -8.8334    2.2771 C.ar     1 ZINC000072266909   -0.0700
35     C35   -10.4319   -9.1354    3.5479 C.ar     1 ZINC000072266909   -0.2000
36     C36    -9.3469   -9.9839    3.7156 C.ar     1 ZINC000072266909    0.1400
37     O37    -8.9034  -10.2830    4.9649 O.3      1 ZINC000072266909   -0.3100
38     C38    -9.6017   -9.6883    6.0608 C.3      1 ZINC000072266909    0.0200
39     C39    -8.7194  -10.5312    2.6062 C.ar     1 ZINC000072266909   -0.1400
40     H40     1.1938    1.7542   -0.8892 H        1 ZINC000072266909    0.0500
41     H41    -0.3188    1.6599   -1.8227 H        1 ZINC000072266909    0.0500
42     H42    -0.3751    1.8385   -0.0526 H        1 ZINC000072266909    0.0500
43     H43     0.7085   -0.5820   -1.5639 H        1 ZINC000072266909    0.0600
44     H44     0.6522   -0.4034    0.2062 H        1 ZINC000072266909    0.0600
45     H45    -1.8167   -0.1959    0.1068 H        1 ZINC000072266909    0.0600
46     H46    -1.7605   -0.3744   -1.6633 H        1 ZINC000072266909    0.0600
47     H47    -0.7332   -2.6164   -1.4045 H        1 ZINC000072266909    0.0600
48     H48    -0.7894   -2.4378    0.3656 H        1 ZINC000072266909    0.0600
49     H49    -3.2583   -2.2302    0.2662 H        1 ZINC000072266909    0.0600
50     H50    -3.2021   -2.4088   -1.5038 H        1 ZINC000072266909    0.0600
51     H51    -2.1748   -4.6507   -1.2450 H        1 ZINC000072266909    0.0600
52     H52    -2.2310   -4.4722    0.5251 H        1 ZINC000072266909    0.0600
53     H53    -4.7000   -4.2646    0.4257 H        1 ZINC000072266909    0.0600
54     H54    -4.6437   -4.4432   -1.3444 H        1 ZINC000072266909    0.0600
55     H55    -3.6164   -6.6851   -1.0856 H        1 ZINC000072266909    0.0600
56     H56    -3.6727   -6.5065    0.6845 H        1 ZINC000072266909    0.0600
57     H57    -6.1416   -6.2990    0.5851 H        1 ZINC000072266909    0.0600
58     H58    -6.0854   -6.4775   -1.1850 H        1 ZINC000072266909    0.0600
59     H59    -5.0581   -8.7195   -0.9262 H        1 ZINC000072266909    0.0600
60     H60    -5.1143   -8.5409    0.8439 H        1 ZINC000072266909    0.0700
61     H61    -7.5833   -8.3333    0.7445 H        1 ZINC000072266909    0.0700
62     H62    -7.5270   -8.5119   -1.0256 H        1 ZINC000072266909    0.0600
63     H63    -6.5363  -10.7560   -0.7883 H        1 ZINC000072266909    0.0800
64     H64    -6.5189  -10.5774    0.9826 H        1 ZINC000072266909    0.0900
65     H65    -7.9690  -12.7625   -0.6219 H        1 ZINC000072266909    0.0900
66     H66    -7.9725  -12.6366    1.1536 H        1 ZINC000072266909    0.1000
67     H67   -10.4639  -12.3623    1.0888 H        1 ZINC000072266909    0.1000
68     H68   -10.4166  -12.6114   -0.6730 H        1 ZINC000072266909    0.0900
69     H69    -9.3924  -14.8434   -0.3300 H        1 ZINC000072266909    0.1300
70     H70    -9.4397  -14.5943    1.4318 H        1 ZINC000072266909    0.1400
71     H71   -12.9649  -15.0030   -0.7723 H        1 ZINC000072266909    0.1300
72     H72   -11.9319  -13.5777   -1.0366 H        1 ZINC000072266909    0.1200
73     H73   -11.3765  -15.1877   -1.5540 H        1 ZINC000072266909    0.1200
74     H74   -10.8379  -16.8378    0.0398 H        1 ZINC000072266909    0.1300
75     H75   -10.7812  -16.4453    1.7750 H        1 ZINC000072266909    0.1300
76     H76   -13.2490  -16.2051    1.8013 H        1 ZINC000072266909    0.1000
77     H77   -13.3057  -16.5977    0.0661 H        1 ZINC000072266909    0.1000
78     H78   -12.8315  -18.8474   -0.7146 H        1 ZINC000072266909    0.1300
79     H79   -12.8433  -21.2494   -0.1767 H        1 ZINC000072266909    0.1300
80     H80   -12.7916  -21.9870    2.1708 H        1 ZINC000072266909    0.1300
81     H81   -12.7038  -21.9932    5.5669 H        1 ZINC000072266909    0.1100
82     H82   -13.6351  -22.2427    4.0706 H        1 ZINC000072266909    0.0600
83     H83   -11.8558  -22.2611    4.0250 H        1 ZINC000072266909    0.0600
84     H84   -12.7099  -17.9079    3.4431 H        1 ZINC000072266909    0.1300
85     H85   -10.6025   -9.1382    0.1796 H        1 ZINC000072266909    0.1200
86     H86   -11.7252   -8.1728    2.1460 H        1 ZINC000072266909    0.1300
87     H87   -10.9246   -8.7113    4.4102 H        1 ZINC000072266909    0.1300
88     H88    -9.5446   -8.6027    5.9818 H        1 ZINC000072266909    0.0600
89     H89   -10.6459   -9.9999    6.0383 H        1 ZINC000072266909    0.0600
90     H90    -9.1470  -10.0088    6.9982 H        1 ZINC000072266909    0.1100
91     H91    -7.8747  -11.1919    2.7341 H        1 ZINC000072266909    0.1400
@<TRIPOS>BOND
1     1     2     1
2     1     40    1
3     1     41    1
4     1     42    1
5     2     3     1
6     2     43    1
7     2     44    1
8     3     4     1
9     3     45    1
10    3     46    1
11    4     5     1
12    4     47    1
13    4     48    1
14    5     6     1
15    5     49    1
16    5     50    1
17    6     7     1
18    6     51    1
19    6     52    1
20    7     8     1
21    7     53    1
22    7     54    1
23    8     9     1
24    8     55    1
25    8     56    1
26    9     10    1
27    9     57    1
28    9     58    1
29    10    11    1
30    10    59    1
31    10    60    1
32    11    12    1
33    11    61    1
34    11    62    1
35    12    13    1
36    12    63    1
37    12    64    1
38    13    14    1
39    13    16    1
40    13    32    1
41    14    15    3
42    16    17    1
43    16    65    1
44    16    66    1
45    17    18    1
46    17    67    1
47    17    68    1
48    18    19    1
49    18    69    1
50    18    70    1
51    19    20    1
52    19    21    1
53    19    22    1
54    21    71    1
55    21    72    1
56    21    73    1
57    22    23    1
58    22    74    1
59    22    75    1
60    23    24    1
61    23    76    1
62    23    77    1
63    24    31    ar
64    24    25    ar
65    25    26    ar
66    25    78    1
67    26    27    ar
68    26    79    1
69    27    28    ar
70    27    80    1
71    28    29    1
72    28    31    ar
73    29    30    1
74    30    81    1
75    30    82    1
76    30    83    1
77    31    84    1
78    32    39    ar
79    32    33    ar
80    33    34    ar
81    33    85    1
82    34    35    ar
83    34    86    1
84    35    36    ar
85    35    87    1
86    36    37    1
87    36    39    ar
88    37    38    1
89    38    88    1
90    38    89    1
91    38    90    1
92    39    91    1
@<TRIPOS>SUBSTRUCTURE
1   ZINC000072266909 1     RESIDUE    1   A     ZIN   1
