@<TRIPOS>MOLECULE
ZINC000036382821
53    58    1     0     0
SMALL
USER_CHARGES
@<TRIPOS>ATOM
1      N1     -0.0116    1.0048    0.0076 N.4      1 ZINC000036382821   -0.6200
2      H2      0.0021   -0.0041    0.0020 H        1 ZINC000036382821    0.4400
3      H3      0.9350    1.3541    0.0004 H        1 ZINC000036382821    0.4400
4      H4     -0.4996    1.3391   -0.8099 H        1 ZINC000036382821    0.4400
5      C5     -0.6992    1.4786    1.2162 C.3      1 ZINC000036382821    0.0600
6      C6     -1.0020    2.9543    1.1767 C.ar     1 ZINC000036382821   -0.1000
7      C7     -1.2428    3.6399    2.3540 C.ar     1 ZINC000036382821   -0.1000
8      C8     -1.5206    4.9911    2.3243 C.ar     1 ZINC000036382821   -0.0600
9      C9     -1.5585    5.6657    1.1042 C.ar     1 ZINC000036382821   -0.0300
10     C10    -1.8557    7.1164    1.0654 C.ar     1 ZINC000036382821    0.2000
11     N11    -2.7081    7.6293    1.9395 N.ar     1 ZINC000036382821   -0.4500
12     C12    -3.0038    8.9229    1.9420 C.ar     1 ZINC000036382821    0.2100
13     C13    -2.4097    9.7950    1.0017 C.ar     1 ZINC000036382821   -0.0800
14     C14    -1.5088    9.2908    0.0678 C.ar     1 ZINC000036382821    0.0000
15     C15    -1.2227    7.9262    0.1042 C.ar     1 ZINC000036382821   -0.0900
16     C16    -0.2710    7.3339   -0.8651 C.ar     1 ZINC000036382821   -0.0500
17     C17     0.7640    6.5137   -0.4177 C.ar     1 ZINC000036382821   -0.1000
18     C18     1.6472    5.9651   -1.3250 C.ar     1 ZINC000036382821   -0.1200
19     C19     1.5075    6.2278   -2.6760 C.ar     1 ZINC000036382821   -0.1100
20     C20     0.4826    7.0408   -3.1258 C.ar     1 ZINC000036382821   -0.1100
21     C21    -0.4104    7.5901   -2.2286 C.ar     1 ZINC000036382821   -0.1000
22     C22    -2.7669   11.2224    1.0404 C.2      1 ZINC000036382821    0.3100
23     N23    -2.3883   12.2418    0.3160 N.2      1 ZINC000036382821   -0.2500
24     N24    -3.0498   13.3810    0.7937 N.am     1 ZINC000036382821   -0.5300
25     C25    -3.8299   12.9962    1.8232 C.2      1 ZINC000036382821    0.6600
26     O26    -4.5520   13.7204    2.4854 O.2      1 ZINC000036382821   -0.5200
27     N27    -3.6689   11.6656    1.9912 N.am     1 ZINC000036382821   -0.4900
28     C28    -4.2321   10.7931    2.8964 C.2      1 ZINC000036382821    0.1500
29     C29    -3.9496    9.4869    2.9122 C.2      1 ZINC000036382821   -0.1600
30     C30    -1.3149    4.9691   -0.0792 C.ar     1 ZINC000036382821   -0.0700
31     C31    -1.0326    3.6191   -0.0362 C.ar     1 ZINC000036382821   -0.1300
32     C32    -1.9032    0.6113    1.6199 C.3      1 ZINC000036382821   -0.1300
33     C33    -0.9184   -0.2324    2.4464 C.3      1 ZINC000036382821   -0.1600
34     C34    -0.0315    1.0215    2.5239 C.3      1 ZINC000036382821   -0.1300
35     H35    -1.2135    3.1163    3.2981 H        1 ZINC000036382821    0.1400
36     H36    -1.7087    5.5252    3.2439 H        1 ZINC000036382821    0.1500
37     H37    -1.0423    9.9376   -0.6604 H        1 ZINC000036382821    0.1600
38     H38     0.8745    6.3084    0.6369 H        1 ZINC000036382821    0.1200
39     H39     2.4493    5.3296   -0.9796 H        1 ZINC000036382821    0.1200
40     H40     2.2016    5.7968   -3.3823 H        1 ZINC000036382821    0.1300
41     H41     0.3785    7.2424   -4.1817 H        1 ZINC000036382821    0.1300
42     H42    -1.2102    8.2247   -2.5809 H        1 ZINC000036382821    0.1300
43     H43    -2.9623   14.2825    0.4465 H        1 ZINC000036382821    0.4700
44     H44    -4.9318   11.1804    3.6223 H        1 ZINC000036382821    0.1800
45     H45    -4.4181    8.8441    3.6428 H        1 ZINC000036382821    0.1700
46     H46    -1.3432    5.4860   -1.0270 H        1 ZINC000036382821    0.1400
47     H47    -0.8435    3.0786   -0.9519 H        1 ZINC000036382821    0.1200
48     H48    -2.6393    1.1406    2.2249 H        1 ZINC000036382821    0.1300
49     H49    -2.3499    0.0692    0.7864 H        1 ZINC000036382821    0.0900
50     H50    -1.3157   -0.5466    3.4115 H        1 ZINC000036382821    0.1000
51     H51    -0.4681   -1.0517    1.8859 H        1 ZINC000036382821    0.0900
52     H52     1.0328    0.8106    2.4202 H        1 ZINC000036382821    0.1000
53     H53    -0.2559    1.6630    3.3761 H        1 ZINC000036382821    0.1300
@<TRIPOS>BOND
1     1     2     1
2     1     3     1
3     1     4     1
4     1     5     1
5     5     34    1
6     5     6     1
7     5     32    1
8     6     31    ar
9     6     7     ar
10    7     8     ar
11    7     35    1
12    8     9     ar
13    8     36    1
14    9     10    1
15    9     30    ar
16    10    15    ar
17    10    11    ar
18    11    12    ar
19    12    29    1
20    12    13    ar
21    13    14    ar
22    13    22    1
23    14    15    ar
24    14    37    1
25    15    16    1
26    16    21    ar
27    16    17    ar
28    17    18    ar
29    17    38    1
30    18    19    ar
31    18    39    1
32    19    20    ar
33    19    40    1
34    20    21    ar
35    20    41    1
36    21    42    1
37    22    27    1
38    22    23    2
39    23    24    1
40    24    25    am
41    24    43    1
42    25    26    2
43    25    27    am
44    27    28    1
45    28    29    2
46    28    44    1
47    29    45    1
48    30    31    ar
49    30    46    1
50    31    47    1
51    32    33    1
52    32    48    1
53    32    49    1
54    33    34    1
55    33    50    1
56    33    51    1
57    34    52    1
58    34    53    1
@<TRIPOS>SUBSTRUCTURE
1   ZINC000036382821 1     RESIDUE    1   A     ZIN   1
