@<TRIPOS>MOLECULE
ZINC000068247723
57    60    1     0     0
SMALL
USER_CHARGES
@<TRIPOS>ATOM
1      C1     -1.4395    0.9454    0.0819 C.3      1 ZINC000068247723   -0.0700
2      C2     -0.5302   -0.2556    0.0400 C.2      1 ZINC000068247723    0.0400
3      N3     -0.1386   -0.8990   -1.0225 N.2      1 ZINC000068247723   -0.3500
4      O4      0.5899   -1.8244   -0.7510 O.3      1 ZINC000068247723    0.1100
5      C5      0.7880   -1.9247    0.5779 C.2      1 ZINC000068247723    0.0200
6      C6      1.6143   -2.9262    1.2792 C.ar     1 ZINC000068247723   -0.0500
7      C7      1.7437   -2.8762    2.6699 C.ar     1 ZINC000068247723   -0.0900
8      C8      2.5144   -3.8113    3.3228 C.ar     1 ZINC000068247723   -0.1200
9      C9      3.1667   -4.8084    2.5970 C.ar     1 ZINC000068247723    0.0100
10     C10     3.9965   -5.8150    3.3016 C.ar     1 ZINC000068247723   -0.0900
11     C11     4.1219   -5.7708    4.6893 C.ar     1 ZINC000068247723   -0.1000
12     C12     4.8952   -6.7105    5.3398 C.ar     1 ZINC000068247723   -0.1200
13     C13     5.5453   -7.6951    4.6175 C.ar     1 ZINC000068247723    0.0000
14     C14     6.3879   -8.7188    5.3338 C.3      1 ZINC000068247723   -0.1600
15     C15     5.5334   -9.9044    5.7016 C.2      1 ZINC000068247723    0.5000
16     O16     4.3498   -9.9169    5.4092 O.co2    1 ZINC000068247723   -0.6900
17     O17     6.0256  -10.8510    6.2916 O.co2    1 ZINC000068247723   -0.7000
18     C18     5.4245   -7.7439    3.2403 C.ar     1 ZINC000068247723   -0.1200
19     C19     4.6497   -6.8126    2.5795 C.ar     1 ZINC000068247723   -0.1000
20     C20     3.0384   -4.8594    1.2087 C.ar     1 ZINC000068247723   -0.1200
21     C21     2.2636   -3.9290    0.5538 C.ar     1 ZINC000068247723   -0.0800
22     C22     0.0700   -0.9013    1.1469 C.2      1 ZINC000068247723    0.0400
23     N23    -0.0476   -0.5772    2.5076 N.am     1 ZINC000068247723   -0.6200
24     C24     0.0700    0.7044    2.9077 C.2      1 ZINC000068247723    0.6500
25     O25     0.3012    1.5763    2.0934 O.2      1 ZINC000068247723   -0.5500
26     O26    -0.0688    1.0187    4.2098 O.3      1 ZINC000068247723   -0.3600
27     C27     0.0705    2.4188    4.5684 C.3      1 ZINC000068247723    0.1500
28     H28    -0.2525    3.0415    3.7341 H        1 ZINC000068247723    0.1000
29     C29     1.5356    2.7192    4.8915 C.3      1 ZINC000068247723   -0.1700
30     C30    -0.7812    2.7153    5.7758 C.ar     1 ZINC000068247723   -0.0900
31     C31    -0.8530    1.8029    6.8118 C.ar     1 ZINC000068247723   -0.0900
32     C32    -1.6343    2.0749    7.9193 C.ar     1 ZINC000068247723   -0.1200
33     C33    -2.3433    3.2594    7.9910 C.ar     1 ZINC000068247723   -0.1100
34     C34    -2.2707    4.1721    6.9554 C.ar     1 ZINC000068247723   -0.1200
35     C35    -1.4861    3.9021    5.8498 C.ar     1 ZINC000068247723   -0.1100
36     H36    -0.8411    1.8557    0.0451 H        1 ZINC000068247723    0.0900
37     H37    -2.1150    0.9198   -0.7732 H        1 ZINC000068247723    0.0700
38     H38    -2.0203    0.9294    1.0042 H        1 ZINC000068247723    0.0700
39     H39     1.2395   -2.1041    3.2320 H        1 ZINC000068247723    0.1200
40     H40     2.6146   -3.7730    4.3975 H        1 ZINC000068247723    0.1300
41     H41     3.6151   -5.0023    5.2542 H        1 ZINC000068247723    0.1200
42     H42     4.9934   -6.6771    6.4148 H        1 ZINC000068247723    0.1200
43     H43     7.1982   -9.0435    4.6811 H        1 ZINC000068247723    0.0700
44     H44     6.8052   -8.2770    6.2387 H        1 ZINC000068247723    0.0700
45     H45     5.9346   -8.5146    2.6816 H        1 ZINC000068247723    0.1200
46     H46     4.5558   -6.8519    1.5043 H        1 ZINC000068247723    0.1200
47     H47     3.5438   -5.6317    0.6480 H        1 ZINC000068247723    0.1400
48     H48     2.1645   -3.9687   -0.5209 H        1 ZINC000068247723    0.1300
49     H49    -0.2135   -1.2757    3.1600 H        1 ZINC000068247723    0.4200
50     H50     1.8586    2.0965    5.7258 H        1 ZINC000068247723    0.0700
51     H51     2.1516    2.5047    4.0182 H        1 ZINC000068247723    0.0700
52     H52     1.6402    3.7702    5.1607 H        1 ZINC000068247723    0.0800
53     H53    -0.2991    0.8775    6.7558 H        1 ZINC000068247723    0.1300
54     H54    -1.6910    1.3618    8.7284 H        1 ZINC000068247723    0.1300
55     H55    -2.9542    3.4715    8.8560 H        1 ZINC000068247723    0.1200
56     H56    -2.8249    5.0974    7.0113 H        1 ZINC000068247723    0.1300
57     H57    -1.4294    4.6152    5.0407 H        1 ZINC000068247723    0.1200
@<TRIPOS>BOND
1     1     2     1
2     1     36    1
3     1     37    1
4     1     38    1
5     2     22    1
6     2     3     2
7     3     4     1
8     4     5     1
9     5     6     1
10    5     22    2
11    6     21    ar
12    6     7     ar
13    7     8     ar
14    7     39    1
15    8     9     ar
16    8     40    1
17    9     10    1
18    9     20    ar
19    10    19    ar
20    10    11    ar
21    11    12    ar
22    11    41    1
23    12    13    ar
24    12    42    1
25    13    14    1
26    13    18    ar
27    14    15    1
28    14    43    1
29    14    44    1
30    15    16    ar
31    15    17    ar
32    18    19    ar
33    18    45    1
34    19    46    1
35    20    21    ar
36    20    47    1
37    21    48    1
38    22    23    1
39    23    24    am
40    23    49    1
41    24    25    2
42    24    26    1
43    26    27    1
44    27    28    1
45    27    29    1
46    27    30    1
47    29    50    1
48    29    51    1
49    29    52    1
50    30    35    ar
51    30    31    ar
52    31    32    ar
53    31    53    1
54    32    33    ar
55    32    54    1
56    33    34    ar
57    33    55    1
58    34    35    ar
59    34    56    1
60    35    57    1
@<TRIPOS>SUBSTRUCTURE
1   ZINC000068247723 1     RESIDUE    1   A     ZIN   1
