@<TRIPOS>MOLECULE
ZINC000001483569
  19   19    0    0    0
SMALL
USER_CHARGES
NO_NAME
@<TRIPOS>ATOM
    1 N1       -0.0166     1.3706     0.0096 N.pl3  1 <0>      -0.8100
    2 C2        0.0021    -0.0041     0.0020 C.cat  1 <0>       0.7100
    3 N3       -1.0744    -0.7205     0.0029 N.pl3  1 <0>      -0.6700
    4 H4       -1.9775    -0.3666     0.0086 H      1 <0>       0.4500
    5 C5       -0.7300    -2.1490    -0.0064 C.3    1 <0>       0.0800
    6 C6        0.8116    -2.1611    -0.0133 C.3    1 <0>       0.0800
    7 N7        1.1609    -0.7307    -0.0129 N.pl3  1 <0>      -0.5400
    8 C8        2.5183    -0.1796    -0.0183 C.3    1 <0>       0.0400
    9 C9        2.9773     0.0112    -1.4409 C.2    1 <0>       0.4800
   10 O10       2.2391    -0.2855    -2.3647 O.co2  1 <0>      -0.6800
   11 O11       4.0870     0.4624    -1.6681 O.co2  1 <0>      -0.6700
   12 H12       0.8168     1.8670     0.0043 H      1 <0>       0.4400
   13 H13      -0.8631     1.8441     0.0162 H      1 <0>       0.4300
   14 H14      -1.1119    -2.6400     0.8887 H      1 <0>       0.1100
   15 H15      -1.1199    -2.6303    -0.9033 H      1 <0>       0.1100
   16 H16       1.1964    -2.6548     0.8791 H      1 <0>       0.1100
   17 H17       1.1883    -2.6451    -0.9144 H      1 <0>       0.1200
   18 H18       2.5224     0.7810     0.4968 H      1 <0>       0.0900
   19 H19       3.1920    -0.8683     0.4916 H      1 <0>       0.1100
@<TRIPOS>BOND
   1    1    2 ar
   2    1   12 1
   3    1   13 1
   4    2    7 ar
   5    2    3 ar
   6    3    4 1
   7    3    5 1
   8    5    6 1
   9    5   14 1
  10    5   15 1
  11    6    7 1
  12    6   16 1
  13    6   17 1
  14    7    8 1
  15    8    9 1
  16    8   18 1
  17    8   19 1
  18    9   10 ar
  19    9   11 ar
