@<TRIPOS>MOLECULE
ZINC000038576002
51    54    1     0     0
SMALL
USER_CHARGES
@<TRIPOS>ATOM
1      C1      3.7915   -6.6596   -2.0236 C.3      1 ZINC000038576002    0.0900
2      N2      2.7867   -6.0267   -1.1657 N.am     1 ZINC000038576002   -0.7300
3      C3      1.5075   -6.4496   -1.2014 C.2      1 ZINC000038576002    0.5100
4      O4      1.1882   -7.3541   -1.9436 O.2      1 ZINC000038576002   -0.5100
5      C5      0.4738   -5.7986   -0.3189 C.3      1 ZINC000038576002    0.0400
6      O6     -0.7959   -6.4169   -0.5366 O.3      1 ZINC000038576002   -0.2900
7      C7     -1.8447   -5.9438    0.1867 C.ar     1 ZINC000038576002    0.1500
8      C8     -1.6558   -4.9017    1.0834 C.ar     1 ZINC000038576002   -0.2300
9      C9     -2.7213   -4.4194    1.8198 C.ar     1 ZINC000038576002   -0.0600
10     C10    -3.9773   -4.9731    1.6663 C.ar     1 ZINC000038576002   -0.1800
11     C11    -4.1725   -6.0169    0.7699 C.ar     1 ZINC000038576002    0.2000
12     N12    -5.4436   -6.5774    0.6143 N.pl3    1 ZINC000038576002   -0.6300
13     C13    -5.5762   -7.9309    0.3447 C.ar     1 ZINC000038576002    0.5900
14     N14    -4.4958   -8.6964    0.3397 N.ar     1 ZINC000038576002   -0.5500
15     C15    -4.5814   -9.9950    0.0868 C.ar     1 ZINC000038576002    0.2000
16     C16    -5.8190  -10.5523   -0.1748 C.ar     1 ZINC000038576002   -0.1000
17     F17    -5.9416  -11.8721   -0.4360 F        1 ZINC000038576002   -0.1300
18     C18    -6.9413   -9.7181   -0.1624 C.ar     1 ZINC000038576002    0.4500
19     N19    -8.2038  -10.2325   -0.4192 N.pl3    1 ZINC000038576002   -0.6400
20     C20    -9.3035   -9.3719   -0.5186 C.ar     1 ZINC000038576002    0.1800
21     C21    -9.1382   -8.0911   -1.0285 C.ar     1 ZINC000038576002   -0.1000
22     C22   -10.2219   -7.2377   -1.1293 C.ar     1 ZINC000038576002   -0.0600
23     C23   -11.4746   -7.6602   -0.7215 C.ar     1 ZINC000038576002    0.0600
24     O24   -12.5502   -6.8317   -0.8173 O.3      1 ZINC000038576002   -0.3100
25     C25   -13.8127   -7.4461   -1.0881 C.3      1 ZINC000038576002    0.4500
26     F26   -14.8389   -6.5251   -0.8522 F        1 ZINC000038576002   -0.1300
27     F27   -13.8536   -7.8568   -2.4248 F        1 ZINC000038576002   -0.1700
28     C28   -13.9964   -8.6431   -0.1902 C.2      1 ZINC000038576002    0.4800
29     O29   -15.1069   -8.9634    0.1778 O.2      1 ZINC000038576002   -0.4600
30     N30   -12.9195   -9.3576    0.2025 N.am     1 ZINC000038576002   -0.6400
31     C31   -11.6437   -8.9457   -0.2082 C.ar     1 ZINC000038576002    0.1200
32     C32   -10.5604   -9.8019   -0.1122 C.ar     1 ZINC000038576002   -0.1500
33     N33    -6.7810   -8.4260    0.1040 N.ar     1 ZINC000038576002   -0.5800
34     C34    -3.1048   -6.4982    0.0252 C.ar     1 ZINC000038576002   -0.1400
35     H35     4.7601   -6.1879   -1.8576 H        1 ZINC000038576002    0.0800
36     H36     3.8582   -7.7207   -1.7833 H        1 ZINC000038576002    0.0600
37     H37     3.5040   -6.5411   -3.0683 H        1 ZINC000038576002    0.0600
38     H38     3.0420   -5.3033   -0.5721 H        1 ZINC000038576002    0.4000
39     H39     0.7613   -5.9171    0.7258 H        1 ZINC000038576002    0.1000
40     H40     0.4072   -4.7375   -0.5593 H        1 ZINC000038576002    0.0900
41     H41    -0.6747   -4.4671    1.2062 H        1 ZINC000038576002    0.1300
42     H42    -2.5715   -3.6082    2.5169 H        1 ZINC000038576002    0.1300
43     H43    -4.8081   -4.5948    2.2435 H        1 ZINC000038576002    0.1300
44     H44    -6.2330   -6.0194    0.6950 H        1 ZINC000038576002    0.4300
45     H45    -3.6940  -10.6106    0.0847 H        1 ZINC000038576002    0.1900
46     H46    -8.3246  -11.1886   -0.5299 H        1 ZINC000038576002    0.4300
47     H47    -8.1607   -7.7602   -1.3470 H        1 ZINC000038576002    0.1500
48     H48   -10.0902   -6.2418   -1.5258 H        1 ZINC000038576002    0.1500
49     H49   -13.0272  -10.1441    0.7600 H        1 ZINC000038576002    0.4300
50     H50   -10.6912  -10.7995    0.2803 H        1 ZINC000038576002    0.1500
51     H51    -3.2538   -7.3091   -0.6725 H        1 ZINC000038576002    0.1500
@<TRIPOS>BOND
1     1     2     1
2     1     35    1
3     1     36    1
4     1     37    1
5     2     3     am
6     2     38    1
7     3     4     2
8     3     5     1
9     5     6     1
10    5     39    1
11    5     40    1
12    6     7     1
13    7     34    ar
14    7     8     ar
15    8     9     ar
16    8     41    1
17    9     10    ar
18    9     42    1
19    10    11    ar
20    10    43    1
21    11    12    1
22    11    34    ar
23    12    13    1
24    12    44    1
25    13    33    ar
26    13    14    ar
27    14    15    ar
28    15    16    ar
29    15    45    1
30    16    17    1
31    16    18    ar
32    18    19    1
33    18    33    ar
34    19    20    1
35    19    46    1
36    20    32    ar
37    20    21    ar
38    21    22    ar
39    21    47    1
40    22    23    ar
41    22    48    1
42    23    31    ar
43    23    24    1
44    24    25    1
45    25    26    1
46    25    27    1
47    25    28    1
48    28    29    2
49    28    30    am
50    30    31    1
51    30    49    1
52    31    32    ar
53    32    50    1
54    34    51    1
@<TRIPOS>SUBSTRUCTURE
1   ZINC000038576002 1     RESIDUE    1   A     ZIN   1
