@<TRIPOS>MOLECULE
ZINC000017311164
29    30    1     0     0
SMALL
USER_CHARGES
@<TRIPOS>ATOM
1      N1     -0.0166    1.3721    0.0096 N.pl3    1 ZINC000017311164   -0.8000
2      C2      0.0021   -0.0041    0.0020 C.2      1 ZINC000017311164    0.5000
3      N3     -1.1353   -0.6865    0.0037 N.2      1 ZINC000017311164   -0.5900
4      C4     -1.1301   -2.0182   -0.0035 C.2      1 ZINC000017311164    0.6600
5      O5     -2.1902   -2.6221   -0.0021 O.2      1 ZINC000017311164   -0.5100
6      N6      0.0246   -2.7090   -0.0127 N.am     1 ZINC000017311164   -0.5200
7      C7     -0.0024   -4.1737   -0.0210 C.3      1 ZINC000017311164    0.2900
8      H8      1.0070   -4.5705   -0.1294 H        1 ZINC000017311164    0.1100
9      C9     -0.6536   -4.7069    1.2744 C.3      1 ZINC000017311164   -0.1900
10     C10    -1.4606   -5.9396    0.8091 C.3      1 ZINC000017311164    0.0900
11     H11    -2.5227   -5.7988    1.0099 H        1 ZINC000017311164    0.0800
12     O12    -0.9831   -7.1227    1.4527 O.3      1 ZINC000017311164   -0.5600
13     C13    -1.2015   -6.0054   -0.7124 C.3      1 ZINC000017311164    0.0900
14     H14    -0.3767   -6.6846   -0.9278 H        1 ZINC000017311164    0.0900
15     C15    -2.4654   -6.4534   -1.4491 C.3      1 ZINC000017311164    0.0800
16     O16    -2.1735   -6.6199   -2.8380 O.3      1 ZINC000017311164   -0.5700
17     O17    -0.8490   -4.6549   -1.0875 O.3      1 ZINC000017311164   -0.3400
18     C18     1.2207   -2.0521   -0.0148 C.2      1 ZINC000017311164    0.1700
19     C19     1.2316   -0.6971   -0.0134 C.2      1 ZINC000017311164   -0.0800
20     F20     2.4009   -0.0203   -0.0155 F        1 ZINC000017311164   -0.1200
21     H21     0.8168    1.8684    0.0043 H        1 ZINC000017311164    0.4200
22     H22    -0.8631    1.8456    0.0162 H        1 ZINC000017311164    0.4200
23     H23     0.1111   -5.0003    1.9936 H        1 ZINC000017311164    0.1000
24     H24    -1.3167   -3.9567    1.7053 H        1 ZINC000017311164    0.1000
25     H25    -1.0678   -7.1080    2.4159 H        1 ZINC000017311164    0.3900
26     H26    -2.8113   -7.4002   -1.0344 H        1 ZINC000017311164    0.0700
27     H27    -3.2427   -5.6986   -1.3291 H        1 ZINC000017311164    0.0600
28     H28    -2.9310   -6.9037   -3.3678 H        1 ZINC000017311164    0.3800
29     H29     2.1479   -2.6058   -0.0218 H        1 ZINC000017311164    0.1900
@<TRIPOS>BOND
1     1     2     1
2     1     21    1
3     1     22    1
4     2     19    1
5     2     3     2
6     3     4     1
7     4     5     2
8     4     6     am
9     6     7     1
10    6     18    1
11    7     8     1
12    7     17    1
13    7     9     1
14    9     10    1
15    9     23    1
16    9     24    1
17    10    11    1
18    10    12    1
19    10    13    1
20    12    25    1
21    13    14    1
22    13    15    1
23    13    17    1
24    15    16    1
25    15    26    1
26    15    27    1
27    16    28    1
28    18    19    2
29    18    29    1
30    19    20    1
@<TRIPOS>SUBSTRUCTURE
1   ZINC000017311164 1     RESIDUE    1   A     ZIN   1
