@<TRIPOS>MOLECULE
ZINC000003832373
57    59    1     0     0
SMALL
USER_CHARGES
@<TRIPOS>ATOM
1      C1      0.0180   -1.1779   -0.0044 C.1      1 ZINC000003832373   -0.1900
2      C2      0.0021   -0.0041    0.0020 C.1      1 ZINC000003832373   -0.2100
3      C3     -0.0179    1.4678    0.0101 C.3      1 ZINC000003832373    0.2300
4      N4      1.3565    1.9749   -0.0003 N.pl3    1 ZINC000003832373   -0.6200
5      C5      2.0316    2.2352   -1.2741 C.3      1 ZINC000003832373    0.1700
6      C6      1.7714    3.6575   -1.6991 C.ar     1 ZINC000003832373   -0.1300
7      C7      0.6639    3.9496   -2.4838 C.ar     1 ZINC000003832373   -0.0600
8      C8      0.4041    5.2411   -2.8847 C.ar     1 ZINC000003832373   -0.1100
9      C9      1.2637    6.2710   -2.4983 C.ar     1 ZINC000003832373    0.1500
10     N10     1.0462    7.5572   -2.8708 N.2      1 ZINC000003832373   -0.5200
11     C11     1.8463    8.5145   -2.5115 C.2      1 ZINC000003832373    0.3900
12     C12     1.5336    9.9164   -2.9675 C.3      1 ZINC000003832373   -0.1100
13     N13     2.9506    8.3174   -1.7451 N.am     1 ZINC000003832373   -0.6500
14     C14     3.2752    7.0775   -1.3100 C.2      1 ZINC000003832373    0.5500
15     O15     4.2616    6.8866   -0.6229 O.2      1 ZINC000003832373   -0.5000
16     C16     2.3896    5.9701   -1.6998 C.ar     1 ZINC000003832373   -0.2000
17     C17     2.6315    4.6577   -1.3007 C.ar     1 ZINC000003832373   -0.0200
18     C18     2.0202    2.2090    1.1988 C.ar     1 ZINC000003832373    0.2200
19     C19     3.3243    2.6963    1.1873 C.ar     1 ZINC000003832373   -0.2000
20     C20     3.9839    2.9291    2.3724 C.ar     1 ZINC000003832373   -0.0200
21     C21     3.3430    2.6757    3.5887 C.ar     1 ZINC000003832373   -0.1600
22     C22     4.0471    2.9246    4.8610 C.2      1 ZINC000003832373    0.5500
23     O23     5.1859    3.3506    4.8524 O.2      1 ZINC000003832373   -0.5600
24     N24     3.4279    2.6799    6.0328 N.am     1 ZINC000003832373   -0.6800
25     C25     4.1271    2.9271    7.2963 C.3      1 ZINC000003832373    0.0700
26     H26     4.7725    3.7990    7.1899 H        1 ZINC000003832373    0.0800
27     C27     3.1033    3.1827    8.4042 C.3      1 ZINC000003832373   -0.0800
28     C28     2.3395    4.4742    8.1048 C.3      1 ZINC000003832373   -0.1800
29     C29     1.3311    4.7259    9.1961 C.2      1 ZINC000003832373    0.4900
30     O30     1.2325    3.9447   10.1269 O.co2    1 ZINC000003832373   -0.7000
31     O31     0.6140    5.7107    9.1480 O.co2    1 ZINC000003832373   -0.7200
32     C32     4.9623    1.7242    7.6519 C.2      1 ZINC000003832373    0.5000
33     O33     5.9917    1.8639    8.2902 O.co2    1 ZINC000003832373   -0.7000
34     O34     4.6088    0.6113    7.3013 O.co2    1 ZINC000003832373   -0.7000
35     C35     2.0335    2.1865    3.5969 C.ar     1 ZINC000003832373   -0.0400
36     C36     1.3773    1.9611    2.4086 C.ar     1 ZINC000003832373   -0.2000
37     H37     0.0322   -2.2278   -0.0102 H        1 ZINC000003832373    0.2200
38     H38    -0.5451    1.8289   -0.8729 H        1 ZINC000003832373    0.0900
39     H39    -0.5281    1.8193    0.9069 H        1 ZINC000003832373    0.1000
40     H40     3.1042    2.0821   -1.1549 H        1 ZINC000003832373    0.0900
41     H41     1.6495    1.5533   -2.0338 H        1 ZINC000003832373    0.0900
42     H42    -0.0019    3.1539   -2.7839 H        1 ZINC000003832373    0.1300
43     H43    -0.4603    5.4562   -3.4954 H        1 ZINC000003832373    0.1400
44     H44     0.6240    9.9088   -3.5680 H        1 ZINC000003832373    0.1000
45     H45     1.3896   10.5577   -2.0979 H        1 ZINC000003832373    0.0900
46     H46     2.3612   10.2968   -3.5663 H        1 ZINC000003832373    0.0900
47     H47     3.5119    9.0721   -1.5079 H        1 ZINC000003832373    0.4200
48     H48     3.4889    4.4251   -0.6865 H        1 ZINC000003832373    0.1400
49     H49     3.8190    2.8915    0.2473 H        1 ZINC000003832373    0.1200
50     H50     4.9956    3.3067    2.3628 H        1 ZINC000003832373    0.1300
51     H51     2.5194    2.3401    6.0397 H        1 ZINC000003832373    0.3900
52     H52     2.4028    2.3488    8.4510 H        1 ZINC000003832373    0.0600
53     H53     3.6185    3.2784    9.3600 H        1 ZINC000003832373    0.0700
54     H54     3.0400    5.3080    8.0580 H        1 ZINC000003832373    0.0500
55     H55     1.8243    4.3784    7.1491 H        1 ZINC000003832373    0.0500
56     H56     1.5359    1.9894    4.5350 H        1 ZINC000003832373    0.1300
57     H57     0.3655    1.5835    2.4142 H        1 ZINC000003832373    0.1200
@<TRIPOS>BOND
1     1     2     3
2     1     37    1
3     2     3     1
4     3     4     1
5     3     38    1
6     3     39    1
7     4     5     1
8     4     18    1
9     5     6     1
10    5     40    1
11    5     41    1
12    6     17    ar
13    6     7     ar
14    7     8     ar
15    7     42    1
16    8     9     ar
17    8     43    1
18    9     16    ar
19    9     10    1
20    10    11    2
21    11    12    1
22    11    13    1
23    12    44    1
24    12    45    1
25    12    46    1
26    13    14    am
27    13    47    1
28    14    15    2
29    14    16    1
30    16    17    ar
31    17    48    1
32    18    36    ar
33    18    19    ar
34    19    20    ar
35    19    49    1
36    20    21    ar
37    20    50    1
38    21    22    1
39    21    35    ar
40    22    23    2
41    22    24    am
42    24    25    1
43    24    51    1
44    25    26    1
45    25    27    1
46    25    32    1
47    27    28    1
48    27    52    1
49    27    53    1
50    28    29    1
51    28    54    1
52    28    55    1
53    29    30    ar
54    29    31    ar
55    32    33    ar
56    32    34    ar
57    35    36    ar
58    35    56    1
59    36    57    1
@<TRIPOS>SUBSTRUCTURE
1   ZINC000003832373 1     RESIDUE    1   A     ZIN   1
