@<TRIPOS>MOLECULE
ZINC000005423063
40    41    1     0     0
SMALL
USER_CHARGES
@<TRIPOS>ATOM
1      C1     -0.0318    2.8009    3.7076 C.3      1 ZINC000005423063   -0.1500
2      S2     -0.0381    1.2145    4.5872 S.3      1 ZINC000005423063   -0.1200
3      C3      0.8755    0.1606    3.5105 C.ar     1 ZINC000005423063   -0.0800
4      C4      1.3896    0.6597    2.3193 C.ar     1 ZINC000005423063   -0.1400
5      C5      2.1063   -0.1661    1.4750 C.ar     1 ZINC000005423063   -0.0900
6      C6      2.3142   -1.4900    1.8109 C.ar     1 ZINC000005423063   -0.1300
7      C7      1.8031   -1.9956    3.0003 C.ar     1 ZINC000005423063    0.1900
8      N8      2.0142   -3.3360    3.3392 N.pl3    1 ZINC000005423063   -0.5700
9      C9      1.4020   -4.3992    2.5385 C.3      1 ZINC000005423063    0.0900
10     C10     2.7974   -3.6564    4.4252 C.2      1 ZINC000005423063    0.6400
11     N11     3.2496   -2.7136    5.2033 N.2      1 ZINC000005423063   -0.7900
12     N12     3.1030   -4.9724    4.6893 N.pl3    1 ZINC000005423063   -0.7200
13     C13     3.9676   -5.2923    5.7419 C.ar     1 ZINC000005423063    0.1700
14     C14     5.2676   -5.6947    5.4746 C.ar     1 ZINC000005423063   -0.0900
15     C15     6.1228   -6.0109    6.5221 C.ar     1 ZINC000005423063   -0.0700
16     S16     7.7755   -6.5221    6.1877 S.3      1 ZINC000005423063   -0.1000
17     C17     8.4570   -6.8089    7.8441 C.3      1 ZINC000005423063   -0.1500
18     C18     5.6739   -5.9232    7.8344 C.ar     1 ZINC000005423063   -0.1200
19     C19     4.3781   -5.5220    8.0976 C.ar     1 ZINC000005423063   -0.0800
20     C20     3.5260   -5.2015    7.0574 C.ar     1 ZINC000005423063   -0.0500
21     Cl21    1.8991   -4.6973    7.3931 Cl       1 ZINC000005423063   -0.0500
22     C22     1.0878   -1.1682    3.8534 C.ar     1 ZINC000005423063   -0.0700
23     H23    -0.5097    2.6793    2.7356 H        1 ZINC000005423063    0.0800
24     H24    -0.5782    3.5420    4.2910 H        1 ZINC000005423063    0.1100
25     H25     0.9964    3.1347    3.5677 H        1 ZINC000005423063    0.0800
26     H26     1.2282    1.6940    2.0534 H        1 ZINC000005423063    0.1200
27     H27     2.5048    0.2240    0.5501 H        1 ZINC000005423063    0.1300
28     H28     2.8744   -2.1330    1.1482 H        1 ZINC000005423063    0.1200
29     H29     2.0804   -4.6852    1.7347 H        1 ZINC000005423063    0.0600
30     H30     1.2049   -5.2638    3.1724 H        1 ZINC000005423063    0.0700
31     H31     0.4652   -4.0398    2.1128 H        1 ZINC000005423063    0.0800
32     H32     3.8633   -2.9309    5.9224 H        1 ZINC000005423063    0.3400
33     H33     2.7189   -5.6780    4.1456 H        1 ZINC000005423063    0.4000
34     H34     5.6141   -5.7624    4.4539 H        1 ZINC000005423063    0.1400
35     H35     8.4129   -5.8846    8.4202 H        1 ZINC000005423063    0.0900
36     H36     7.8741   -7.5795    8.3485 H        1 ZINC000005423063    0.0900
37     H37     9.4937   -7.1348    7.7591 H        1 ZINC000005423063    0.1100
38     H38     6.3384   -6.1693    8.6495 H        1 ZINC000005423063    0.1400
39     H39     4.0316   -5.4546    9.1183 H        1 ZINC000005423063    0.1400
40     H40     0.6898   -1.5586    4.7784 H        1 ZINC000005423063    0.1300
@<TRIPOS>BOND
1     1     2     1
2     1     23    1
3     1     24    1
4     1     25    1
5     2     3     1
6     3     22    ar
7     3     4     ar
8     4     5     ar
9     4     26    1
10    5     6     ar
11    5     27    1
12    6     7     ar
13    6     28    1
14    7     8     1
15    7     22    ar
16    8     9     1
17    8     10    1
18    9     29    1
19    9     30    1
20    9     31    1
21    10    11    2
22    10    12    1
23    11    32    1
24    12    13    1
25    12    33    1
26    13    20    ar
27    13    14    ar
28    14    15    ar
29    14    34    1
30    15    16    1
31    15    18    ar
32    16    17    1
33    17    35    1
34    17    36    1
35    17    37    1
36    18    19    ar
37    18    38    1
38    19    20    ar
39    19    39    1
40    20    21    1
41    22    40    1
@<TRIPOS>SUBSTRUCTURE
1   ZINC000005423063 1     RESIDUE    1   A     ZIN   1
