@<TRIPOS>MOLECULE
ZINC000004019704
60    63    1     0     0
SMALL
USER_CHARGES
@<TRIPOS>ATOM
1      C1      0.8278    2.4668   -0.7781 C.3      1 ZINC000004019704    0.0200
2      N2      1.0245    1.0214   -0.6044 N.3      1 ZINC000004019704   -0.5100
3      C3      1.9988    0.7469    0.4603 C.3      1 ZINC000004019704    0.0300
4      C4     -0.1913    0.3767   -0.3500 C.ar     1 ZINC000004019704    0.0700
5      C5     -0.9466    0.7313    0.7640 C.ar     1 ZINC000004019704   -0.1000
6      C6     -2.1459    0.0983    1.0253 C.ar     1 ZINC000004019704   -0.1500
7      C7     -2.6105   -0.8938    0.1753 C.ar     1 ZINC000004019704    0.1500
8      O8     -3.7861   -1.5203    0.4375 O.3      1 ZINC000004019704   -0.4800
9      C9     -1.8627   -1.2466   -0.9550 C.ar     1 ZINC000004019704   -0.1400
10     C10    -0.6442   -0.6080   -1.2087 C.ar     1 ZINC000004019704    0.0000
11     C11     0.1779   -1.0186   -2.4029 C.3      1 ZINC000004019704   -0.0700
12     C12    -0.7468   -1.3903   -3.5590 C.3      1 ZINC000004019704   -0.0300
13     H13    -1.2856   -0.4993   -3.8813 H        1 ZINC000004019704    0.0900
14     C14     0.0741   -1.9263   -4.7346 C.3      1 ZINC000004019704   -0.1100
15     C15    -0.8983   -2.4133   -5.8044 C.3      1 ZINC000004019704   -0.0900
16     H16    -1.6607   -1.6459   -5.9382 H        1 ZINC000004019704    0.1000
17     C17    -0.2144   -2.6293   -7.1400 C.3      1 ZINC000004019704    0.0400
18     H18     0.4140   -1.7661   -7.3591 H        1 ZINC000004019704    0.1400
19     N19    -1.2389   -2.7499   -8.1859 N.4      1 ZINC000004019704   -0.3700
20     H20    -1.8292   -3.5440   -7.9884 H        1 ZINC000004019704    0.4300
21     C21    -2.0546   -1.5286   -8.2153 C.3      1 ZINC000004019704   -0.0500
22     C22    -0.5881   -2.9356   -9.4897 C.3      1 ZINC000004019704   -0.0500
23     C23     0.6355   -3.8644   -7.1498 C.2      1 ZINC000004019704    0.3000
24     O24     1.6082   -3.9743   -8.0667 O.3      1 ZINC000004019704   -0.5700
25     C25     0.4520   -4.8862   -6.2519 C.2      1 ZINC000004019704   -0.4800
26     C26     1.2967   -6.0888   -6.3288 C.2      1 ZINC000004019704    0.5900
27     N27     1.0480   -7.1397   -5.5224 N.am     1 ZINC000004019704   -0.8700
28     O28     2.2194   -6.1344   -7.1201 O.2      1 ZINC000004019704   -0.5500
29     C29    -0.5779   -4.7858   -5.2194 C.2      1 ZINC000004019704    0.3900
30     O30    -0.6083   -5.5758   -4.2984 O.2      1 ZINC000004019704   -0.4800
31     C31    -1.5937   -3.6873   -5.3277 C.3      1 ZINC000004019704    0.0600
32     O32    -2.6285   -4.0573   -6.2411 O.3      1 ZINC000004019704   -0.5500
33     C33    -2.1481   -3.4465   -3.9487 C.2      1 ZINC000004019704    0.3800
34     O34    -2.9829   -4.2196   -3.5198 O.2      1 ZINC000004019704   -0.4300
35     C35    -1.7423   -2.4325   -3.1252 C.2      1 ZINC000004019704   -0.2600
36     C36    -2.3317   -2.2971   -1.8712 C.2      1 ZINC000004019704    0.2600
37     O37    -3.3504   -3.1059   -1.5069 O.3      1 ZINC000004019704   -0.4600
38     H38     1.7765    2.9332   -1.0437 H        1 ZINC000004019704    0.0800
39     H39     0.1019    2.6418   -1.5721 H        1 ZINC000004019704    0.0700
40     H40     0.4591    2.8977    0.1527 H        1 ZINC000004019704    0.0300
41     H41     1.6066    1.1038    1.4126 H        1 ZINC000004019704    0.0300
42     H42     2.1783   -0.3265    0.5206 H        1 ZINC000004019704    0.0700
43     H43     2.9345    1.2597    0.2376 H        1 ZINC000004019704    0.0800
44     H44    -0.5926    1.5058    1.4282 H        1 ZINC000004019704    0.1300
45     H45    -2.7233    0.3765    1.8945 H        1 ZINC000004019704    0.1400
46     H46    -4.5567   -1.0936    0.0386 H        1 ZINC000004019704    0.4000
47     H47     0.8198   -0.1905   -2.7035 H        1 ZINC000004019704    0.1100
48     H48     0.7945   -1.8783   -2.1406 H        1 ZINC000004019704    0.0900
49     H49     0.7001   -1.1313   -5.1399 H        1 ZINC000004019704    0.1000
50     H50     0.6993   -2.7543   -4.4004 H        1 ZINC000004019704    0.0900
51     H51    -1.4036   -0.6589   -8.3046 H        1 ZINC000004019704    0.1200
52     H52    -2.7320   -1.5645   -9.0685 H        1 ZINC000004019704    0.1200
53     H53    -2.6336   -1.4560   -7.2946 H        1 ZINC000004019704    0.1200
54     H54     0.0172   -3.8419   -9.4679 H        1 ZINC000004019704    0.1400
55     H55    -1.3483   -3.0251  -10.2657 H        1 ZINC000004019704    0.1100
56     H56     0.0496   -2.0778   -9.7030 H        1 ZINC000004019704    0.1200
57     H57     0.3670   -7.0730   -4.8349 H        1 ZINC000004019704    0.4000
58     H58     1.5500   -7.9627   -5.6295 H        1 ZINC000004019704    0.3900
59     H59    -3.1098   -4.8567   -5.9875 H        1 ZINC000004019704    0.4100
60     H60    -3.0746   -3.8822   -1.0006 H        1 ZINC000004019704    0.4100
@<TRIPOS>BOND
1     1     2     1
2     1     38    1
3     1     39    1
4     1     40    1
5     2     3     1
6     2     4     1
7     3     41    1
8     3     42    1
9     3     43    1
10    4     10    ar
11    4     5     ar
12    5     6     ar
13    5     44    1
14    6     7     ar
15    6     45    1
16    7     8     1
17    7     9     ar
18    8     46    1
19    9     36    1
20    9     10    ar
21    10    11    1
22    11    12    1
23    11    47    1
24    11    48    1
25    12    13    1
26    12    35    1
27    12    14    1
28    14    15    1
29    14    49    1
30    14    50    1
31    15    16    1
32    15    31    1
33    15    17    1
34    17    18    1
35    17    19    1
36    17    23    1
37    19    20    1
38    19    21    1
39    19    22    1
40    21    51    1
41    21    52    1
42    21    53    1
43    22    54    1
44    22    55    1
45    22    56    1
46    23    24    1
47    23    25    2
48    25    26    1
49    25    29    1
50    26    27    am
51    26    28    2
52    27    57    1
53    27    58    1
54    29    30    2
55    29    31    1
56    31    32    1
57    31    33    1
58    32    59    1
59    33    34    2
60    33    35    1
61    35    36    2
62    36    37    1
63    37    60    1
@<TRIPOS>SUBSTRUCTURE
1   ZINC000004019704 1     RESIDUE    1   A     ZIN   1
