@<TRIPOS>MOLECULE
ZINC000049937658
85    89    1     0     0
SMALL
USER_CHARGES
@<TRIPOS>ATOM
1      C1     -9.8238    5.1058    9.4266 C.3      1 ZINC000049937658   -0.1000
2      C2     -8.8907    5.7621   10.4113 C.ar     1 ZINC000049937658    0.1500
3      C3     -9.1699    7.0533   10.8530 C.ar     1 ZINC000049937658   -0.1700
4      C4     -8.3354    7.6636   11.7459 C.ar     1 ZINC000049937658   -0.0300
5      C5     -8.6161    9.0596   12.2391 C.3      1 ZINC000049937658   -0.1200
6      C6     -7.2063    6.9519   12.1927 C.ar     1 ZINC000049937658   -0.0700
7      C7     -6.3039    7.5140   13.1106 C.ar     1 ZINC000049937658   -0.1400
8      C8     -5.2225    6.7954   13.5207 C.ar     1 ZINC000049937658   -0.0700
9      C9     -4.9959    5.5072   13.0431 C.ar     1 ZINC000049937658   -0.2100
10     C10    -5.8507    4.9275   12.1498 C.ar     1 ZINC000049937658    0.1600
11     O11    -5.6130    3.6701   11.6941 O.3      1 ZINC000049937658   -0.2800
12     C12    -4.4477    3.0093   12.1917 C.3      1 ZINC000049937658    0.0900
13     C13    -4.3493    1.6357   11.5797 C.ar     1 ZINC000049937658   -0.1000
14     C14    -4.9506    0.5565   12.2015 C.ar     1 ZINC000049937658    0.0500
15     Cl15   -5.8196    0.7841   13.6871 Cl       1 ZINC000049937658   -0.0400
16     C16    -4.8599   -0.7046   11.6391 C.ar     1 ZINC000049937658   -0.1300
17     C17    -4.1682   -0.8859   10.4565 C.ar     1 ZINC000049937658    0.0400
18     C18    -3.5665    0.1923    9.8347 C.ar     1 ZINC000049937658   -0.6500
19     S19    -2.6844   -0.0400    8.3272 S.o2     1 ZINC000049937658    2.7100
20     O20    -1.4516    0.6515    8.4731 O.2      1 ZINC000049937658   -0.9300
21     O21    -2.7670   -1.4256    8.0233 O.2      1 ZINC000049937658   -0.9500
22     N22    -3.5261    0.7501    7.1399 N.am     1 ZINC000049937658   -0.9900
23     C23    -3.4240    2.1868    6.8252 C.3      1 ZINC000049937658    0.1100
24     C24    -3.8687    2.3012    5.3457 C.3      1 ZINC000049937658   -0.1300
25     C25    -5.0033    1.2450    5.2790 C.3      1 ZINC000049937658   -0.1200
26     C26    -4.4942    0.1338    6.2210 C.3      1 ZINC000049937658    0.1300
27     H27    -4.0125   -0.6528    5.6401 H        1 ZINC000049937658    0.1100
28     C28    -5.6457   -0.4406    7.0054 C.2      1 ZINC000049937658    0.5000
29     O29    -5.6548   -0.3608    8.2155 O.2      1 ZINC000049937658   -0.5200
30     N30    -6.6653   -1.0431    6.3620 N.am     1 ZINC000049937658   -0.7300
31     C31    -7.7847   -1.6015    7.1245 C.3      1 ZINC000049937658    0.1200
32     C32    -8.7981   -2.2230    6.1614 C.3      1 ZINC000049937658   -0.1400
33     C33    -9.9672   -2.8062    6.9578 C.3      1 ZINC000049937658    0.1200
34     N34   -10.9376   -3.4013    6.0356 N.am     1 ZINC000049937658   -0.7200
35     C35   -12.0565   -3.9793    6.5155 C.2      1 ZINC000049937658    0.5500
36     O36   -12.2605   -4.0068    7.7133 O.2      1 ZINC000049937658   -0.5100
37     C37   -13.0369   -4.5805    5.5838 C.ar     1 ZINC000049937658   -0.0700
38     C38   -12.8000   -4.5541    4.2087 C.ar     1 ZINC000049937658   -0.0900
39     C39   -13.7128   -5.1144    3.3415 C.ar     1 ZINC000049937658   -0.0700
40     C40   -14.8738   -5.7076    3.8380 C.ar     1 ZINC000049937658   -0.1400
41     C41   -15.8550   -6.3094    2.9055 C.cat    1 ZINC000049937658    0.6000
42     N42   -16.5989   -7.3410    3.2970 N.pl3    1 ZINC000049937658   -0.7500
43     N43   -15.9926   -5.8183    1.6764 N.pl3    1 ZINC000049937658   -0.7600
44     H44   -16.6351   -6.2124    1.0658 H        1 ZINC000049937658    0.4300
45     H45   -15.4504   -5.0663    1.3910 H        1 ZINC000049937658    0.4500
46     C46   -15.1107   -5.7346    5.2126 C.ar     1 ZINC000049937658   -0.0600
47     C47   -14.1956   -5.1791    6.0807 C.ar     1 ZINC000049937658   -0.0600
48     C48    -3.6622    1.4546   10.3925 C.ar     1 ZINC000049937658    0.0900
49     Cl49   -2.9071    2.8085    9.6113 Cl       1 ZINC000049937658   -0.0300
50     C50    -6.9823    5.6419   11.7026 C.ar     1 ZINC000049937658    0.1200
51     N51    -7.8405    5.1008   10.8339 N.ar     1 ZINC000049937658   -0.4500
52     H52   -10.6016    4.5664    9.9671 H        1 ZINC000049937658    0.0800
53     H53   -10.2813    5.8680    8.7960 H        1 ZINC000049937658    0.0800
54     H54    -9.2632    4.4080    8.8045 H        1 ZINC000049937658    0.0800
55     H55   -10.0450    7.5716   10.4897 H        1 ZINC000049937658    0.1400
56     H56    -9.2340    9.0109   13.1357 H        1 ZINC000049937658    0.0800
57     H57    -7.6755    9.5584   12.4728 H        1 ZINC000049937658    0.0800
58     H58    -9.1417    9.6194   11.4655 H        1 ZINC000049937658    0.0800
59     H59    -6.4668    8.5123   13.4892 H        1 ZINC000049937658    0.1300
60     H60    -4.5304    7.2309   14.2263 H        1 ZINC000049937658    0.1300
61     H61    -4.1306    4.9582   13.3842 H        1 ZINC000049937658    0.1300
62     H62    -3.5620    3.5881   11.9297 H        1 ZINC000049937658    0.0900
63     H63    -4.5158    2.9199   13.2759 H        1 ZINC000049937658    0.0900
64     H64    -5.3294   -1.5474   12.1246 H        1 ZINC000049937658    0.1500
65     H65    -4.0973   -1.8704   10.0180 H        1 ZINC000049937658    0.1600
66     H66    -4.0895    2.7640    7.4671 H        1 ZINC000049937658    0.0800
67     H67    -2.3951    2.5280    6.9395 H        1 ZINC000049937658    0.0900
68     H68    -4.2504    3.2988    5.1285 H        1 ZINC000049937658    0.0900
69     H69    -3.0528    2.0413    4.6713 H        1 ZINC000049937658    0.0900
70     H70    -5.9418    1.6636    5.6424 H        1 ZINC000049937658    0.0800
71     H71    -5.1169    0.8646    4.2638 H        1 ZINC000049937658    0.0900
72     H72    -6.6580   -1.1069    5.3942 H        1 ZINC000049937658    0.4000
73     H73    -7.4140   -2.3673    7.8059 H        1 ZINC000049937658    0.0800
74     H74    -8.2661   -0.8084    7.6966 H        1 ZINC000049937658    0.0800
75     H75    -9.1688   -1.4572    5.4801 H        1 ZINC000049937658    0.0800
76     H76    -8.3166   -3.0161    5.5894 H        1 ZINC000049937658    0.0800
77     H77    -9.5965   -3.5720    7.6391 H        1 ZINC000049937658    0.0800
78     H78   -10.4486   -2.0131    7.5298 H        1 ZINC000049937658    0.0800
79     H79   -10.7747   -3.3793    5.0796 H        1 ZINC000049937658    0.4000
80     H80   -11.9016   -4.0943    3.8242 H        1 ZINC000049937658    0.1500
81     H81   -13.5295   -5.0940    2.2773 H        1 ZINC000049937658    0.1500
82     H82   -16.4986   -7.6989    4.1930 H        1 ZINC000049937658    0.4500
83     H83   -17.2414   -7.7350    2.6864 H        1 ZINC000049937658    0.4300
84     H84   -16.0093   -6.1941    5.5968 H        1 ZINC000049937658    0.1500
85     H85   -14.3789   -5.2003    7.1448 H        1 ZINC000049937658    0.1600
@<TRIPOS>BOND
1     1     2     1
2     1     52    1
3     1     53    1
4     1     54    1
5     2     51    ar
6     2     3     ar
7     3     4     ar
8     3     55    1
9     4     5     1
10    4     6     ar
11    5     56    1
12    5     57    1
13    5     58    1
14    6     50    ar
15    6     7     ar
16    7     8     ar
17    7     59    1
18    8     9     ar
19    8     60    1
20    9     10    ar
21    9     61    1
22    10    11    1
23    10    50    ar
24    11    12    1
25    12    13    1
26    12    62    1
27    12    63    1
28    13    48    ar
29    13    14    ar
30    14    15    1
31    14    16    ar
32    16    17    ar
33    16    64    1
34    17    18    ar
35    17    65    1
36    18    19    1
37    18    48    ar
38    19    20    2
39    19    21    2
40    19    22    am
41    22    26    1
42    22    23    1
43    23    24    1
44    23    66    1
45    23    67    1
46    24    25    1
47    24    68    1
48    24    69    1
49    25    26    1
50    25    70    1
51    25    71    1
52    26    27    1
53    26    28    1
54    28    29    2
55    28    30    am
56    30    31    1
57    30    72    1
58    31    32    1
59    31    73    1
60    31    74    1
61    32    33    1
62    32    75    1
63    32    76    1
64    33    34    1
65    33    77    1
66    33    78    1
67    34    35    am
68    34    79    1
69    35    36    2
70    35    37    1
71    37    47    ar
72    37    38    ar
73    38    39    ar
74    38    80    1
75    39    40    ar
76    39    81    1
77    40    41    1
78    40    46    ar
79    41    42    ar
80    41    43    ar
81    42    82    1
82    42    83    1
83    43    44    1
84    43    45    1
85    46    47    ar
86    46    84    1
87    47    85    1
88    48    49    1
89    50    51    ar
@<TRIPOS>SUBSTRUCTURE
1   ZINC000049937658 1     RESIDUE    1   A     ZIN   1
