@<TRIPOS>MOLECULE
ZINC000003870219
  40   39    0    0    0
SMALL
USER_CHARGES
NO_NAME
@<TRIPOS>ATOM
    1 N1       -0.0116     1.0048     0.0076 N.4    1 <0>      -0.6100
    2 H2        0.0021    -0.0041     0.0020 H      1 <0>       0.4100
    3 H3        0.9350     1.3541     0.0004 H      1 <0>       0.4300
    4 H4       -0.4996     1.3391    -0.8099 H      1 <0>       0.4300
    5 C5       -0.6992     1.4786     1.2162 C.3    1 <0>      -0.0500
    6 H6       -1.7218     1.1013     1.2239 H      1 <0>       0.1300
    7 C7        0.0408     0.9717     2.4557 C.3    1 <0>      -0.1100
    8 C8       -0.0459    -0.5547     2.5128 C.3    1 <0>      -0.1500
    9 C9        0.6830    -1.0540     3.7337 C.2    1 <0>       0.5100
   10 O10       1.2190    -0.2664     4.4842 O.2    1 <0>      -0.5000
   11 N11       0.7392    -2.3756     3.9915 N.am   1 <0>      -0.7100
   12 C12       1.4478    -2.8610     5.1784 C.3    1 <0>       0.1500
   13 H13       1.3204    -2.1491     5.9939 H      1 <0>       0.1200
   14 C14       2.9366    -3.0090     4.8585 C.3    1 <0>      -0.1200
   15 S15       3.6457    -1.3760     4.5106 S.3    1 <0>      -0.1400
   16 C16       5.3852    -1.7526     4.1602 C.3    1 <0>       0.0700
   17 O17       5.4939    -2.3352     2.8599 O.3    1 <0>      -0.5600
   18 C18       0.8863    -4.1985     5.5867 C.2    1 <0>       0.5100
   19 O19      -0.0169    -4.6972     4.9491 O.2    1 <0>      -0.5500
   20 N20       1.3877    -4.8404     6.6605 N.am   1 <0>      -0.6900
   21 C21       0.8418    -6.1407     7.0574 C.3    1 <0>       0.0500
   22 C22       1.5707    -6.6399     8.2783 C.2    1 <0>       0.4900
   23 O23       2.4634    -5.9715     8.7712 O.co2  1 <0>      -0.6900
   24 O24       1.2677    -7.7122     8.7732 O.co2  1 <0>      -0.6800
   25 C25      -0.7196     2.9854     1.2245 C.2    1 <0>       0.4900
   26 O26      -1.3988     3.5814     2.0431 O.co2  1 <0>      -0.6400
   27 O27      -0.0570     3.6085     0.4126 O.co2  1 <0>      -0.6800
   28 H28       1.0866     1.2746     2.4037 H      1 <0>       0.0900
   29 H29      -0.4161     1.3953     3.3501 H      1 <0>       0.1200
   30 H30      -1.0916    -0.8576     2.5648 H      1 <0>       0.1000
   31 H31       0.4110    -0.9783     1.6184 H      1 <0>       0.0800
   32 H32       0.3105    -3.0055     3.3912 H      1 <0>       0.4100
   33 H33       3.4491    -3.4534     5.7117 H      1 <0>       0.1000
   34 H34       3.0588    -3.6514     3.9864 H      1 <0>       0.0900
   35 H35       5.9704    -0.8338     4.1968 H      1 <0>       0.0900
   36 H36       5.7624    -2.4534     4.9051 H      1 <0>       0.0700
   37 H37       6.3986    -2.5628     2.6053 H      1 <0>       0.3700
   38 H38       2.1100    -4.4415     7.1704 H      1 <0>       0.4100
   39 H39      -0.2188    -6.0352     7.2853 H      1 <0>       0.0700
   40 H40       0.9692    -6.8525     6.2418 H      1 <0>       0.0700
@<TRIPOS>BOND
   1    1    2 1
   2    1    3 1
   3    1    4 1
   4    1    5 1
   5    5    6 1
   6    5    7 1
   7    5   25 1
   8    7    8 1
   9    7   28 1
  10    7   29 1
  11    8    9 1
  12    8   30 1
  13    8   31 1
  14    9   10 2
  15    9   11 am
  16   11   12 1
  17   11   32 1
  18   12   13 1
  19   12   14 1
  20   12   18 1
  21   14   15 1
  22   14   33 1
  23   14   34 1
  24   15   16 1
  25   16   17 1
  26   16   35 1
  27   16   36 1
  28   17   37 1
  29   18   19 2
  30   18   20 am
  31   20   21 1
  32   20   38 1
  33   21   22 1
  34   21   39 1
  35   21   40 1
  36   22   23 ar
  37   22   24 ar
  38   25   26 ar
  39   25   27 ar
