@<TRIPOS>MOLECULE
ZINC000004836283
81    84    1     0     0
SMALL
USER_CHARGES
@<TRIPOS>ATOM
1      C1      0.8208    2.4424   -0.7656 C.3      1 ZINC000004836283    0.0200
2      N2      1.0193    0.9967   -0.5968 N.3      1 ZINC000004836283   -0.5100
3      C3      1.9953    0.7198    0.4656 C.3      1 ZINC000004836283    0.0200
4      C4     -0.1955    0.3499   -0.3430 C.ar     1 ZINC000004836283    0.0900
5      C5     -0.9500    0.6998    0.7731 C.ar     1 ZINC000004836283   -0.0800
6      C6     -2.1483    0.0647    1.0338 C.ar     1 ZINC000004836283   -0.1900
7      C7     -2.9527    0.4475    2.2493 C.3      1 ZINC000004836283    0.0500
8      N8     -2.7218   -0.5334    3.3182 N.4      1 ZINC000004836283   -0.5100
9      H9     -3.0054   -1.4486    3.0018 H        1 ZINC000004836283    0.4300
10     H10    -1.7411   -0.5483    3.5549 H        1 ZINC000004836283    0.4200
11     C11    -3.5059   -0.1602    4.5030 C.3      1 ZINC000004836283    0.0000
12     C12    -3.2655   -1.1818    5.6163 C.3      1 ZINC000004836283   -0.0900
13     C13    -1.7783   -1.2044    5.9752 C.3      1 ZINC000004836283   -0.1700
14     C14    -4.0821   -0.7931    6.8503 C.3      1 ZINC000004836283   -0.1500
15     C15    -3.6955   -2.5696    5.1365 C.3      1 ZINC000004836283   -0.1700
16     C16    -2.6135   -0.9239    0.1803 C.ar     1 ZINC000004836283    0.1700
17     O17    -3.7889   -1.5514    0.4410 O.3      1 ZINC000004836283   -0.4900
18     C18    -1.8668   -1.2723   -0.9520 C.ar     1 ZINC000004836283   -0.1100
19     C19    -0.6486   -0.6327   -1.2044 C.ar     1 ZINC000004836283    0.0300
20     C20     0.1737   -1.0392   -2.3998 C.3      1 ZINC000004836283   -0.0800
21     C21    -0.7505   -1.4086   -3.5573 C.3      1 ZINC000004836283   -0.0400
22     H22    -1.2890   -0.5171   -3.8786 H        1 ZINC000004836283    0.0900
23     C23     0.0722   -1.9429   -4.7326 C.3      1 ZINC000004836283   -0.1100
24     C24    -0.8981   -2.4309   -5.8038 C.3      1 ZINC000004836283   -0.0900
25     H25    -1.6609   -1.6639   -5.9383 H        1 ZINC000004836283    0.1000
26     C26    -0.2126   -2.6454   -7.1388 C.3      1 ZINC000004836283    0.0400
27     H27     0.4174   -1.7826   -7.3552 H        1 ZINC000004836283    0.1500
28     N28    -1.2358   -2.7621   -8.1863 N.4      1 ZINC000004836283   -0.3700
29     H29    -1.8288   -3.5546   -7.9904 H        1 ZINC000004836283    0.4300
30     C30    -2.0479   -1.5384   -8.2161 C.3      1 ZINC000004836283   -0.0500
31     C31    -0.5835   -2.9488   -9.4893 C.3      1 ZINC000004836283   -0.0500
32     C32     0.6355   -3.8817   -7.1501 C.2      1 ZINC000004836283    0.3000
33     O33     1.6083   -3.9915   -8.0669 O.3      1 ZINC000004836283   -0.5600
34     C34     0.4500   -4.9054   -6.2545 C.2      1 ZINC000004836283   -0.4800
35     C35     1.2923   -6.1095   -6.3340 C.2      1 ZINC000004836283    0.5800
36     N36     1.0413   -7.1618   -5.5301 N.am     1 ZINC000004836283   -0.8700
37     O37     2.2151   -6.1551   -7.1252 O.2      1 ZINC000004836283   -0.5500
38     C38    -0.5801   -4.8051   -5.2218 C.2      1 ZINC000004836283    0.3900
39     O39    -0.6121   -5.5965   -4.3021 O.2      1 ZINC000004836283   -0.4900
40     C40    -1.5939   -3.7052   -5.3290 C.3      1 ZINC000004836283    0.0600
41     O41    -2.6284   -4.0724   -6.2439 O.3      1 ZINC000004836283   -0.5500
42     C42    -2.1501   -3.4656   -3.9506 C.2      1 ZINC000004836283    0.3800
43     O43    -2.9860   -4.2387   -3.5240 O.2      1 ZINC000004836283   -0.4200
44     C44    -1.7458   -2.4518   -3.1253 C.2      1 ZINC000004836283   -0.2200
45     C45    -2.3364   -2.3191   -1.8720 C.2      1 ZINC000004836283    0.2200
46     O46    -3.3571   -3.1273   -1.5115 O.3      1 ZINC000004836283   -0.4600
47     H47     1.7686    2.9108   -1.0309 H        1 ZINC000004836283    0.0900
48     H48     0.0937    2.6193   -1.5581 H        1 ZINC000004836283    0.0700
49     H49     0.4528    2.8699    0.1671 H        1 ZINC000004836283    0.0300
50     H50     1.6354    1.1354    1.4069 H        1 ZINC000004836283    0.0300
51     H51     2.1233   -0.3576    0.5695 H        1 ZINC000004836283    0.0700
52     H52     2.9512    1.1763    0.2089 H        1 ZINC000004836283    0.0900
53     H53    -0.5960    1.4725    1.4395 H        1 ZINC000004836283    0.1400
54     H54    -2.6463    1.4362    2.5911 H        1 ZINC000004836283    0.1400
55     H55    -4.0121    0.4637    1.9936 H        1 ZINC000004836283    0.1400
56     H56    -3.1996    0.8285    4.8448 H        1 ZINC000004836283    0.1300
57     H57    -4.5654   -0.1441    4.2473 H        1 ZINC000004836283    0.1300
58     H58    -1.4720   -0.2158    6.3170 H        1 ZINC000004836283    0.0700
59     H59    -1.6070   -1.9323    6.7683 H        1 ZINC000004836283    0.0900
60     H60    -1.1965   -1.4814    5.0961 H        1 ZINC000004836283    0.0500
61     H61    -5.1416   -0.7770    6.5946 H        1 ZINC000004836283    0.0700
62     H62    -3.9108   -1.5210    7.6434 H        1 ZINC000004836283    0.0800
63     H63    -3.7758    0.1955    7.1921 H        1 ZINC000004836283    0.0700
64     H64    -3.1137   -2.8465    4.2574 H        1 ZINC000004836283    0.0500
65     H65    -3.5242   -3.2974    5.9296 H        1 ZINC000004836283    0.0900
66     H66    -4.7549   -2.5534    4.8808 H        1 ZINC000004836283    0.0700
67     H67    -4.5598   -1.1230    0.0445 H        1 ZINC000004836283    0.4100
68     H68     0.8149   -0.2098   -2.6980 H        1 ZINC000004836283    0.1200
69     H69     0.7911   -1.8991   -2.1399 H        1 ZINC000004836283    0.1000
70     H70     0.6973   -1.1468   -5.1369 H        1 ZINC000004836283    0.1000
71     H71     0.6983   -2.7701   -4.3983 H        1 ZINC000004836283    0.0900
72     H72    -2.7250   -1.5723   -9.0697 H        1 ZINC000004836283    0.1200
73     H73    -2.6270   -1.4641   -7.2957 H        1 ZINC000004836283    0.1200
74     H74    -1.3943   -0.6706   -8.3052 H        1 ZINC000004836283    0.1200
75     H75     0.0191   -3.8568   -9.4671 H        1 ZINC000004836283    0.1400
76     H76    -1.3427   -3.0354  -10.2666 H        1 ZINC000004836283    0.1100
77     H77     0.0571   -2.0927   -9.7009 H        1 ZINC000004836283    0.1200
78     H78     0.3604   -7.0953   -4.8425 H        1 ZINC000004836283    0.4000
79     H79     1.5416   -7.9856   -5.6392 H        1 ZINC000004836283    0.3900
80     H80    -3.1109   -4.8716   -5.9919 H        1 ZINC000004836283    0.4100
81     H81    -3.0832   -3.9056   -1.0072 H        1 ZINC000004836283    0.4100
@<TRIPOS>BOND
1     1     2     1
2     1     47    1
3     1     48    1
4     1     49    1
5     2     3     1
6     2     4     1
7     3     50    1
8     3     51    1
9     3     52    1
10    4     19    ar
11    4     5     ar
12    5     6     ar
13    5     53    1
14    6     7     1
15    6     16    ar
16    7     8     1
17    7     54    1
18    7     55    1
19    8     9     1
20    8     10    1
21    8     11    1
22    11    12    1
23    11    56    1
24    11    57    1
25    12    13    1
26    12    14    1
27    12    15    1
28    13    58    1
29    13    59    1
30    13    60    1
31    14    61    1
32    14    62    1
33    14    63    1
34    15    64    1
35    15    65    1
36    15    66    1
37    16    17    1
38    16    18    ar
39    17    67    1
40    18    45    1
41    18    19    ar
42    19    20    1
43    20    21    1
44    20    68    1
45    20    69    1
46    21    22    1
47    21    44    1
48    21    23    1
49    23    24    1
50    23    70    1
51    23    71    1
52    24    25    1
53    24    40    1
54    24    26    1
55    26    27    1
56    26    28    1
57    26    32    1
58    28    29    1
59    28    30    1
60    28    31    1
61    30    72    1
62    30    73    1
63    30    74    1
64    31    75    1
65    31    76    1
66    31    77    1
67    32    33    1
68    32    34    2
69    34    35    1
70    34    38    1
71    35    36    am
72    35    37    2
73    36    78    1
74    36    79    1
75    38    39    2
76    38    40    1
77    40    41    1
78    40    42    1
79    41    80    1
80    42    43    2
81    42    44    1
82    44    45    2
83    45    46    1
84    46    81    1
@<TRIPOS>SUBSTRUCTURE
1   ZINC000004836283 1     RESIDUE    1   A     ZIN   1
