@<TRIPOS>MOLECULE
ZINC000014685555
56    56    1     0     0
SMALL
USER_CHARGES
@<TRIPOS>ATOM
1      C1      0.9606   -3.0785    3.2373 C.3      1 ZINC000014685555   -0.1500
2      C2      0.4991   -2.8783    1.8168 C.2      1 ZINC000014685555    0.4600
3      O3      1.2681   -2.4569    0.9855 O.2      1 ZINC000014685555   -0.5100
4      O4     -0.7661   -3.1681    1.4749 O.3      1 ZINC000014685555   -0.3500
5      C5     -1.1408   -2.9507    0.0891 C.3      1 ZINC000014685555    0.1000
6      C6     -2.5868   -3.3282   -0.1055 C.2      1 ZINC000014685555   -0.1600
7      C7     -2.9405   -4.1125   -1.1268 C.2      1 ZINC000014685555   -0.0700
8      C8     -1.9178   -4.5128   -2.1588 C.3      1 ZINC000014685555   -0.1300
9      C9     -4.3195   -4.5826   -1.2438 C.2      1 ZINC000014685555   -0.1200
10     C10    -4.6788   -5.3791   -2.2811 C.2      1 ZINC000014685555   -0.1100
11     C11    -6.0086   -5.8324   -2.3939 C.2      1 ZINC000014685555   -0.1300
12     C12    -6.3687   -6.6309   -3.4338 C.2      1 ZINC000014685555   -0.0700
13     C13    -7.7905   -7.1156   -3.5544 C.3      1 ZINC000014685555   -0.1200
14     C14    -5.4122   -7.0053   -4.3989 C.2      1 ZINC000014685555   -0.1300
15     C15    -5.7715   -7.8019   -5.4362 C.2      1 ZINC000014685555   -0.0900
16     C16    -4.7927   -8.1477   -6.4652 C.2      1 ZINC000014685555   -0.1000
17     C17    -4.1805   -7.1632   -7.0990 C.2      1 ZINC000014685555   -0.1100
18     C18    -4.5245   -5.7474   -6.7140 C.3      1 ZINC000014685555   -0.1200
19     C19    -3.1615   -7.3751   -8.1806 C.3      1 ZINC000014685555   -0.0800
20     C20    -2.6388   -8.8124   -8.1373 C.3      1 ZINC000014685555   -0.1200
21     C21    -3.8388   -9.7662   -8.0918 C.3      1 ZINC000014685555   -0.1100
22     C22    -4.5355   -9.6012   -6.7377 C.3      1 ZINC000014685555   -0.0200
23     C23    -3.6474  -10.1831   -5.6360 C.3      1 ZINC000014685555   -0.1400
24     C24    -5.8692  -10.3507   -6.7589 C.3      1 ZINC000014685555   -0.1400
25     H25     2.0087   -2.7917    3.3227 H        1 ZINC000014685555    0.1000
26     H26     0.3595   -2.4613    3.9050 H        1 ZINC000014685555    0.1000
27     H27     0.8473   -4.1273    3.5118 H        1 ZINC000014685555    0.1000
28     H28    -1.0025   -1.8996   -0.1641 H        1 ZINC000014685555    0.0800
29     H29    -0.5146   -3.5656   -0.5574 H        1 ZINC000014685555    0.0800
30     H30    -3.3369   -2.9645    0.5810 H        1 ZINC000014685555    0.1200
31     H31    -1.4013   -5.4139   -1.8279 H        1 ZINC000014685555    0.0700
32     H32    -2.4167   -4.7079   -3.1081 H        1 ZINC000014685555    0.0700
33     H33    -1.1958   -3.7064   -2.2868 H        1 ZINC000014685555    0.0700
34     H34    -5.0524   -4.2956   -0.5043 H        1 ZINC000014685555    0.1200
35     H35    -3.9459   -5.6660   -3.0207 H        1 ZINC000014685555    0.1200
36     H36    -6.7415   -5.5455   -1.6544 H        1 ZINC000014685555    0.1200
37     H37    -8.3694   -6.4013   -4.1399 H        1 ZINC000014685555    0.0700
38     H38    -7.8027   -8.0862   -4.0501 H        1 ZINC000014685555    0.0700
39     H39    -8.2279   -7.2097   -2.5604 H        1 ZINC000014685555    0.0700
40     H40    -4.3933   -6.6580   -4.3125 H        1 ZINC000014685555    0.1200
41     H41    -6.7808   -8.1806   -5.5019 H        1 ZINC000014685555    0.1200
42     H42    -3.9252   -5.4490   -5.8538 H        1 ZINC000014685555    0.0600
43     H43    -4.3147   -5.0820   -7.5514 H        1 ZINC000014685555    0.0600
44     H44    -5.5824   -5.6873   -6.4582 H        1 ZINC000014685555    0.0700
45     H45    -3.6202   -7.1864   -9.1512 H        1 ZINC000014685555    0.0700
46     H46    -2.3312   -6.6841   -8.0352 H        1 ZINC000014685555    0.0700
47     H47    -2.0452   -9.0131   -9.0292 H        1 ZINC000014685555    0.0700
48     H48    -2.0258   -8.9524   -7.2470 H        1 ZINC000014685555    0.0700
49     H49    -4.5318   -9.5214   -8.8967 H        1 ZINC000014685555    0.0700
50     H50    -3.4937  -10.7943   -8.2019 H        1 ZINC000014685555    0.0700
51     H51    -2.6937   -9.6555   -5.6217 H        1 ZINC000014685555    0.0600
52     H52    -4.1416  -10.0666   -4.6715 H        1 ZINC000014685555    0.0600
53     H53    -3.4742  -11.2416   -5.8301 H        1 ZINC000014685555    0.0600
54     H54    -5.6864  -11.4133   -6.9183 H        1 ZINC000014685555    0.0600
55     H55    -6.3808  -10.2089   -5.8069 H        1 ZINC000014685555    0.0600
56     H56    -6.4907   -9.9638   -7.5664 H        1 ZINC000014685555    0.0600
@<TRIPOS>BOND
1     1     2     1
2     1     25    1
3     1     26    1
4     1     27    1
5     2     3     2
6     2     4     1
7     4     5     1
8     5     6     1
9     5     28    1
10    5     29    1
11    6     7     2
12    6     30    1
13    7     8     1
14    7     9     1
15    8     31    1
16    8     32    1
17    8     33    1
18    9     10    2
19    9     34    1
20    10    11    1
21    10    35    1
22    11    12    2
23    11    36    1
24    12    13    1
25    12    14    1
26    13    37    1
27    13    38    1
28    13    39    1
29    14    15    2
30    14    40    1
31    15    16    1
32    15    41    1
33    16    22    1
34    16    17    2
35    17    18    1
36    17    19    1
37    18    42    1
38    18    43    1
39    18    44    1
40    19    20    1
41    19    45    1
42    19    46    1
43    20    21    1
44    20    47    1
45    20    48    1
46    21    22    1
47    21    49    1
48    21    50    1
49    22    23    1
50    22    24    1
51    23    51    1
52    23    52    1
53    23    53    1
54    24    54    1
55    24    55    1
56    24    56    1
@<TRIPOS>SUBSTRUCTURE
1   ZINC000014685555 1     RESIDUE    1   A     ZIN   1
