@<TRIPOS>MOLECULE
ZINC000003651471
61    64    1     0     0
SMALL
USER_CHARGES
@<TRIPOS>ATOM
1      C1     -1.8634   -4.6530   -0.0051 C.3      1 ZINC000003651471   -0.1500
2      C2     -0.4083   -4.1802   -0.0165 C.3      1 ZINC000003651471   -0.1300
3      C3     -0.3689   -2.6508   -0.0087 C.3      1 ZINC000003651471   -0.1000
4      C4      1.0862   -2.1780   -0.0200 C.3      1 ZINC000003651471   -0.0400
5      C5      1.1250   -0.6715   -0.0123 C.2      1 ZINC000003651471    0.3300
6      N6      0.0021   -0.0041    0.0020 N.2      1 ZINC000003651471   -0.6200
7      C7     -0.0160    1.3310    0.0094 C.2      1 ZINC000003651471    0.1700
8      C8     -1.3306    2.0677    0.0196 C.3      1 ZINC000003651471   -0.0700
9      C9     -1.8438    2.2152   -1.4142 C.3      1 ZINC000003651471   -0.1000
10     C10    -3.1784    2.9632   -1.4039 C.3      1 ZINC000003651471   -0.1300
11     C11    -3.6916    3.1106   -2.8377 C.3      1 ZINC000003651471   -0.1500
12     C12     1.1552    2.0261    0.0019 C.2      1 ZINC000003651471   -0.3200
13     C13     1.1557    3.5331    0.0095 C.3      1 ZINC000003651471    0.0000
14     C14     1.2929    4.0283    1.4262 C.ar     1 ZINC000003651471   -0.0400
15     C15     0.1615    4.2598    2.1877 C.ar     1 ZINC000003651471   -0.1300
16     C16     0.2812    4.7078    3.4875 C.ar     1 ZINC000003651471    0.0100
17     C17     1.5450    4.9380    4.0290 C.ar     1 ZINC000003651471   -0.0800
18     C18     1.6800    5.4255    5.4225 C.ar     1 ZINC000003651471   -0.0200
19     C19     2.5388    4.7820    6.3090 C.ar     1 ZINC000003651471   -0.1100
20     C20     2.6647    5.2420    7.6046 C.ar     1 ZINC000003651471   -0.1400
21     C21     1.9334    6.3364    8.0326 C.ar     1 ZINC000003651471   -0.1300
22     C22     1.0732    6.9829    7.1673 C.ar     1 ZINC000003651471   -0.1100
23     C23     0.9381    6.5351    5.8569 C.ar     1 ZINC000003651471    0.0500
24     C24     0.0147    7.2263    4.9241 C.2      1 ZINC000003651471    0.0800
25     N25    -0.2091    6.9137    3.6519 N.2      1 ZINC000003651471   -0.3400
26     N26    -1.0764    7.7500    3.1930 N.pl3    1 ZINC000003651471   -0.1900
27     N27    -1.3977    8.5782    4.1247 N.2      1 ZINC000003651471   -0.2000
28     N28    -0.7451    8.2821    5.1964 N.2      1 ZINC000003651471   -0.3800
29     C29     2.6814    4.7083    3.2549 C.ar     1 ZINC000003651471   -0.1000
30     C30     2.5496    4.2549    1.9582 C.ar     1 ZINC000003651471   -0.1300
31     C31     2.3675    1.3058   -0.0140 C.2      1 ZINC000003651471    0.5000
32     O32     3.4387    1.8892   -0.0219 O.2      1 ZINC000003651471   -0.6200
33     N33     2.3171   -0.0435   -0.0207 N.pl3    1 ZINC000003651471   -0.6700
34     H34    -2.3761   -4.2718   -0.8882 H        1 ZINC000003651471    0.0500
35     H35    -1.8914   -5.7426   -0.0107 H        1 ZINC000003651471    0.0400
36     H36    -2.3591   -4.2814    0.8916 H        1 ZINC000003651471    0.0500
37     H37     0.0875   -4.5519   -0.9133 H        1 ZINC000003651471    0.0500
38     H38     0.1045   -4.5614    0.8666 H        1 ZINC000003651471    0.0600
39     H39    -0.8647   -2.2791    0.8881 H        1 ZINC000003651471    0.0700
40     H40    -0.8817   -2.2696   -0.8917 H        1 ZINC000003651471    0.0600
41     H41     1.5820   -2.5496   -0.9168 H        1 ZINC000003651471    0.0700
42     H42     1.5990   -2.5592    0.8631 H        1 ZINC000003651471    0.0700
43     H43    -2.0563    1.5078    0.6094 H        1 ZINC000003651471    0.0600
44     H44    -1.1902    3.0555    0.4586 H        1 ZINC000003651471    0.0800
45     H45    -1.1181    2.7751   -2.0041 H        1 ZINC000003651471    0.0600
46     H46    -1.9842    1.2275   -1.8533 H        1 ZINC000003651471    0.0600
47     H47    -3.9042    2.4033   -0.8140 H        1 ZINC000003651471    0.0600
48     H48    -3.0380    3.9509   -0.9648 H        1 ZINC000003651471    0.0600
49     H49    -2.9659    3.6706   -3.4275 H        1 ZINC000003651471    0.0500
50     H50    -3.8320    2.1229   -3.2767 H        1 ZINC000003651471    0.0500
51     H51    -4.6424    3.6435   -2.8303 H        1 ZINC000003651471    0.0500
52     H52     1.9921    3.8992   -0.5859 H        1 ZINC000003651471    0.0600
53     H53     0.2204    3.8989   -0.4142 H        1 ZINC000003651471    0.0600
54     H54    -0.8172    4.0857    1.7656 H        1 ZINC000003651471    0.1100
55     H55    -0.6027    4.8840    4.0826 H        1 ZINC000003651471    0.1000
56     H56     3.1091    3.9250    5.9824 H        1 ZINC000003651471    0.1200
57     H57     3.3347    4.7429    8.2890 H        1 ZINC000003651471    0.1100
58     H58     2.0359    6.6865    9.0491 H        1 ZINC000003651471    0.1100
59     H59     0.5049    7.8359    7.5078 H        1 ZINC000003651471    0.1200
60     H60     3.6630    4.8845    3.6693 H        1 ZINC000003651471    0.1000
61     H61     3.4292    4.0769    1.3574 H        1 ZINC000003651471    0.1200
@<TRIPOS>BOND
1     1     2     1
2     1     34    1
3     1     35    1
4     1     36    1
5     2     3     1
6     2     37    1
7     2     38    1
8     3     4     1
9     3     39    1
10    3     40    1
11    4     5     1
12    4     41    1
13    4     42    1
14    5     33    1
15    5     6     2
16    6     7     1
17    7     8     1
18    7     12    2
19    8     9     1
20    8     43    1
21    8     44    1
22    9     10    1
23    9     45    1
24    9     46    1
25    10    11    1
26    10    47    1
27    10    48    1
28    11    49    1
29    11    50    1
30    11    51    1
31    12    13    1
32    12    31    1
33    13    14    1
34    13    52    1
35    13    53    1
36    14    30    ar
37    14    15    ar
38    15    16    ar
39    15    54    1
40    16    17    ar
41    16    55    1
42    17    18    1
43    17    29    ar
44    18    23    ar
45    18    19    ar
46    19    20    ar
47    19    56    1
48    20    21    ar
49    20    57    1
50    21    22    ar
51    21    58    1
52    22    23    ar
53    22    59    1
54    23    24    1
55    24    28    1
56    24    25    2
57    25    26    1
58    26    27    1
59    27    28    2
60    29    30    ar
61    29    60    1
62    30    61    1
63    31    32    2
64    31    33    1
@<TRIPOS>SUBSTRUCTURE
1   ZINC000003651471 1     RESIDUE    1   A     ZIN   1
