@<TRIPOS>MOLECULE
ZINC000001530774
  41   43    0    0    0
SMALL
USER_CHARGES
NO_NAME
@<TRIPOS>ATOM
    1 C1       -0.0187     1.5258     0.0104 C.3    1 <0>      -0.1200
    2 C2        0.0021    -0.0041     0.0020 C.3    1 <0>       0.0000
    3 C3       -1.4129    -0.5757    -0.1079 C.3    1 <0>      -0.1400
    4 S4        1.0953    -0.6533    -1.3314 S.3    1 <0>      -0.3000
    5 C5        1.5454    -2.1898    -0.4344 C.3    1 <0>       0.0900
    6 H6        2.5750    -2.5116    -0.5910 H      1 <0>       0.1400
    7 C7        0.4986    -3.2953    -0.5604 C.3    1 <0>       0.0900
    8 H8       -0.3245    -3.0604    -1.2353 H      1 <0>       0.1500
    9 N9        1.0557    -4.6345    -0.7664 N.am   1 <0>      -0.7000
   10 C10       0.3197    -5.5838    -1.3778 C.2    1 <0>       0.5200
   11 O11      -0.8037    -5.3293    -1.7574 O.2    1 <0>      -0.5000
   12 C12       0.8927    -6.9614    -1.5896 C.3    1 <0>       0.0400
   13 O13      -0.0714    -7.7815    -2.2529 O.3    1 <0>      -0.2900
   14 C14       0.2895    -9.0639    -2.5212 C.ar   1 <0>       0.1300
   15 C15       1.5437    -9.5252    -2.1484 C.ar   1 <0>      -0.2100
   16 C16       1.9080   -10.8294    -2.4217 C.ar   1 <0>      -0.0800
   17 C17       1.0241   -11.6747    -3.0667 C.ar   1 <0>      -0.1600
   18 C18      -0.2263   -11.2172    -3.4397 C.ar   1 <0>      -0.0800
   19 C19      -0.5977    -9.9156    -3.1631 C.ar   1 <0>      -0.1500
   20 C20       0.2400    -2.9442     0.8803 C.2    1 <0>       0.4700
   21 O21      -0.5286    -3.4038     1.6983 O.2    1 <0>      -0.3800
   22 N22       1.1710    -1.9395     0.9646 N.am   1 <0>      -0.4900
   23 C23       0.7458    -0.5675     1.2462 C.3    1 <0>       0.0200
   24 H24       1.6167     0.0446     1.4803 H      1 <0>       0.1100
   25 C25      -0.2047    -0.5626     2.4156 C.2    1 <0>       0.5000
   26 O26      -0.4802    -1.6067     2.9817 O.co2  1 <0>      -0.6400
   27 O27      -0.6983     0.4855     2.7957 O.co2  1 <0>      -0.6800
   28 H28       1.0039     1.9031     0.0027 H      1 <0>       0.0600
   29 H29      -0.5459     1.8868    -0.8726 H      1 <0>       0.0600
   30 H30      -0.5289     1.8773     0.9072 H      1 <0>       0.1000
   31 H31      -1.8785    -0.2190    -1.0267 H      1 <0>       0.0700
   32 H32      -1.3646    -1.6645    -0.1240 H      1 <0>       0.0500
   33 H33      -2.0035    -0.2508     0.7486 H      1 <0>       0.0900
   34 H34       1.9541    -4.8380    -0.4627 H      1 <0>       0.4100
   35 H35       1.7921    -6.8907    -2.2014 H      1 <0>       0.1000
   36 H36       1.1433    -7.4030    -0.6251 H      1 <0>       0.1000
   37 H37       2.2347    -8.8652    -1.6452 H      1 <0>       0.1300
   38 H38       2.8842   -11.1890    -2.1317 H      1 <0>       0.1200
   39 H39       1.3109   -12.6938    -3.2799 H      1 <0>       0.1200
   40 H40      -0.9148   -11.8792    -3.9437 H      1 <0>       0.1300
   41 H41      -1.5744    -9.5588    -3.4546 H      1 <0>       0.1300
@<TRIPOS>BOND
   1    1    2 1
   2    1   28 1
   3    1   29 1
   4    1   30 1
   5    2   23 1
   6    2    3 1
   7    2    4 1
   8    3   31 1
   9    3   32 1
  10    3   33 1
  11    4    5 1
  12    5    6 1
  13    5   22 1
  14    5    7 1
  15    7    8 1
  16    7    9 1
  17    7   20 1
  18    9   10 am
  19    9   34 1
  20   10   11 2
  21   10   12 1
  22   12   13 1
  23   12   35 1
  24   12   36 1
  25   13   14 1
  26   14   19 ar
  27   14   15 ar
  28   15   16 ar
  29   15   37 1
  30   16   17 ar
  31   16   38 1
  32   17   18 ar
  33   17   39 1
  34   18   19 ar
  35   18   40 1
  36   19   41 1
  37   20   21 2
  38   20   22 am
  39   22   23 1
  40   23   24 1
  41   23   25 1
  42   25   26 ar
  43   25   27 ar
