@<TRIPOS>MOLECULE
ZINC000001903402
68    69    1     0     0
SMALL
USER_CHARGES
@<TRIPOS>ATOM
1      C1     -1.3510   -1.7767   -0.2054 C.3      1 ZINC000001903402   -0.1500
2      C2      0.1134   -1.7855   -0.6487 C.3      1 ZINC000001903402    0.0500
3      N3      0.4672   -0.4689   -1.1958 N.3      1 ZINC000001903402   -0.5300
4      C4      1.9247   -0.3152   -1.2969 C.3      1 ZINC000001903402    0.0800
5      C5      2.5255   -0.3025    0.0851 C.2      1 ZINC000001903402   -0.1100
6      C6      3.4884   -1.1627    0.3989 C.2      1 ZINC000001903402   -0.0600
7      C7      4.0593   -1.1506    1.7121 C.1      1 ZINC000001903402   -0.1500
8      C8      4.5274   -1.1407    2.7887 C.1      1 ZINC000001903402   -0.1500
9      C9      5.1143   -1.1282    4.1386 C.3      1 ZINC000001903402    0.0400
10     C10     6.1926   -2.2093    4.2359 C.3      1 ZINC000001903402   -0.1400
11     C11     5.7394    0.2415    4.4103 C.3      1 ZINC000001903402   -0.1400
12     C12     4.0209   -1.4040    5.1726 C.3      1 ZINC000001903402   -0.1400
13     C13    -0.1768   -0.2493   -2.4976 C.3      1 ZINC000001903402    0.0900
14     C14    -0.1184    1.2156   -2.8464 C.ar     1 ZINC000001903402   -0.0400
15     C15    -1.0870    2.0785   -2.3686 C.ar     1 ZINC000001903402   -0.1300
16     C16    -1.0362    3.4233   -2.6868 C.ar     1 ZINC000001903402   -0.0800
17     C17    -0.0169    3.9077   -3.4831 C.ar     1 ZINC000001903402   -0.2100
18     C18     0.9566    3.0437   -3.9639 C.ar     1 ZINC000001903402    0.1300
19     O19     1.9608    3.5179   -4.7472 O.3      1 ZINC000001903402   -0.3100
20     C20     1.9525    4.9174   -5.0361 C.3      1 ZINC000001903402    0.0800
21     C21     3.1500    5.2620   -5.9238 C.3      1 ZINC000001903402    0.1200
22     C22     4.4458    4.8993   -5.1956 C.3      1 ZINC000001903402   -0.1800
23     C23     3.0607    4.4710   -7.2304 C.3      1 ZINC000001903402   -0.1800
24     O24     3.1417    6.6615   -6.2127 O.3      1 ZINC000001903402   -0.3700
25     C25     4.2248    7.0906   -7.0403 C.3      1 ZINC000001903402    0.1200
26     C26     4.1171    8.5746   -7.2793 C.2      1 ZINC000001903402   -0.1100
27     C27     3.4377    9.0885   -8.3057 C.2      1 ZINC000001903402   -0.1900
28     S28     3.5353   10.8440   -8.2578 S.3      1 ZINC000001903402    0.1100
29     C29     4.5223   10.7793   -6.8035 C.2      1 ZINC000001903402   -0.2100
30     C30     4.7107    9.5078   -6.4469 C.2      1 ZINC000001903402   -0.1200
31     C31     0.9065    1.6962   -3.6387 C.ar     1 ZINC000001903402   -0.1500
32     H32    -1.5159   -0.9518    0.4876 H        1 ZINC000001903402    0.0600
33     H33    -1.9937   -1.6530   -1.0770 H        1 ZINC000001903402    0.0500
34     H34    -1.5866   -2.7192    0.2889 H        1 ZINC000001903402    0.0600
35     H35     0.7508   -2.0065    0.2074 H        1 ZINC000001903402    0.0800
36     H36     0.2566   -2.5476   -1.4147 H        1 ZINC000001903402    0.0400
37     H37     2.3392   -1.1476   -1.8656 H        1 ZINC000001903402    0.0400
38     H38     2.1570    0.6219   -1.8027 H        1 ZINC000001903402    0.0900
39     H39     2.1735    0.4058    0.8205 H        1 ZINC000001903402    0.1200
40     H40     3.8404   -1.8710   -0.3365 H        1 ZINC000001903402    0.1300
41     H41     6.9716   -2.0128    3.4992 H        1 ZINC000001903402    0.0600
42     H42     6.6272   -2.2001    5.2354 H        1 ZINC000001903402    0.0700
43     H43     5.7473   -3.1851    4.0423 H        1 ZINC000001903402    0.0600
44     H44     4.9712    1.0117    4.3410 H        1 ZINC000001903402    0.0600
45     H45     6.1740    0.2507    5.4099 H        1 ZINC000001903402    0.0700
46     H46     6.5184    0.4380    3.6736 H        1 ZINC000001903402    0.0600
47     H47     3.5756   -2.3799    4.9790 H        1 ZINC000001903402    0.0600
48     H48     4.4555   -1.3948    6.1722 H        1 ZINC000001903402    0.0700
49     H49     3.2527   -0.6339    5.1033 H        1 ZINC000001903402    0.0600
50     H50     0.3437   -0.8259   -3.2623 H        1 ZINC000001903402    0.0500
51     H51    -1.2175   -0.5694   -2.4467 H        1 ZINC000001903402    0.0900
52     H52    -1.8851    1.7016   -1.7461 H        1 ZINC000001903402    0.1200
53     H53    -1.7943    4.0953   -2.3126 H        1 ZINC000001903402    0.1300
54     H54     0.0222    4.9580   -3.7316 H        1 ZINC000001903402    0.1300
55     H55     1.0293    5.1758   -5.5549 H        1 ZINC000001903402    0.0700
56     H56     2.0161    5.4809   -4.1053 H        1 ZINC000001903402    0.0700
57     H57     4.4521    3.8318   -4.9752 H        1 ZINC000001903402    0.0800
58     H58     5.2989    5.1448   -5.8280 H        1 ZINC000001903402    0.0600
59     H59     4.5094    5.4628   -4.2647 H        1 ZINC000001903402    0.0600
60     H60     2.1376    4.7294   -7.7492 H        1 ZINC000001903402    0.0600
61     H61     3.9139    4.7165   -7.8628 H        1 ZINC000001903402    0.0600
62     H62     3.0670    3.4035   -7.0101 H        1 ZINC000001903402    0.0800
63     H63     5.1702    6.8701   -6.5446 H        1 ZINC000001903402    0.0700
64     H64     4.1835    6.5650   -7.9943 H        1 ZINC000001903402    0.0600
65     H65     2.9089    8.5145   -9.0522 H        1 ZINC000001903402    0.1700
66     H66     4.9123   11.6379   -6.2770 H        1 ZINC000001903402    0.1700
67     H67     5.2894    9.2274   -5.5792 H        1 ZINC000001903402    0.1400
68     H68     1.6630    1.0217   -4.0116 H        1 ZINC000001903402    0.1300
@<TRIPOS>BOND
1     1     2     1
2     1     32    1
3     1     33    1
4     1     34    1
5     2     3     1
6     2     35    1
7     2     36    1
8     3     4     1
9     3     13    1
10    4     5     1
11    4     37    1
12    4     38    1
13    5     6     2
14    5     39    1
15    6     7     1
16    6     40    1
17    7     8     3
18    8     9     1
19    9     10    1
20    9     11    1
21    9     12    1
22    10    41    1
23    10    42    1
24    10    43    1
25    11    44    1
26    11    45    1
27    11    46    1
28    12    47    1
29    12    48    1
30    12    49    1
31    13    14    1
32    13    50    1
33    13    51    1
34    14    31    ar
35    14    15    ar
36    15    16    ar
37    15    52    1
38    16    17    ar
39    16    53    1
40    17    18    ar
41    17    54    1
42    18    19    1
43    18    31    ar
44    19    20    1
45    20    21    1
46    20    55    1
47    20    56    1
48    21    22    1
49    21    23    1
50    21    24    1
51    22    57    1
52    22    58    1
53    22    59    1
54    23    60    1
55    23    61    1
56    23    62    1
57    24    25    1
58    25    26    1
59    25    63    1
60    25    64    1
61    26    30    1
62    26    27    2
63    27    28    1
64    27    65    1
65    28    29    1
66    29    30    2
67    29    66    1
68    30    67    1
69    31    68    1
@<TRIPOS>SUBSTRUCTURE
1   ZINC000001903402 1     RESIDUE    1   A     ZIN   1
