@<TRIPOS>MOLECULE
ZINC000014947217
56    60    1     0     0
SMALL
USER_CHARGES
@<TRIPOS>ATOM
1      C1     -0.0184    1.5028    0.0103 C.3      1 ZINC000014947217   -0.0800
2      C2      0.0021   -0.0041    0.0020 C.2      1 ZINC000014947217    0.1100
3      N3      0.0080   -0.7653   -1.0622 N.2      1 ZINC000014947217   -0.2800
4      N4      0.0279   -2.1028   -0.6470 N.pl3    1 ZINC000014947217   -0.3600
5      C5      0.0407   -3.2766   -1.5235 C.3      1 ZINC000014947217    0.1000
6      C6      0.0337   -2.1202    0.7053 C.2      1 ZINC000014947217    0.1300
7      C7      0.0544   -3.3480    1.5789 C.3      1 ZINC000014947217   -0.1000
8      C8      0.0241   -0.8323    1.1337 C.2      1 ZINC000014947217   -0.0400
9      N9      0.0259   -0.4039    2.4762 N.am     1 ZINC000014947217   -0.4900
10     C10    -1.0812   -0.1871    3.2100 C.2      1 ZINC000014947217    0.5800
11     O11    -2.2246   -0.3280    2.8257 O.2      1 ZINC000014947217   -0.4300
12     C12    -0.6740    0.2506    4.5615 C.ar     1 ZINC000014947217   -0.1900
13     C13    -1.3567    0.6109    5.7253 C.ar     1 ZINC000014947217    0.2400
14     C14    -2.8636    0.5902    5.7342 C.3      1 ZINC000014947217   -0.1200
15     N15    -0.7118    0.9666    6.8113 N.ar     1 ZINC000014947217   -0.4600
16     C16     0.6220    1.0050    6.8664 C.ar     1 ZINC000014947217    0.2000
17     C17     1.2848    1.3901    8.0459 C.ar     1 ZINC000014947217   -0.1000
18     C18     2.6443    1.4216    8.0793 C.ar     1 ZINC000014947217   -0.0100
19     C19     3.4005    1.0772    6.9592 C.ar     1 ZINC000014947217   -0.6700
20     S20     5.1595    1.1317    7.0472 S.o2     1 ZINC000014947217    2.6900
21     O21     5.6233    1.2861    5.7129 O.2      1 ZINC000014947217   -0.9400
22     O22     5.4811    2.0397    8.0918 O.2      1 ZINC000014947217   -0.9400
23     N23     5.6716   -0.3606    7.5505 N.am     1 ZINC000014947217   -1.0000
24     C24     5.8281   -0.6647    8.9817 C.3      1 ZINC000014947217    0.0800
25     C25     5.0878   -1.9731    9.2817 C.3      1 ZINC000014947217    0.0500
26     O26     5.5242   -2.9813    8.3669 O.3      1 ZINC000014947217   -0.3700
27     C27     5.2351   -2.6932    6.9968 C.3      1 ZINC000014947217    0.0500
28     C28     5.9776   -1.4235    6.5800 C.3      1 ZINC000014947217    0.0800
29     C29     2.7972    0.6991    5.7991 C.ar     1 ZINC000014947217    0.0400
30     C30     1.3966    0.6542    5.7260 C.ar     1 ZINC000014947217   -0.0900
31     C31     0.7280    0.2694    4.5515 C.ar     1 ZINC000014947217   -0.0400
32     C32     1.1353   -0.1618    3.1993 C.2      1 ZINC000014947217    0.5700
33     O33     2.2781   -0.2771    2.8054 O.2      1 ZINC000014947217   -0.4300
34     H34     1.0042    1.8801    0.0026 H        1 ZINC000014947217    0.0800
35     H35    -0.5455    1.8639   -0.8728 H        1 ZINC000014947217    0.0800
36     H36    -0.5286    1.8543    0.9071 H        1 ZINC000014947217    0.0700
37     H37     1.0714   -3.5534   -1.7451 H        1 ZINC000014947217    0.0800
38     H38    -0.4596   -4.1073   -1.0257 H        1 ZINC000014947217    0.0900
39     H39    -0.4803   -3.0425   -2.4519 H        1 ZINC000014947217    0.1000
40     H40     1.0869   -3.6300    1.7850 H        1 ZINC000014947217    0.0900
41     H41    -0.4583   -3.1351    2.5170 H        1 ZINC000014947217    0.0800
42     H42    -0.4506   -4.1670    1.0666 H        1 ZINC000014947217    0.0800
43     H43    -3.2116   -0.3938    6.0484 H        1 ZINC000014947217    0.1000
44     H44    -3.2332    1.3450    6.4283 H        1 ZINC000014947217    0.0900
45     H45    -3.2358    0.8045    4.7324 H        1 ZINC000014947217    0.0900
46     H46     0.7155    1.6605    8.9230 H        1 ZINC000014947217    0.1600
47     H47     3.1464    1.7186    8.9882 H        1 ZINC000014947217    0.1500
48     H48     6.8858   -0.7787    9.2192 H        1 ZINC000014947217    0.0900
49     H49     5.4025    0.1428    9.5773 H        1 ZINC000014947217    0.1000
50     H50     5.3051   -2.2886   10.3022 H        1 ZINC000014947217    0.1100
51     H51     4.0148   -1.8184    9.1684 H        1 ZINC000014947217    0.0600
52     H52     5.5584   -3.5268    6.3734 H        1 ZINC000014947217    0.1100
53     H53     4.1626   -2.5412    6.8752 H        1 ZINC000014947217    0.0500
54     H54     5.6535   -1.1186    5.5849 H        1 ZINC000014947217    0.1000
55     H55     7.0514   -1.6109    6.5755 H        1 ZINC000014947217    0.0900
56     H56     3.3939    0.4351    4.9385 H        1 ZINC000014947217    0.1600
@<TRIPOS>BOND
1     1     2     1
2     1     34    1
3     1     35    1
4     1     36    1
5     2     8     1
6     2     3     2
7     3     4     1
8     4     5     1
9     4     6     1
10    5     37    1
11    5     38    1
12    5     39    1
13    6     7     1
14    6     8     2
15    7     40    1
16    7     41    1
17    7     42    1
18    8     9     1
19    9     32    am
20    9     10    am
21    10    11    2
22    10    12    1
23    12    31    ar
24    12    13    ar
25    13    14    1
26    13    15    ar
27    14    43    1
28    14    44    1
29    14    45    1
30    15    16    ar
31    16    30    ar
32    16    17    ar
33    17    18    ar
34    17    46    1
35    18    19    ar
36    18    47    1
37    19    20    1
38    19    29    ar
39    20    21    2
40    20    22    2
41    20    23    am
42    23    28    1
43    23    24    1
44    24    25    1
45    24    48    1
46    24    49    1
47    25    26    1
48    25    50    1
49    25    51    1
50    26    27    1
51    27    28    1
52    27    52    1
53    27    53    1
54    28    54    1
55    28    55    1
56    29    30    ar
57    29    56    1
58    30    31    ar
59    31    32    1
60    32    33    2
@<TRIPOS>SUBSTRUCTURE
1   ZINC000014947217 1     RESIDUE    1   A     ZIN   1
