@<TRIPOS>MOLECULE
ZINC000003816409
  50   52    0    0    0
SMALL
USER_CHARGES
NO_NAME
@<TRIPOS>ATOM
    1 C1       -0.0187     1.5258     0.0104 C.3    1 <0>      -0.1400
    2 C2        0.0021    -0.0041     0.0020 C.3    1 <0>       0.0200
    3 C3        0.7421    -0.5109     1.2415 C.3    1 <0>      -0.1400
    4 C4       -1.4333    -0.5336     0.0129 C.3    1 <0>      -0.1500
    5 C5        0.7074    -0.4901    -1.2379 C.2    1 <0>      -0.0100
    6 C6        1.9790    -0.2319    -1.5855 C.2    1 <0>      -0.0400
    7 N7        2.2153    -0.8490    -2.7568 N.2    1 <0>      -0.4500
    8 C8        1.1320    -1.4698    -3.1277 C.2    1 <0>       0.1800
    9 C9        0.9742    -2.2844    -4.3857 C.3    1 <0>      -0.0300
   10 S10       1.4250    -4.0091    -4.0499 S.3    1 <0>       0.0300
   11 C11       1.1821    -4.7931    -5.6090 C.2    1 <0>      -0.2400
   12 C12       1.3800    -6.0917    -5.8751 C.2    1 <0>       0.0900
   13 N13       1.1336    -6.4631    -7.1186 N.2    1 <0>      -0.4500
   14 C14       0.7315    -5.5440    -7.9400 C.2    1 <0>       0.2800
   15 N15       0.4232    -5.7421    -9.2830 N.am   1 <0>      -0.6300
   16 C16       0.5350    -6.9706    -9.8260 C.2    1 <0>       0.5100
   17 O17       0.9041    -7.9036    -9.1444 O.2    1 <0>      -0.4500
   18 C18       0.2013    -7.1850   -11.2798 C.3    1 <0>      -0.1200
   19 C19       1.1196    -6.3209   -12.1489 C.3    1 <0>      -0.1500
   20 C20       0.8296    -6.6028   -13.6247 C.3    1 <0>       0.0000
   21 N21       1.0733    -8.0212   -13.9128 N.4    1 <0>      -0.5100
   22 H22       0.9330    -8.1924   -14.8972 H      1 <0>       0.4400
   23 H23       2.0226    -8.2557   -13.6636 H      1 <0>       0.4300
   24 C24       0.1469    -8.8536   -13.1360 C.3    1 <0>      -0.0100
   25 C25       0.4105    -8.6584   -11.6414 C.3    1 <0>      -0.1300
   26 S26       0.6295    -4.0067    -7.0863 S.3    1 <0>       0.1000
   27 O27       0.1830    -1.2702    -2.2034 O.3    1 <0>      -0.1900
   28 H28       1.0039     1.9031     0.0027 H      1 <0>       0.0600
   29 H29      -0.5459     1.8868    -0.8726 H      1 <0>       0.0600
   30 H30      -0.5289     1.8773     0.9072 H      1 <0>       0.0800
   31 H31       0.2319    -0.1594     2.1383 H      1 <0>       0.0800
   32 H32       0.7568    -1.6008     1.2356 H      1 <0>       0.0600
   33 H33       1.7647    -0.1336     1.2338 H      1 <0>       0.0600
   34 H34      -1.9605    -0.1726    -0.8702 H      1 <0>       0.0600
   35 H35      -1.4185    -1.6235     0.0069 H      1 <0>       0.0600
   36 H36      -1.9435    -0.1821     0.9097 H      1 <0>       0.0700
   37 H37       2.6845     0.3639    -1.0254 H      1 <0>       0.1900
   38 H38      -0.0619    -2.2383    -4.7209 H      1 <0>       0.1200
   39 H39       1.6255    -1.8832    -5.1623 H      1 <0>       0.1300
   40 H40       1.7189    -6.7883    -5.1226 H      1 <0>       0.1900
   41 H41       0.1280    -4.9960    -9.8280 H      1 <0>       0.4200
   42 H42      -0.8379    -6.9097   -11.4597 H      1 <0>       0.1200
   43 H43       0.9363    -5.2676   -11.9366 H      1 <0>       0.1200
   44 H44       2.1599    -6.5614   -11.9300 H      1 <0>       0.1000
   45 H45      -0.2108    -6.3618   -13.8426 H      1 <0>       0.1400
   46 H46       1.4816    -5.9890   -14.2462 H      1 <0>       0.1400
   47 H47      -0.8790    -8.5646   -13.3643 H      1 <0>       0.1300
   48 H48       0.2948    -9.9015   -13.3967 H      1 <0>       0.1400
   49 H49       1.4362    -8.9473   -11.4119 H      1 <0>       0.1000
   50 H50      -0.2795    -9.2758   -11.0663 H      1 <0>       0.1200
@<TRIPOS>BOND
   1    1    2 1
   2    1   28 1
   3    1   29 1
   4    1   30 1
   5    2    3 1
   6    2    4 1
   7    2    5 1
   8    3   31 1
   9    3   32 1
  10    3   33 1
  11    4   34 1
  12    4   35 1
  13    4   36 1
  14    5   27 1
  15    5    6 2
  16    6    7 1
  17    6   37 1
  18    7    8 2
  19    8    9 1
  20    8   27 1
  21    9   10 1
  22    9   38 1
  23    9   39 1
  24   10   11 1
  25   11   26 1
  26   11   12 2
  27   12   13 1
  28   12   40 1
  29   13   14 2
  30   14   15 1
  31   14   26 1
  32   15   16 am
  33   15   41 1
  34   16   17 2
  35   16   18 1
  36   18   25 1
  37   18   19 1
  38   18   42 1
  39   19   20 1
  40   19   43 1
  41   19   44 1
  42   20   21 1
  43   20   45 1
  44   20   46 1
  45   21   22 1
  46   21   23 1
  47   21   24 1
  48   24   25 1
  49   24   47 1
  50   24   48 1
  51   25   49 1
  52   25   50 1
