@<TRIPOS>MOLECULE
ZINC000013587959
61    64    1     0     0
SMALL
USER_CHARGES
@<TRIPOS>ATOM
1      C1     -0.0178    1.4608    0.0101 C.3      1 ZINC000013587959    0.0900
2      N2      0.0021   -0.0041    0.0020 N.am     1 ZINC000013587959   -0.7300
3      C3      0.5851   -0.6645   -1.0180 C.2      1 ZINC000013587959    0.5600
4      O4      1.0944   -0.0447   -1.9312 O.2      1 ZINC000013587959   -0.5300
5      C5      0.6051   -2.1428   -1.0261 C.ar     1 ZINC000013587959   -0.1300
6      C6      0.0167   -2.8591    0.0171 C.ar     1 ZINC000013587959   -0.0900
7      C7      0.0386   -4.2367   -0.0019 C.ar     1 ZINC000013587959   -0.1200
8      C8      0.6430   -4.9172   -1.0494 C.ar     1 ZINC000013587959   -0.0900
9      C9      1.2305   -4.2136   -2.0825 C.ar     1 ZINC000013587959   -0.0800
10     C10     1.2070   -2.8308   -2.0791 C.ar     1 ZINC000013587959   -0.0600
11     C11     1.9071   -4.9222   -3.2285 C.3      1 ZINC000013587959   -0.1200
12     C12     1.4633   -6.3855   -3.2667 C.3      1 ZINC000013587959    0.0600
13     O13     1.5981   -6.9352   -1.9513 O.3      1 ZINC000013587959   -0.3700
14     C14     0.6368   -6.4242   -1.0286 C.3      1 ZINC000013587959    0.1300
15     H15    -0.3544   -6.7848   -1.3033 H        1 ZINC000013587959    0.0800
16     C16     0.9798   -6.9096    0.3812 C.3      1 ZINC000013587959   -0.1100
17     C17     0.8359   -8.4315    0.4456 C.3      1 ZINC000013587959    0.0600
18     N18     1.1652   -8.8976    1.7993 N.3      1 ZINC000013587959   -0.5400
19     C19     2.4019   -8.2703    2.2859 C.3      1 ZINC000013587959    0.0500
20     C20     2.6665   -8.7196    3.7249 C.3      1 ZINC000013587959    0.0500
21     N21     2.7709  -10.1849    3.7665 N.3      1 ZINC000013587959   -0.4900
22     C22     3.0826  -10.6260    5.0477 C.ar     1 ZINC000013587959    0.1500
23     C23     3.2447   -9.7052    6.0792 C.ar     1 ZINC000013587959   -0.1800
24     C24     3.5532  -10.1386    7.3483 C.ar     1 ZINC000013587959   -0.0300
25     C25     3.7034  -11.5053    7.6013 C.ar     1 ZINC000013587959   -0.1700
26     C26     4.0336  -11.9734    8.9607 C.2      1 ZINC000013587959    0.5700
27     N27     4.1781  -13.2913    9.2031 N.am     1 ZINC000013587959   -0.8500
28     O28     4.1755  -11.1702    9.8626 O.2      1 ZINC000013587959   -0.5400
29     C29     3.5395  -12.4275    6.5635 C.ar     1 ZINC000013587959   -0.0600
30     C30     3.2263  -11.9880    5.2976 C.ar     1 ZINC000013587959   -0.1500
31     C31     1.5342  -10.8121    3.2798 C.3      1 ZINC000013587959    0.0600
32     C32     1.2696  -10.3628    1.8409 C.3      1 ZINC000013587959    0.0500
33     H33     1.0048    1.8381    0.0023 H        1 ZINC000013587959    0.0600
34     H34    -0.5450    1.8219   -0.8730 H        1 ZINC000013587959    0.0600
35     H35    -0.5280    1.8123    0.9069 H        1 ZINC000013587959    0.0800
36     H36    -0.4044   -0.4986    0.7308 H        1 ZINC000013587959    0.4000
37     H37    -0.4538   -2.3357    0.8364 H        1 ZINC000013587959    0.1300
38     H38    -0.4178   -4.7911    0.8048 H        1 ZINC000013587959    0.1300
39     H39     1.6634   -2.2824   -2.8898 H        1 ZINC000013587959    0.1400
40     H40     1.6356   -4.4365   -4.1659 H        1 ZINC000013587959    0.0900
41     H41     2.9880   -4.8746   -3.0966 H        1 ZINC000013587959    0.0900
42     H42     0.4219   -6.4442   -3.5833 H        1 ZINC000013587959    0.0600
43     H43     2.0925   -6.9410   -3.9621 H        1 ZINC000013587959    0.1000
44     H44     2.0058   -6.6312    0.6217 H        1 ZINC000013587959    0.0800
45     H45     0.3007   -6.4497    1.0991 H        1 ZINC000013587959    0.0900
46     H46    -0.1901   -8.7099    0.2051 H        1 ZINC000013587959    0.0800
47     H47     1.5150   -8.8914   -0.2722 H        1 ZINC000013587959    0.0500
48     H48     3.2360   -8.5709    1.6519 H        1 ZINC000013587959    0.0500
49     H49     2.2953   -7.1859    2.2573 H        1 ZINC000013587959    0.0900
50     H50     3.5986   -8.2784    4.0779 H        1 ZINC000013587959    0.0900
51     H51     1.8453   -8.3952    4.3640 H        1 ZINC000013587959    0.0600
52     H52     3.1286   -8.6495    5.8831 H        1 ZINC000013587959    0.1400
53     H53     3.6795   -9.4238    8.1479 H        1 ZINC000013587959    0.1400
54     H54     4.0649  -13.9320    8.4837 H        1 ZINC000013587959    0.4000
55     H55     4.3952  -13.5991   10.0970 H        1 ZINC000013587959    0.4100
56     H56     3.6549  -13.4839    6.7558 H        1 ZINC000013587959    0.1300
57     H57     3.0996  -12.7000    4.4954 H        1 ZINC000013587959    0.1300
58     H58     1.6408  -11.8965    3.3084 H        1 ZINC000013587959    0.0900
59     H59     0.7001  -10.5115    3.9139 H        1 ZINC000013587959    0.0600
60     H60     0.3375  -10.8040    1.4878 H        1 ZINC000013587959    0.0900
61     H61     2.0908  -10.6872    1.2018 H        1 ZINC000013587959    0.0500
@<TRIPOS>BOND
1     1     2     1
2     1     33    1
3     1     34    1
4     1     35    1
5     2     3     am
6     2     36    1
7     3     4     2
8     3     5     1
9     5     10    ar
10    5     6     ar
11    6     7     ar
12    6     37    1
13    7     8     ar
14    7     38    1
15    8     14    1
16    8     9     ar
17    9     10    ar
18    9     11    1
19    10    39    1
20    11    12    1
21    11    40    1
22    11    41    1
23    12    13    1
24    12    42    1
25    12    43    1
26    13    14    1
27    14    15    1
28    14    16    1
29    16    17    1
30    16    44    1
31    16    45    1
32    17    18    1
33    17    46    1
34    17    47    1
35    18    32    1
36    18    19    1
37    19    20    1
38    19    48    1
39    19    49    1
40    20    21    1
41    20    50    1
42    20    51    1
43    21    22    1
44    21    31    1
45    22    30    ar
46    22    23    ar
47    23    24    ar
48    23    52    1
49    24    25    ar
50    24    53    1
51    25    26    1
52    25    29    ar
53    26    27    am
54    26    28    2
55    27    54    1
56    27    55    1
57    29    30    ar
58    29    56    1
59    30    57    1
60    31    32    1
61    31    58    1
62    31    59    1
63    32    60    1
64    32    61    1
@<TRIPOS>SUBSTRUCTURE
1   ZINC000013587959 1     RESIDUE    1   A     ZIN   1
