@<TRIPOS>MOLECULE
ZINC000100016113
27    27    1     0     0
SMALL
USER_CHARGES
@<TRIPOS>ATOM
1      C1     -0.0173    1.4248    0.0099 C.3      1 ZINC000100016113    0.0300
2      O2      0.0021   -0.0041    0.0020 O.3      1 ZINC000100016113   -0.3700
3      C3      0.6734   -0.5824    1.1231 C.3      1 ZINC000100016113    0.1100
4      H4      1.4595    0.0917    1.4633 H        1 ZINC000100016113    0.0800
5      C5     -0.3292   -0.8097    2.2563 C.3      1 ZINC000100016113    0.1000
6      H6     -1.1153   -1.4838    1.9161 H        1 ZINC000100016113    0.0800
7      O7     -0.9063    0.4401    2.6395 O.3      1 ZINC000100016113   -0.5600
8      C8      0.3896   -1.4289    3.4566 C.3      1 ZINC000100016113    0.0800
9      H9      1.1757   -0.7548    3.7968 H        1 ZINC000100016113    0.0900
10     O10    -0.5469   -1.6412    4.5150 O.3      1 ZINC000100016113   -0.5500
11     C11     1.0075   -2.7671    3.0463 C.3      1 ZINC000100016113    0.0400
12     H12     1.5195   -3.2083    3.9015 H        1 ZINC000100016113    0.0700
13     O13    -0.0231   -3.6509    2.6004 O.3      1 ZINC000100016113   -0.5400
14     C14     2.0101   -2.5398    1.9132 C.3      1 ZINC000100016113    0.0400
15     H15     2.4503   -3.4932    1.6209 H        1 ZINC000100016113    0.0700
16     O16     3.0407   -1.6561    2.3591 O.3      1 ZINC000100016113   -0.5400
17     C17     1.2913   -1.9206    0.7128 C.3      1 ZINC000100016113    0.1200
18     H18     0.5052   -2.5947    0.3727 H        1 ZINC000100016113    0.0900
19     O19     2.2277   -1.7083   -0.3455 O.3      1 ZINC000100016113   -0.5400
20     H20     1.0053    1.8021    0.0021 H        1 ZINC000100016113    0.0400
21     H21    -0.5445    1.7859   -0.8732 H        1 ZINC000100016113    0.0800
22     H22    -0.5275    1.7763    0.9067 H        1 ZINC000100016113    0.0600
23     H23    -1.5531    0.3718    3.3552 H        1 ZINC000100016113    0.3900
24     H24    -0.1597   -2.0325    5.3101 H        1 ZINC000100016113    0.3800
25     H25     0.2969   -4.5205    2.3239 H        1 ZINC000100016113    0.3800
26     H26     3.5393   -1.9852    3.1195 H        1 ZINC000100016113    0.3800
27     H27     2.6592   -2.5158   -0.6568 H        1 ZINC000100016113    0.3800
@<TRIPOS>BOND
1     1     2     1
2     1     20    1
3     1     21    1
4     1     22    1
5     2     3     1
6     3     4     1
7     3     17    1
8     3     5     1
9     5     6     1
10    5     7     1
11    5     8     1
12    7     23    1
13    8     9     1
14    8     10    1
15    8     11    1
16    10    24    1
17    11    12    1
18    11    13    1
19    11    14    1
20    13    25    1
21    14    15    1
22    14    16    1
23    14    17    1
24    16    26    1
25    17    18    1
26    17    19    1
27    19    27    1
@<TRIPOS>SUBSTRUCTURE
1   ZINC000100016113 1     RESIDUE    1   A     ZIN   1
