@<TRIPOS>MOLECULE
ZINC000253661026
62    64    1     0     0
SMALL
USER_CHARGES
@<TRIPOS>ATOM
1      C1      0.7276    1.4911   -1.4456 C.3      1 ZINC000253661026   -0.1900
2      C2      0.6019    0.0103   -1.0818 C.3      1 ZINC000253661026   -0.0100
3      N3      1.2452   -0.8054   -2.1204 N.4      1 ZINC000253661026   -0.2500
4      C4      1.2210   -2.2181   -1.7184 C.3      1 ZINC000253661026   -0.0600
5      C5      0.5205   -0.6446   -3.3881 C.3      1 ZINC000253661026    0.0300
6      C6     -0.9381   -0.9586   -3.1763 C.2      1 ZINC000253661026   -0.3000
7      C7     -1.8696   -0.0629   -3.5127 C.2      1 ZINC000253661026    0.0400
8      C8     -3.2840   -0.3675   -3.3073 C.2      1 ZINC000253661026   -0.2400
9      C9     -4.1637    0.5476   -3.7659 C.2      1 ZINC000253661026    0.2100
10     C10    -3.6807    1.7987   -4.3527 C.2      1 ZINC000253661026    0.5200
11     O11    -3.5419    1.8927   -5.5660 O.co2    1 ZINC000253661026   -0.6500
12     O12    -3.4153    2.7516   -3.6304 O.co2    1 ZINC000253661026   -0.6600
13     N13    -5.5379    0.2987   -3.6802 N.am     1 ZINC000253661026   -0.5600
14     C14    -6.7026    0.6063   -4.2376 C.2      1 ZINC000253661026    0.5200
15     O15    -7.0511    1.5362   -4.9340 O.2      1 ZINC000253661026   -0.4400
16     C16    -7.4459   -0.5978   -3.7081 C.3      1 ZINC000253661026    0.1400
17     H17    -8.3692   -0.3607   -3.1795 H        1 ZINC000253661026    0.1600
18     N18    -7.5906   -1.6920   -4.6714 N.am     1 ZINC000253661026   -0.6800
19     C19    -8.7772   -1.9076   -5.2731 C.2      1 ZINC000253661026    0.5400
20     O20    -9.7007   -1.1398   -5.0879 O.2      1 ZINC000253661026   -0.4800
21     C21    -8.9556   -3.0805   -6.1601 C.2      1 ZINC000253661026    0.1800
22     N22   -10.0591   -3.2241   -6.8351 N.2      1 ZINC000253661026   -0.2000
23     O23   -11.0427   -2.2058   -6.8090 O.3      1 ZINC000253661026   -0.2100
24     C24   -12.2009   -2.4961   -7.5940 C.3      1 ZINC000253661026    0.2400
25     F25   -13.1058   -1.4332   -7.5009 F        1 ZINC000253661026   -0.1800
26     C26    -7.8781   -4.0899   -6.2788 C.2      1 ZINC000253661026    0.3600
27     N27    -6.8100   -4.0369   -5.5219 N.2      1 ZINC000253661026   -0.4800
28     S28    -5.8515   -5.3622   -5.9823 S.3      1 ZINC000253661026    0.2600
29     C29    -6.9521   -5.9233   -7.1827 C.2      1 ZINC000253661026    0.3400
30     N30    -6.8085   -7.0274   -8.0027 N.pl3    1 ZINC000253661026   -0.7800
31     N31    -7.9598   -5.0814   -7.1482 N.2      1 ZINC000253661026   -0.5500
32     C32    -6.2212   -0.7031   -2.8164 C.3      1 ZINC000253661026    0.1100
33     H33    -6.3832   -0.3834   -1.7870 H        1 ZINC000253661026    0.1500
34     S34    -5.2809   -2.2592   -2.9596 S.3      1 ZINC000253661026   -0.2100
35     C35    -3.5882   -1.6582   -2.6195 C.3      1 ZINC000253661026   -0.0200
36     C36     2.6372   -0.3692   -2.2934 C.3      1 ZINC000253661026   -0.0400
37     C37     3.3124   -1.2399   -3.3215 C.2      1 ZINC000253661026    0.5100
38     N38     4.6332   -1.1070   -3.5545 N.am     1 ZINC000253661026   -0.8300
39     O39     2.6672   -2.0602   -3.9394 O.2      1 ZINC000253661026   -0.5200
40     H40     1.7816    1.7594   -1.5173 H        1 ZINC000253661026    0.0700
41     H41     0.2404    1.6725   -2.4036 H        1 ZINC000253661026    0.0900
42     H42     0.2503    2.0964   -0.6749 H        1 ZINC000253661026    0.1100
43     H43     1.0890   -0.1711   -0.1237 H        1 ZINC000253661026    0.1200
44     H44    -0.4522   -0.2580   -1.0100 H        1 ZINC000253661026    0.1400
45     H45     0.1884   -2.5628   -1.6642 H        1 ZINC000253661026    0.1200
46     H46     1.7649   -2.8138   -2.4515 H        1 ZINC000253661026    0.1400
47     H47     1.6918   -2.3259   -0.7413 H        1 ZINC000253661026    0.1100
48     H48     0.6240    0.3826   -3.7379 H        1 ZINC000253661026    0.1200
49     H49     0.9344   -1.3252   -4.1321 H        1 ZINC000253661026    0.1500
50     H50    -1.2300   -1.9080   -2.7523 H        1 ZINC000253661026    0.1300
51     H51    -1.5777    0.8865   -3.9367 H        1 ZINC000253661026    0.1300
52     H52    -6.8324   -2.2613   -4.8762 H        1 ZINC000253661026    0.4300
53     H53   -11.9089   -2.6346   -8.6350 H        1 ZINC000253661026    0.0800
54     H54   -12.6714   -3.4072   -7.2243 H        1 ZINC000253661026    0.0800
55     H55    -6.0159   -7.5824   -7.9344 H        1 ZINC000253661026    0.4300
56     H56    -7.5003   -7.2469   -8.6462 H        1 ZINC000253661026    0.4200
57     H57    -2.8730   -2.4180   -2.9348 H        1 ZINC000253661026    0.1200
58     H58    -3.4793   -1.4956   -1.5472 H        1 ZINC000253661026    0.0900
59     H59     2.6541    0.6680   -2.6281 H        1 ZINC000253661026    0.1600
60     H60     3.1649   -0.4530   -1.3433 H        1 ZINC000253661026    0.1500
61     H61     5.1492   -0.4509   -3.0603 H        1 ZINC000253661026    0.4100
62     H62     5.0678   -1.6674   -4.2163 H        1 ZINC000253661026    0.4200
@<TRIPOS>BOND
1     1     2     1
2     1     40    1
3     1     41    1
4     1     42    1
5     2     3     1
6     2     43    1
7     2     44    1
8     3     4     1
9     3     5     1
10    3     36    1
11    4     45    1
12    4     46    1
13    4     47    1
14    5     6     1
15    5     48    1
16    5     49    1
17    6     7     2
18    6     50    1
19    7     8     1
20    7     51    1
21    8     35    1
22    8     9     2
23    9     10    1
24    9     13    1
25    10    11    ar
26    10    12    ar
27    13    32    1
28    13    14    am
29    14    15    2
30    14    16    1
31    16    17    1
32    16    18    1
33    16    32    1
34    18    19    am
35    18    52    1
36    19    20    2
37    19    21    1
38    21    22    2
39    21    26    1
40    22    23    1
41    23    24    1
42    24    25    1
43    24    53    1
44    24    54    1
45    26    31    1
46    26    27    2
47    27    28    1
48    28    29    1
49    29    30    1
50    29    31    2
51    30    55    1
52    30    56    1
53    32    33    1
54    32    34    1
55    34    35    1
56    35    57    1
57    35    58    1
58    36    37    1
59    36    59    1
60    36    60    1
61    37    38    am
62    37    39    2
63    38    61    1
64    38    62    1
@<TRIPOS>SUBSTRUCTURE
1   ZINC000253661026 1     RESIDUE    1   A     ZIN   1
