@<TRIPOS>MOLECULE
ZINC000001532560
  25   24    0    0    0
SMALL
USER_CHARGES
NO_NAME
@<TRIPOS>ATOM
    1 N1       -0.0160     1.3277     0.0093 N.pl3  1 <0>      -0.7900
    2 C2        0.0021    -0.0041     0.0020 C.cat  1 <0>       0.7500
    3 N3        1.1645    -0.6543    -0.0126 N.pl3  1 <0>      -0.7900
    4 H4        1.1776    -1.6242    -0.0179 H      1 <0>       0.4400
    5 H5        1.9978    -0.1579    -0.0179 H      1 <0>       0.4500
    6 N6       -1.1731    -0.7040     0.0095 N.pl3  1 <0>      -0.7000
    7 C7       -2.4516     0.0111     0.0255 C.3    1 <0>       0.1000
    8 C8       -3.6008    -0.9989     0.0311 C.3    1 <0>      -0.1300
    9 C9       -4.9360    -0.2520     0.0478 C.3    1 <0>      -0.1500
   10 C10      -6.0853    -1.2619     0.0534 C.3    1 <0>      -0.0100
   11 N11      -7.3673    -0.5448     0.0695 N.4    1 <0>      -0.6400
   12 H12      -8.1252    -1.2109     0.0731 H      1 <0>       0.4400
   13 H13      -7.4207     0.0300     0.8970 H      1 <0>       0.4400
   14 H14      -7.4365     0.0389    -0.7506 H      1 <0>       0.4400
   15 H15       0.8174     1.8241     0.0041 H      1 <0>       0.4400
   16 H16      -0.8625     1.8013     0.0159 H      1 <0>       0.4400
   17 H17      -1.1599    -1.6739     0.0041 H      1 <0>       0.4400
   18 H18      -2.5093     0.6321     0.9194 H      1 <0>       0.0900
   19 H19      -2.5263     0.6417    -0.8604 H      1 <0>       0.0900
   20 H20      -3.5431    -1.6199    -0.8628 H      1 <0>       0.0900
   21 H21      -3.5261    -1.6294     0.9170 H      1 <0>       0.0900
   22 H22      -4.9938     0.3691     0.9418 H      1 <0>       0.1000
   23 H23      -5.0108     0.3786    -0.8381 H      1 <0>       0.1000
   24 H24      -6.0276    -1.8830    -0.8405 H      1 <0>       0.1400
   25 H25      -6.0106    -1.8925     0.9393 H      1 <0>       0.1400
@<TRIPOS>BOND
   1    1    2 ar
   2    1   15 1
   3    1   16 1
   4    2    3 ar
   5    2    6 ar
   6    3    4 1
   7    3    5 1
   8    6    7 1
   9    6   17 1
  10    7    8 1
  11    7   18 1
  12    7   19 1
  13    8    9 1
  14    8   20 1
  15    8   21 1
  16    9   10 1
  17    9   22 1
  18    9   23 1
  19   10   11 1
  20   10   24 1
  21   10   25 1
  22   11   12 1
  23   11   13 1
  24   11   14 1
