@<TRIPOS>MOLECULE
ZINC000003928701
57    59    1     0     0
SMALL
USER_CHARGES
@<TRIPOS>ATOM
1      C1     -0.0284    1.4287   -1.5426 C.3      1 ZINC000003928701   -0.1800
2      C2     -0.0276   -0.0642   -1.3370 C.2      1 ZINC000003928701    0.3000
3      O3      0.9805   -0.7052   -1.5488 O.2      1 ZINC000003928701   -0.4600
4      S4     -1.4493   -0.8556   -0.8046 S.3      1 ZINC000003928701   -0.0400
5      C5     -0.8073   -2.5318   -0.5713 C.3      1 ZINC000003928701   -0.1000
6      H6     -0.0558   -2.7422   -1.3324 H        1 ZINC000003928701    0.1200
7      C7     -1.9357   -3.5233   -0.6920 C.2      1 ZINC000003928701    0.5200
8      O8     -3.0824   -3.1583   -0.5407 O.2      1 ZINC000003928701   -0.4800
9      N9     -1.6707   -4.8156   -0.9680 N.am     1 ZINC000003928701   -0.7200
10     C10    -2.7704   -5.7568   -1.1936 C.3      1 ZINC000003928701    0.1600
11     H11    -3.5617   -5.2033   -1.6991 H        1 ZINC000003928701    0.1200
12     C12    -2.2815   -6.7837   -2.1385 C.3      1 ZINC000003928701   -0.0900
13     C13    -1.5168   -7.9682   -1.6439 C.ar     1 ZINC000003928701   -0.0600
14     C14    -1.1150   -8.8145   -2.6915 C.ar     1 ZINC000003928701   -0.1300
15     C15    -0.3922   -9.9599   -2.4829 C.ar     1 ZINC000003928701   -0.1200
16     C16    -0.0362  -10.3051   -1.1921 C.ar     1 ZINC000003928701   -0.1200
17     C17    -0.4250   -9.4909   -0.1588 C.ar     1 ZINC000003928701   -0.1100
18     C18    -1.1720   -8.3216   -0.3621 C.ar     1 ZINC000003928701   -0.0400
19     C19    -1.5146   -7.6003    0.8707 C.3      1 ZINC000003928701    0.1300
20     H20    -1.6866   -8.4453    1.5374 H        1 ZINC000003928701    0.0600
21     C21    -0.4640   -6.8840    1.6845 C.3      1 ZINC000003928701   -0.1100
22     C22    -0.9419   -6.9274    3.1498 C.3      1 ZINC000003928701   -0.1200
23     C23    -2.3460   -6.3510    3.3009 C.3      1 ZINC000003928701   -0.1200
24     C24    -3.3643   -7.0715    2.3973 C.3      1 ZINC000003928701    0.0800
25     H25    -3.4492   -8.1200    2.6826 H        1 ZINC000003928701    0.0700
26     C26    -4.7089   -6.3961    2.4803 C.2      1 ZINC000003928701    0.5200
27     O27    -4.7762   -5.1867    2.6189 O.co2    1 ZINC000003928701   -0.6700
28     O28    -5.7296   -7.0592    2.4087 O.co2    1 ZINC000003928701   -0.7100
29     N29    -2.8024   -6.9420    1.0238 N.am     1 ZINC000003928701   -0.5500
30     C30    -3.2842   -6.1458    0.1193 C.2      1 ZINC000003928701    0.4700
31     O31    -4.3458   -5.6377    0.4119 O.2      1 ZINC000003928701   -0.4700
32     C32    -0.1736   -2.6467    0.8165 C.3      1 ZINC000003928701   -0.0800
33     C33     1.0590   -1.7433    0.8908 C.3      1 ZINC000003928701   -0.1500
34     C34    -1.1876   -2.2142    1.8775 C.3      1 ZINC000003928701   -0.1600
35     H35     0.9571    1.7495   -1.8803 H        1 ZINC000003928701    0.0900
36     H36    -0.7732    1.6917   -2.2937 H        1 ZINC000003928701    0.1000
37     H37    -0.2696    1.9248   -0.6025 H        1 ZINC000003928701    0.1000
38     H38    -0.7519   -5.1224   -1.0173 H        1 ZINC000003928701    0.4000
39     H39    -3.1484   -7.1627   -2.6797 H        1 ZINC000003928701    0.0900
40     H40    -1.6521   -6.2758   -2.8692 H        1 ZINC000003928701    0.0900
41     H41    -1.3876   -8.5514   -3.7029 H        1 ZINC000003928701    0.1200
42     H42    -0.1047  -10.5848   -3.3155 H        1 ZINC000003928701    0.1200
43     H43     0.5375  -11.2000   -1.0008 H        1 ZINC000003928701    0.1200
44     H44    -0.1458   -9.7608    0.8490 H        1 ZINC000003928701    0.1200
45     H45     0.4947   -7.3937    1.5888 H        1 ZINC000003928701    0.0700
46     H46    -0.3737   -5.8501    1.3513 H        1 ZINC000003928701    0.0600
47     H47    -0.9433   -7.9619    3.4930 H        1 ZINC000003928701    0.0600
48     H48    -0.2524   -6.3505    3.7661 H        1 ZINC000003928701    0.0600
49     H49    -2.6606   -6.4510    4.3397 H        1 ZINC000003928701    0.0600
50     H50    -2.3252   -5.2932    3.0385 H        1 ZINC000003928701    0.0700
51     H51     0.1221   -3.6802    0.9965 H        1 ZINC000003928701    0.0800
52     H52     0.7530   -0.7021    0.7889 H        1 ZINC000003928701    0.0500
53     H53     1.5552   -1.8838    1.8511 H        1 ZINC000003928701    0.0600
54     H54     1.7469   -2.0003    0.0853 H        1 ZINC000003928701    0.0700
55     H55    -2.0291   -2.9069    1.8796 H        1 ZINC000003928701    0.0700
56     H56    -0.7115   -2.2179    2.8580 H        1 ZINC000003928701    0.0600
57     H57    -1.5446   -1.2096    1.6508 H        1 ZINC000003928701    0.0700
@<TRIPOS>BOND
1     1     2     1
2     1     35    1
3     1     36    1
4     1     37    1
5     2     3     2
6     2     4     1
7     4     5     1
8     5     6     1
9     5     7     1
10    5     32    1
11    7     8     2
12    7     9     am
13    9     10    1
14    9     38    1
15    10    11    1
16    10    30    1
17    10    12    1
18    12    13    1
19    12    39    1
20    12    40    1
21    13    18    ar
22    13    14    ar
23    14    15    ar
24    14    41    1
25    15    16    ar
26    15    42    1
27    16    17    ar
28    16    43    1
29    17    18    ar
30    17    44    1
31    18    19    1
32    19    20    1
33    19    29    1
34    19    21    1
35    21    22    1
36    21    45    1
37    21    46    1
38    22    23    1
39    22    47    1
40    22    48    1
41    23    24    1
42    23    49    1
43    23    50    1
44    24    25    1
45    24    26    1
46    24    29    1
47    26    27    ar
48    26    28    ar
49    29    30    am
50    30    31    2
51    32    33    1
52    32    34    1
53    32    51    1
54    33    52    1
55    33    53    1
56    33    54    1
57    34    55    1
58    34    56    1
59    34    57    1
@<TRIPOS>SUBSTRUCTURE
1   ZINC000003928701 1     RESIDUE    1   A     ZIN   1
