@<TRIPOS>MOLECULE
ZINC000043152558
57    58    1     0     0
SMALL
USER_CHARGES
@<TRIPOS>ATOM
1      C1      0.7292   -0.1392    0.2066 C.3      1 ZINC000043152558   -0.1600
2      C2      0.5700   -1.6187   -0.1493 C.3      1 ZINC000043152558   -0.1300
3      C3     -0.9114   -1.9982   -0.1014 C.3      1 ZINC000043152558   -0.1100
4      C4     -1.0707   -3.4777   -0.4573 C.3      1 ZINC000043152558   -0.0500
5      C5     -2.5298   -3.8514   -0.4102 C.2      1 ZINC000043152558    0.2900
6      N6     -3.1528   -4.2892    0.6444 N.2      1 ZINC000043152558   -0.4600
7      C7     -4.4547   -4.5280    0.3376 C.ar     1 ZINC000043152558    0.0500
8      C8     -5.5432   -4.9949    1.0717 C.ar     1 ZINC000043152558   -0.0200
9      C9     -6.7825   -5.1335    0.4486 C.ar     1 ZINC000043152558   -0.0800
10     C10    -7.9381   -5.6249    1.2144 C.2      1 ZINC000043152558   -0.0100
11     C11    -9.1382   -5.7596    0.6127 C.2      1 ZINC000043152558   -0.2000
12     C12   -10.2876   -6.2484    1.3744 C.2      1 ZINC000043152558    0.5600
13     O13   -10.1613   -6.5336    2.5509 O.2      1 ZINC000043152558   -0.5200
14     N14   -11.4864   -6.3829    0.7734 N.am     1 ZINC000043152558   -0.5900
15     O15   -12.5989   -6.8560    1.5106 O.3      1 ZINC000043152558   -0.3100
16     C16    -6.9299   -4.8046   -0.9076 C.ar     1 ZINC000043152558   -0.0700
17     C17    -5.8651   -4.3475   -1.6275 C.ar     1 ZINC000043152558   -0.1200
18     C18    -4.6217   -4.2032   -1.0216 C.ar     1 ZINC000043152558    0.0500
19     N19    -3.3882   -3.7743   -1.4633 N.pl3    1 ZINC000043152558   -0.4900
20     C20    -3.0613   -3.3212   -2.8175 C.3      1 ZINC000043152558    0.0900
21     C21    -3.2854   -1.8111   -2.9181 C.3      1 ZINC000043152558   -0.0400
22     N22    -2.9575   -1.3568   -4.2761 N.4      1 ZINC000043152558   -0.3800
23     H23    -2.0173   -1.6402   -4.5077 H        1 ZINC000043152558    0.4200
24     C24    -3.8988   -1.9539   -5.2329 C.3      1 ZINC000043152558   -0.0200
25     C25    -3.4723   -1.5970   -6.6582 C.3      1 ZINC000043152558   -0.1900
26     C26    -3.0573    0.1074   -4.3400 C.3      1 ZINC000043152558   -0.0100
27     C27    -1.9804    0.7314   -3.4502 C.3      1 ZINC000043152558   -0.1900
28     H28     1.7846    0.1311    0.1725 H        1 ZINC000043152558    0.0600
29     H29     0.1753    0.4683   -0.5091 H        1 ZINC000043152558    0.0500
30     H30     0.3412    0.0370    1.2098 H        1 ZINC000043152558    0.0600
31     H31     0.9580   -1.7949   -1.1525 H        1 ZINC000043152558    0.0600
32     H32     1.1239   -2.2262    0.5664 H        1 ZINC000043152558    0.0700
33     H33    -1.2994   -1.8220    0.9018 H        1 ZINC000043152558    0.0800
34     H34    -1.4654   -1.3907   -0.8171 H        1 ZINC000043152558    0.0500
35     H35    -0.6827   -3.6539   -1.4605 H        1 ZINC000043152558    0.0800
36     H36    -0.5167   -4.0852    0.2584 H        1 ZINC000043152558    0.1100
37     H37    -5.4275   -5.2477    2.1153 H        1 ZINC000043152558    0.1400
38     H38    -7.8260   -5.8780    2.2583 H        1 ZINC000043152558    0.1400
39     H39    -9.2503   -5.5065   -0.4312 H        1 ZINC000043152558    0.1300
40     H40   -11.5871   -6.1556   -0.1642 H        1 ZINC000043152558    0.4100
41     H41   -13.4146   -6.9188    0.9950 H        1 ZINC000043152558    0.3900
42     H42    -7.8926   -4.9145   -1.3847 H        1 ZINC000043152558    0.1400
43     H43    -5.9881   -4.0969   -2.6708 H        1 ZINC000043152558    0.1200
44     H44    -2.0177   -3.5489   -3.0348 H        1 ZINC000043152558    0.1200
45     H45    -3.7019   -3.8323   -3.5363 H        1 ZINC000043152558    0.1100
46     H46    -4.3290   -1.5834   -2.7009 H        1 ZINC000043152558    0.1400
47     H47    -2.6448   -1.3000   -2.1994 H        1 ZINC000043152558    0.1400
48     H48    -3.8990   -3.0375   -5.1142 H        1 ZINC000043152558    0.1300
49     H49    -4.9008   -1.5678   -5.0460 H        1 ZINC000043152558    0.1300
50     H50    -4.1058   -2.1260   -7.3702 H        1 ZINC000043152558    0.1100
51     H51    -3.5743   -0.5224   -6.8096 H        1 ZINC000043152558    0.0800
52     H52    -2.4330   -1.8883   -6.8102 H        1 ZINC000043152558    0.0800
53     H53    -2.9140    0.4368   -5.3691 H        1 ZINC000043152558    0.1400
54     H54    -4.0419    0.4200   -3.9922 H        1 ZINC000043152558    0.1300
55     H55    -2.1880    0.4929   -2.4070 H        1 ZINC000043152558    0.0800
56     H56    -1.0045    0.3324   -3.7268 H        1 ZINC000043152558    0.0800
57     H57    -1.9814    1.8133   -3.5827 H        1 ZINC000043152558    0.1100
@<TRIPOS>BOND
1     1     2     1
2     1     28    1
3     1     29    1
4     1     30    1
5     2     3     1
6     2     31    1
7     2     32    1
8     3     4     1
9     3     33    1
10    3     34    1
11    4     5     1
12    4     35    1
13    4     36    1
14    5     19    1
15    5     6     2
16    6     7     1
17    7     18    ar
18    7     8     ar
19    8     9     ar
20    8     37    1
21    9     10    1
22    9     16    ar
23    10    11    2
24    10    38    1
25    11    12    1
26    11    39    1
27    12    13    2
28    12    14    am
29    14    15    1
30    14    40    1
31    15    41    1
32    16    17    ar
33    16    42    1
34    17    18    ar
35    17    43    1
36    18    19    1
37    19    20    1
38    20    21    1
39    20    44    1
40    20    45    1
41    21    22    1
42    21    46    1
43    21    47    1
44    22    23    1
45    22    24    1
46    22    26    1
47    24    25    1
48    24    48    1
49    24    49    1
50    25    50    1
51    25    51    1
52    25    52    1
53    26    27    1
54    26    53    1
55    26    54    1
56    27    55    1
57    27    56    1
58    27    57    1
@<TRIPOS>SUBSTRUCTURE
1   ZINC000043152558 1     RESIDUE    1   A     ZIN   1
