@<TRIPOS>MOLECULE
ZINC000053294258
56    58    1     0     0
SMALL
USER_CHARGES
@<TRIPOS>ATOM
1      C1     -2.8713    3.1684   -1.4901 C.3      1 ZINC000053294258   -0.1900
2      C2     -1.9862    2.1819   -0.7258 C.3      1 ZINC000053294258    0.0300
3      H3     -1.0935    1.9648   -1.3124 H        1 ZINC000053294258    0.1200
4      O4     -2.7106    0.9718   -0.4954 O.3      1 ZINC000053294258   -0.2700
5      C5     -2.7131    0.0555   -1.4957 C.ar     1 ZINC000053294258    0.2300
6      C6     -2.0043    0.2967   -2.6629 C.ar     1 ZINC000053294258   -0.2300
7      C7     -2.0082   -0.6368   -3.6805 C.ar     1 ZINC000053294258    0.0400
8      C8     -2.7175   -1.8187   -3.5446 C.ar     1 ZINC000053294258   -0.7000
9      S9     -2.7126   -2.9998   -4.8520 S.o2     1 ZINC000053294258    2.5000
10     C10    -1.2957   -4.0724   -4.4878 C.3      1 ZINC000053294258   -0.6500
11     O11    -3.9317   -3.7108   -4.6865 O.2      1 ZINC000053294258   -0.9300
12     O12    -2.4670   -2.2287   -6.0200 O.2      1 ZINC000053294258   -0.9300
13     C13    -3.4268   -2.0752   -2.3910 C.ar     1 ZINC000053294258    0.0400
14     C14    -3.4275   -1.1419   -1.3519 C.ar     1 ZINC000053294258   -0.1800
15     C15    -4.1842   -1.4103   -0.1141 C.2      1 ZINC000053294258    0.5700
16     O16    -3.6633   -1.2260    0.9690 O.2      1 ZINC000053294258   -0.5100
17     N17    -5.4529   -1.8597   -0.1839 N.am     1 ZINC000053294258   -0.6100
18     C18    -6.1870   -2.2401    1.0325 C.3      1 ZINC000053294258    0.1100
19     C19    -7.5386   -1.5180    1.0312 C.3      1 ZINC000053294258    0.0500
20     N20    -8.2384   -1.7977   -0.2297 N.3      1 ZINC000053294258   -0.4700
21     C21    -9.5354   -1.2945   -0.2025 C.ar     1 ZINC000053294258    0.3200
22     N22    -9.9698   -0.6585    0.8737 N.ar     1 ZINC000053294258   -0.4900
23     C23   -11.1926   -0.1655    0.9404 C.ar     1 ZINC000053294258    0.1800
24     C24   -12.0685   -0.2973   -0.1176 C.ar     1 ZINC000053294258   -0.2400
25     C25   -13.4616    0.2705   -0.0274 C.3      1 ZINC000053294258    0.5200
26     F26   -13.6358    0.8827    1.2184 F        1 ZINC000053294258   -0.1700
27     F27   -13.6463    1.2161   -1.0417 F        1 ZINC000053294258   -0.1700
28     F28   -14.3957   -0.7604   -0.1751 F        1 ZINC000053294258   -0.1700
29     C29   -11.6535   -0.9580   -1.2668 C.ar     1 ZINC000053294258   -0.0300
30     C30   -10.3638   -1.4596   -1.3107 C.ar     1 ZINC000053294258    0.0300
31     F31    -9.9182   -2.1086   -2.4086 F        1 ZINC000053294258   -0.1100
32     C32    -7.4934   -1.2709   -1.3809 C.3      1 ZINC000053294258    0.0300
33     C33    -6.1421   -1.9771   -1.4779 C.3      1 ZINC000053294258    0.1000
34     C34    -1.5786    2.7955    0.6152 C.3      1 ZINC000053294258    0.4700
35     F35    -2.7244    3.0740    1.3680 F        1 ZINC000053294258   -0.1700
36     F36    -0.7693    1.8934    1.3140 F        1 ZINC000053294258   -0.1700
37     F37    -0.8695    3.9801    0.3896 F        1 ZINC000053294258   -0.1700
38     H38    -2.3188    4.0914   -1.6659 H        1 ZINC000053294258    0.1000
39     H39    -3.1617    2.7312   -2.4455 H        1 ZINC000053294258    0.0900
40     H40    -3.7640    3.3854   -0.9036 H        1 ZINC000053294258    0.0900
41     H41    -1.4488    1.2159   -2.7763 H        1 ZINC000053294258    0.1500
42     H42    -1.4551   -0.4441   -4.5879 H        1 ZINC000053294258    0.1600
43     H43    -1.4369   -4.5430   -3.5148 H        1 ZINC000053294258    0.1300
44     H44    -1.2158   -4.8420   -5.2555 H        1 ZINC000053294258    0.1400
45     H45    -0.3830   -3.4766   -4.4743 H        1 ZINC000053294258    0.1300
46     H46    -3.9784   -2.9981   -2.2893 H        1 ZINC000053294258    0.1600
47     H47    -6.3479   -3.3181    1.0411 H        1 ZINC000053294258    0.0800
48     H48    -5.6153   -1.9454    1.9125 H        1 ZINC000053294258    0.1100
49     H49    -8.1410   -1.8720    1.8678 H        1 ZINC000053294258    0.1100
50     H50    -7.3774   -0.4442    1.1272 H        1 ZINC000053294258    0.0600
51     H51   -11.5119    0.3476    1.8355 H        1 ZINC000053294258    0.1800
52     H52   -12.3202   -1.0742   -2.1084 H        1 ZINC000053294258    0.1600
53     H53    -8.0630   -1.4457   -2.2937 H        1 ZINC000053294258    0.1100
54     H54    -7.3328   -0.2006   -1.2513 H        1 ZINC000053294258    0.0600
55     H55    -5.5406   -1.5112   -2.2585 H        1 ZINC000053294258    0.1000
56     H56    -6.2955   -3.0310   -1.7100 H        1 ZINC000053294258    0.0900
@<TRIPOS>BOND
1     1     2     1
2     1     38    1
3     1     39    1
4     1     40    1
5     2     3     1
6     2     4     1
7     2     34    1
8     4     5     1
9     5     14    ar
10    5     6     ar
11    6     7     ar
12    6     41    1
13    7     8     ar
14    7     42    1
15    8     9     1
16    8     13    ar
17    9     10    1
18    9     11    2
19    9     12    2
20    10    43    1
21    10    44    1
22    10    45    1
23    13    14    ar
24    13    46    1
25    14    15    1
26    15    16    2
27    15    17    am
28    17    33    1
29    17    18    1
30    18    19    1
31    18    47    1
32    18    48    1
33    19    20    1
34    19    49    1
35    19    50    1
36    20    21    1
37    20    32    1
38    21    30    ar
39    21    22    ar
40    22    23    ar
41    23    24    ar
42    23    51    1
43    24    25    1
44    24    29    ar
45    25    26    1
46    25    27    1
47    25    28    1
48    29    30    ar
49    29    52    1
50    30    31    1
51    32    33    1
52    32    53    1
53    32    54    1
54    33    55    1
55    33    56    1
56    34    35    1
57    34    36    1
58    34    37    1
@<TRIPOS>SUBSTRUCTURE
1   ZINC000053294258 1     RESIDUE    1   A     ZIN   1
