@<TRIPOS>MOLECULE
ZINC000003819466
46    48    1     0     0
SMALL
USER_CHARGES
@<TRIPOS>ATOM
1      C1     -0.5214    1.3832    0.0018 C.3      1 ZINC000003819466   -0.1600
2      C2     -0.5508   -0.1426   -0.1077 C.3      1 ZINC000003819466    0.0000
3      C3     -0.6991   -0.7514    1.2881 C.3      1 ZINC000003819466   -0.1500
4      C4     -1.7346   -0.5687   -0.9783 C.3      1 ZINC000003819466   -0.1500
5      C5      0.7323   -0.6261   -0.7330 C.2      1 ZINC000003819466    0.1100
6      C6      1.0723   -1.9233   -0.9990 C.2      1 ZINC000003819466    0.0500
7      C7      0.2507   -3.1092   -0.7266 C.2      1 ZINC000003819466   -0.0900
8      C8      0.5424   -4.2892   -1.3288 C.2      1 ZINC000003819466    0.1100
9      N9      1.4784   -4.3374   -2.3698 N.am     1 ZINC000003819466   -0.6700
10     C10     1.9707   -5.5310   -2.7637 C.2      1 ZINC000003819466    0.5700
11     O11     2.7859   -5.5913   -3.6652 O.2      1 ZINC000003819466   -0.4700
12     C12     1.5134   -6.7588   -2.0934 C.2      1 ZINC000003819466    0.0200
13     C13     2.1902   -7.9195   -2.2603 C.2      1 ZINC000003819466   -0.0100
14     C14     1.8386   -9.0983   -1.4541 C.ar     1 ZINC000003819466   -0.1000
15     C15     1.8979  -10.3778   -2.0164 C.ar     1 ZINC000003819466   -0.0900
16     C16     1.5666  -11.4778   -1.2540 C.ar     1 ZINC000003819466   -0.1100
17     C17     1.1757  -11.3185    0.0641 C.ar     1 ZINC000003819466   -0.1000
18     C18     1.1144  -10.0559    0.6279 C.ar     1 ZINC000003819466   -0.1200
19     C19     1.4485   -8.9464   -0.1193 C.ar     1 ZINC000003819466   -0.1100
20     N20     0.3756   -6.7176   -1.2830 N.am     1 ZINC000003819466   -0.6400
21     C21    -0.1157   -5.5250   -0.8900 C.2      1 ZINC000003819466    0.5600
22     O22    -1.1051   -5.4728   -0.1825 O.2      1 ZINC000003819466   -0.4800
23     N23     2.3079   -1.9149   -1.5613 N.pl3    1 ZINC000003819466   -0.4900
24     H24     2.7992   -2.6990   -1.8526 H        1 ZINC000003819466    0.4600
25     C25     2.7277   -0.6851   -1.6473 C.cat    1 ZINC000003819466    0.3100
26     N26     1.7762    0.1453   -1.1483 N.pl3    1 ZINC000003819466   -0.5000
27     H27     0.3220    1.6868    0.6220 H        1 ZINC000003819466    0.0700
28     H28    -0.4158    1.8169   -0.9926 H        1 ZINC000003819466    0.0700
29     H29    -1.4495    1.7329    0.4541 H        1 ZINC000003819466    0.0900
30     H30    -1.6271   -0.4016    1.7403 H        1 ZINC000003819466    0.0900
31     H31    -0.7200   -1.8384    1.2100 H        1 ZINC000003819466    0.0700
32     H32     0.1443   -0.4478    1.9083 H        1 ZINC000003819466    0.0700
33     H33    -1.6290   -0.1350   -1.9727 H        1 ZINC000003819466    0.0700
34     H34    -1.7556   -1.6557   -1.0564 H        1 ZINC000003819466    0.0700
35     H35    -2.6627   -0.2189   -0.5261 H        1 ZINC000003819466    0.0900
36     H36    -0.5858   -3.0421   -0.0469 H        1 ZINC000003819466    0.2000
37     H37     1.7699   -3.5205   -2.8040 H        1 ZINC000003819466    0.4000
38     H38     2.9883   -7.9797   -2.9854 H        1 ZINC000003819466    0.1600
39     H39     2.2020  -10.5037   -3.0450 H        1 ZINC000003819466    0.1300
40     H40     1.6119  -12.4663   -1.6867 H        1 ZINC000003819466    0.1300
41     H41     0.9167  -12.1841    0.6559 H        1 ZINC000003819466    0.1300
42     H42     0.8084   -9.9399    1.6571 H        1 ZINC000003819466    0.1300
43     H43     1.4002   -7.9618    0.3219 H        1 ZINC000003819466    0.1300
44     H44    -0.0546   -7.5404   -1.0023 H        1 ZINC000003819466    0.4300
45     H45     3.6789   -0.3750   -2.0539 H        1 ZINC000003819466    0.2700
46     H46     1.8319    1.1121   -1.0921 H        1 ZINC000003819466    0.4700
@<TRIPOS>BOND
1     1     2     1
2     1     27    1
3     1     28    1
4     1     29    1
5     2     3     1
6     2     4     1
7     2     5     1
8     3     30    1
9     3     31    1
10    3     32    1
11    4     33    1
12    4     34    1
13    4     35    1
14    5     26    1
15    5     6     2
16    6     7     1
17    6     23    1
18    7     8     2
19    7     36    1
20    8     21    1
21    8     9     1
22    9     10    am
23    9     37    1
24    10    11    2
25    10    12    1
26    12    13    2
27    12    20    1
28    13    14    1
29    13    38    1
30    14    19    ar
31    14    15    ar
32    15    16    ar
33    15    39    1
34    16    17    ar
35    16    40    1
36    17    18    ar
37    17    41    1
38    18    19    ar
39    18    42    1
40    19    43    1
41    20    21    am
42    20    44    1
43    21    22    2
44    23    24    1
45    23    25    ar
46    25    26    ar
47    25    45    1
48    26    46    1
@<TRIPOS>SUBSTRUCTURE
1   ZINC000003819466 1     RESIDUE    1   A     ZIN   1
