@<TRIPOS>MOLECULE
ZINC000000056626
  30   30    0    0    0
SMALL
USER_CHARGES
NO_NAME
@<TRIPOS>ATOM
    1 C1       -0.0178     1.4648     0.0101 C.3    1 <0>      -0.0500
    2 N2        0.0021    -0.0041     0.0020 N.4    1 <0>      -0.5100
    3 H3        0.4744    -0.3295    -0.8281 H      1 <0>       0.4300
    4 H4        0.4901    -0.3383     0.8195 H      1 <0>       0.4300
    5 C5       -1.3761    -0.5125     0.0124 C.3    1 <0>      -0.0400
    6 C6       -1.3553    -2.0424     0.0040 C.3    1 <0>       0.1400
    7 H7       -0.7691    -2.3931    -0.8453 H      1 <0>       0.1300
    8 O8       -0.7679    -2.5175     1.2170 O.3    1 <0>      -0.5500
    9 C9       -2.7649    -2.5633    -0.1091 C.ar   1 <0>      -0.1100
   10 C10      -3.5751    -2.6088     1.0097 C.ar   1 <0>      -0.1300
   11 C11      -4.8691    -3.0864     0.9111 C.ar   1 <0>      -0.1000
   12 C12      -5.3561    -3.5200    -0.3110 C.ar   1 <0>       0.1000
   13 O13      -6.6286    -3.9895    -0.4098 O.3    1 <0>      -0.4800
   14 C14      -4.5404    -3.4736    -1.4379 C.ar   1 <0>       0.1100
   15 O15      -5.0141    -3.8977    -2.6401 O.3    1 <0>      -0.3000
   16 C16      -4.1210    -3.8211    -3.7530 C.3    1 <0>       0.0200
   17 C17      -3.2468    -2.9893    -1.3333 C.ar   1 <0>      -0.1800
   18 H18       1.0047     1.8421     0.0024 H      1 <0>       0.1300
   19 H19      -0.5450     1.8259    -0.8730 H      1 <0>       0.1200
   20 H20      -0.5280     1.8163     0.9069 H      1 <0>       0.1200
   21 H21      -1.8863    -0.1610     0.9092 H      1 <0>       0.1400
   22 H22      -1.9033    -0.1515    -0.8706 H      1 <0>       0.1400
   23 H23      -1.2386    -2.2429     2.0158 H      1 <0>       0.3900
   24 H24      -3.1965    -2.2711     1.9631 H      1 <0>       0.1300
   25 H25      -5.4999    -3.1216     1.7871 H      1 <0>       0.1500
   26 H26      -7.2844    -3.3086    -0.6134 H      1 <0>       0.4000
   27 H27      -4.6230    -4.1894    -4.6477 H      1 <0>       0.1100
   28 H28      -3.8193    -2.7850    -3.9061 H      1 <0>       0.0600
   29 H29      -3.2395    -4.4306    -3.5540 H      1 <0>       0.0600
   30 H30      -2.6118    -2.9523    -2.2061 H      1 <0>       0.1400
@<TRIPOS>BOND
   1    1    2 1
   2    1   18 1
   3    1   19 1
   4    1   20 1
   5    2    3 1
   6    2    4 1
   7    2    5 1
   8    5    6 1
   9    5   21 1
  10    5   22 1
  11    6    7 1
  12    6    8 1
  13    6    9 1
  14    8   23 1
  15    9   17 ar
  16    9   10 ar
  17   10   11 ar
  18   10   24 1
  19   11   12 ar
  20   11   25 1
  21   12   13 1
  22   12   14 ar
  23   13   26 1
  24   14   15 1
  25   14   17 ar
  26   15   16 1
  27   16   27 1
  28   16   28 1
  29   16   29 1
  30   17   30 1
