@<TRIPOS>MOLECULE
ZINC000000002275
46    48    1     0     0
SMALL
USER_CHARGES
@<TRIPOS>ATOM
1      C1      0.0235    1.5539    0.0111 C.3      1 ZINC000000002275   -0.1500
2      C2     -0.0468    0.0259    0.0455 C.3      1 ZINC000000002275    0.0500
3      O3      0.6645   -0.4581    1.1866 O.3      1 ZINC000000002275   -0.3000
4      C4      0.6995   -1.8056    1.3664 C.ar     1 ZINC000000002275    0.1100
5      C5      0.0684   -2.6433    0.4615 C.ar     1 ZINC000000002275   -0.1700
6      C6      0.1054   -4.0133    0.6456 C.ar     1 ZINC000000002275   -0.1100
7      C7      0.7708   -4.5501    1.7315 C.ar     1 ZINC000000002275   -0.1200
8      C8      1.4025   -3.7194    2.6389 C.ar     1 ZINC000000002275   -0.1800
9      C9      1.3745   -2.3464    2.4570 C.ar     1 ZINC000000002275    0.1000
10     O10     1.9953   -1.5281    3.3483 O.3      1 ZINC000000002275   -0.2800
11     C11     2.5503   -2.1407    4.5140 C.3      1 ZINC000000002275    0.1300
12     H12     2.0801   -3.1111    4.6733 H        1 ZINC000000002275    0.0900
13     C13     2.3021   -1.2596    5.7111 C.ar     1 ZINC000000002275   -0.0900
14     C14     2.3169    0.1157    5.5719 C.ar     1 ZINC000000002275   -0.0900
15     C15     2.0892    0.9240    6.6700 C.ar     1 ZINC000000002275   -0.1200
16     C16     1.8462    0.3570    7.9071 C.ar     1 ZINC000000002275   -0.1100
17     C17     1.8305   -1.0183    8.0460 C.ar     1 ZINC000000002275   -0.1200
18     C18     2.0539   -1.8266    6.9471 C.ar     1 ZINC000000002275   -0.0900
19     C19     4.0566   -2.3291    4.3230 C.3      1 ZINC000000002275    0.0800
20     H20     4.5274   -1.3590    4.1636 H        1 ZINC000000002275    0.0800
21     C21     4.3097   -3.2260    3.1083 C.3      1 ZINC000000002275    0.0200
22     N22     5.7540   -3.4663    2.9755 N.3      1 ZINC000000002275   -0.6900
23     C23     6.2906   -4.0985    4.1894 C.3      1 ZINC000000002275    0.0200
24     C24     6.0177   -3.1929    5.3933 C.3      1 ZINC000000002275    0.0600
25     O25     4.6125   -2.9440    5.4884 O.3      1 ZINC000000002275   -0.3700
26     H26     1.0653    1.8684   -0.0498 H        1 ZINC000000002275    0.0700
27     H27    -0.5190    1.9231   -0.8592 H        1 ZINC000000002275    0.0800
28     H28    -0.4258    1.9588    0.9179 H        1 ZINC000000002275    0.0700
29     H29    -1.0886   -0.2886    0.1065 H        1 ZINC000000002275    0.0600
30     H30     0.4025   -0.3790   -0.8613 H        1 ZINC000000002275    0.0600
31     H31    -0.4529   -2.2264   -0.3875 H        1 ZINC000000002275    0.1400
32     H32    -0.3871   -4.6654   -0.0606 H        1 ZINC000000002275    0.1300
33     H33     0.7972   -5.6206    1.8720 H        1 ZINC000000002275    0.1300
34     H34     1.9212   -4.1413    3.4870 H        1 ZINC000000002275    0.1400
35     H35     2.5067    0.5587    4.6054 H        1 ZINC000000002275    0.1300
36     H36     2.1014    1.9984    6.5614 H        1 ZINC000000002275    0.1200
37     H37     1.6690    0.9885    8.7651 H        1 ZINC000000002275    0.1200
38     H38     1.6410   -1.4613    9.0126 H        1 ZINC000000002275    0.1200
39     H39     2.0416   -2.9011    7.0556 H        1 ZINC000000002275    0.1200
40     H40     3.7935   -4.1764    3.2437 H        1 ZINC000000002275    0.0400
41     H41     3.9384   -2.7343    2.2091 H        1 ZINC000000002275    0.0900
42     H42     5.9542   -4.0238    2.1587 H        1 ZINC000000002275    0.3500
43     H43     5.8061   -5.0629    4.3421 H        1 ZINC000000002275    0.0400
44     H44     7.3653   -4.2438    4.0795 H        1 ZINC000000002275    0.0900
45     H45     6.3629   -3.6834    6.3034 H        1 ZINC000000002275    0.1000
46     H46     6.5462   -2.2482    5.2653 H        1 ZINC000000002275    0.0600
@<TRIPOS>BOND
1     1     2     1
2     1     26    1
3     1     27    1
4     1     28    1
5     2     3     1
6     2     29    1
7     2     30    1
8     3     4     1
9     4     9     ar
10    4     5     ar
11    5     6     ar
12    5     31    1
13    6     7     ar
14    6     32    1
15    7     8     ar
16    7     33    1
17    8     9     ar
18    8     34    1
19    9     10    1
20    10    11    1
21    11    12    1
22    11    13    1
23    11    19    1
24    13    18    ar
25    13    14    ar
26    14    15    ar
27    14    35    1
28    15    16    ar
29    15    36    1
30    16    17    ar
31    16    37    1
32    17    18    ar
33    17    38    1
34    18    39    1
35    19    20    1
36    19    25    1
37    19    21    1
38    21    22    1
39    21    40    1
40    21    41    1
41    22    23    1
42    22    42    1
43    23    24    1
44    23    43    1
45    23    44    1
46    24    25    1
47    24    45    1
48    24    46    1
@<TRIPOS>SUBSTRUCTURE
1   ZINC000000002275 1     RESIDUE    1   A     ZIN   1
