@<TRIPOS>MOLECULE
ZINC000143116580
56    59    1     0     0
SMALL
USER_CHARGES
@<TRIPOS>ATOM
1      C1     -0.0671    1.4441    0.0190 C.3      1 ZINC000143116580    0.0300
2      O2     -0.0274    0.0157    0.0062 O.3      1 ZINC000143116580   -0.3700
3      C3     -1.3161   -0.6017    0.0160 C.3      1 ZINC000143116580    0.0600
4      H4     -2.0221    0.0395    0.5437 H        1 ZINC000143116580    0.0700
5      C5     -1.7930   -0.8095   -1.4228 C.3      1 ZINC000143116580   -0.1800
6      C6     -1.2279   -1.9548    0.7246 C.3      1 ZINC000143116580    0.1200
7      N7     -0.8872   -1.7467    2.1341 N.am     1 ZINC000143116580   -0.5100
8      C8      0.3515   -1.7994    2.6609 C.2      1 ZINC000143116580    0.6800
9      O9      1.3712   -2.0287    2.0376 O.2      1 ZINC000143116580   -0.5300
10     N10     0.2864   -1.5582    3.9848 N.am     1 ZINC000143116580   -0.5300
11     C11     1.4226   -1.5280    4.9092 C.3      1 ZINC000143116580    0.0900
12     C12    -1.0470   -1.3418    4.3227 C.ar     1 ZINC000143116580    0.0200
13     C13    -1.7052   -1.0540    5.5175 C.ar     1 ZINC000143116580    0.1700
14     N14    -3.0069   -0.8938    5.5616 N.ar     1 ZINC000143116580   -0.4600
15     C15    -3.7716   -0.9968    4.4684 C.ar     1 ZINC000143116580    0.1300
16     C16    -5.1647   -0.8193    4.5472 C.ar     1 ZINC000143116580   -0.0700
17     C17    -5.9303   -0.9260    3.4303 C.ar     1 ZINC000143116580   -0.0900
18     C18    -5.3517   -1.2137    2.1844 C.ar     1 ZINC000143116580   -0.0300
19     C19    -6.2110   -1.3247    0.9803 C.ar     1 ZINC000143116580   -0.1000
20     C20    -5.6534   -1.6154   -0.2630 C.ar     1 ZINC000143116580    0.1100
21     N21    -6.4154   -1.7142   -1.3331 N.ar     1 ZINC000143116580   -0.4700
22     C22    -7.7221   -1.5446   -1.2751 C.ar     1 ZINC000143116580    0.1100
23     C23    -8.3510   -1.2531   -0.0782 C.ar     1 ZINC000143116580   -0.1600
24     C24    -9.8450   -1.0623   -0.0295 C.3      1 ZINC000143116580    0.1700
25     C25   -10.3320   -0.5054   -1.3687 C.3      1 ZINC000143116580   -0.1800
26     C26   -10.5224   -2.4074    0.2401 C.3      1 ZINC000143116580   -0.1400
27     O27   -10.1743   -0.1452    1.0158 O.3      1 ZINC000143116580   -0.5500
28     C28    -7.5940   -1.1451    1.0755 C.ar     1 ZINC000143116580   -0.0500
29     C29    -3.9846   -1.3938    2.0727 C.ar     1 ZINC000143116580   -0.1000
30     C30    -3.1797   -1.2871    3.2133 C.ar     1 ZINC000143116580   -0.0700
31     C31    -1.7809   -1.4573    3.1467 C.ar     1 ZINC000143116580    0.1300
32     H32     0.9500    1.8359    0.0105 H        1 ZINC000143116580    0.0900
33     H33    -0.6012    1.8007   -0.8617 H        1 ZINC000143116580    0.0400
34     H34    -0.5803    1.7853    0.9181 H        1 ZINC000143116580    0.0400
35     H35    -2.7760   -1.2804   -1.4154 H        1 ZINC000143116580    0.0700
36     H36    -1.8557    0.1545   -1.9276 H        1 ZINC000143116580    0.0700
37     H37    -1.0869   -1.4507   -1.9506 H        1 ZINC000143116580    0.0700
38     H38    -2.1887   -2.4649    0.6545 H        1 ZINC000143116580    0.1000
39     H39    -0.4580   -2.5636    0.2507 H        1 ZINC000143116580    0.1100
40     H40     2.3423   -1.7327    4.3613 H        1 ZINC000143116580    0.1000
41     H41     1.4874   -0.5438    5.3731 H        1 ZINC000143116580    0.0800
42     H42     1.2832   -2.2850    5.6810 H        1 ZINC000143116580    0.0800
43     H43    -1.1309   -0.9610    6.4274 H        1 ZINC000143116580    0.1700
44     H44    -5.6267   -0.5981    5.4979 H        1 ZINC000143116580    0.1500
45     H45    -6.9990   -0.7878    3.5020 H        1 ZINC000143116580    0.1400
46     H46    -4.5867   -1.7607   -0.3504 H        1 ZINC000143116580    0.1500
47     H47    -8.3103   -1.6344   -2.1765 H        1 ZINC000143116580    0.1600
48     H48   -10.0808   -1.2050   -2.1660 H        1 ZINC000143116580    0.0700
49     H49   -11.4127   -0.3674   -1.3335 H        1 ZINC000143116580    0.0700
50     H50    -9.8494    0.4529   -1.5608 H        1 ZINC000143116580    0.0600
51     H51   -10.1755   -2.8042    1.1943 H        1 ZINC000143116580    0.0600
52     H52   -11.6031   -2.2695    0.2754 H        1 ZINC000143116580    0.0700
53     H53   -10.2713   -3.1070   -0.5571 H        1 ZINC000143116580    0.0700
54     H54    -9.7781    0.7305    0.9099 H        1 ZINC000143116580    0.3800
55     H55    -8.0589   -0.9187    2.0237 H        1 ZINC000143116580    0.1500
56     H56    -3.5416   -1.6155    1.1130 H        1 ZINC000143116580    0.1300
@<TRIPOS>BOND
1     1     2     1
2     1     32    1
3     1     33    1
4     1     34    1
5     2     3     1
6     3     4     1
7     3     5     1
8     3     6     1
9     5     35    1
10    5     36    1
11    5     37    1
12    6     7     1
13    6     38    1
14    6     39    1
15    7     31    1
16    7     8     am
17    8     9     2
18    8     10    am
19    10    11    1
20    10    12    1
21    11    40    1
22    11    41    1
23    11    42    1
24    12    31    ar
25    12    13    ar
26    13    14    ar
27    13    43    1
28    14    15    ar
29    15    30    ar
30    15    16    ar
31    16    17    ar
32    16    44    1
33    17    18    ar
34    17    45    1
35    18    19    1
36    18    29    ar
37    19    28    ar
38    19    20    ar
39    20    21    ar
40    20    46    1
41    21    22    ar
42    22    23    ar
43    22    47    1
44    23    24    1
45    23    28    ar
46    24    25    1
47    24    26    1
48    24    27    1
49    25    48    1
50    25    49    1
51    25    50    1
52    26    51    1
53    26    52    1
54    26    53    1
55    27    54    1
56    28    55    1
57    29    30    ar
58    29    56    1
59    30    31    ar
@<TRIPOS>SUBSTRUCTURE
1   ZINC000143116580 1     RESIDUE    1   A     ZIN   1
