@<TRIPOS>MOLECULE
ZINC000001563934
22    21    1     0     0
SMALL
USER_CHARGES
@<TRIPOS>ATOM
1      O1      0.0021   -0.0041    0.0020 O.co2    1 ZINC000001563934   -0.6800
2      C2     -0.0145    1.2150    0.0087 C.2      1 ZINC000001563934    0.4900
3      O3      1.0330    1.8389    0.0021 O.co2    1 ZINC000001563934   -0.7400
4      C4     -1.3296    1.9507    0.0190 C.3      1 ZINC000001563934   -0.1700
5      C5     -2.4790    0.9408    0.0189 C.3      1 ZINC000001563934    0.1100
6      H6     -2.3588    0.2536    0.8564 H        1 ZINC000001563934    0.0600
7      N7     -2.4664    0.1868   -1.2371 N.am     1 ZINC000001563934   -0.6800
8      C8     -3.0106   -1.0452   -1.2890 C.2      1 ZINC000001563934    0.5500
9      O9     -3.5107   -1.5295   -0.2959 O.2      1 ZINC000001563934   -0.5800
10     C10    -2.9977   -1.8208   -2.5810 C.3      1 ZINC000001563934   -0.7300
11     P11    -4.6260   -1.6827   -3.3889 P.3      1 ZINC000001563934    2.2200
12     O12    -5.7438   -2.1455   -2.3936 O.co2    1 ZINC000001563934   -1.1700
13     O13    -4.8791   -0.1929   -3.8024 O.co2    1 ZINC000001563934   -1.1700
14     O14    -4.6545   -2.5909   -4.6652 O.co2    1 ZINC000001563934   -1.2000
15     C15    -3.7900    1.6717    0.1529 C.2      1 ZINC000001563934    0.4900
16     O16    -4.3861    2.0422   -0.8440 O.co2    1 ZINC000001563934   -0.6700
17     O17    -4.2546    1.8926    1.2583 O.co2    1 ZINC000001563934   -0.7400
18     H18    -1.3917    2.5717    0.9126 H        1 ZINC000001563934    0.0600
19     H19    -1.4001    2.5813   -0.8673 H        1 ZINC000001563934    0.0500
20     H20    -2.0665    0.5741   -2.0313 H        1 ZINC000001563934    0.3800
21     H21    -2.2296   -1.4162   -3.2400 H        1 ZINC000001563934    0.0500
22     H22    -2.7829   -2.8691   -2.3733 H        1 ZINC000001563934    0.0600
@<TRIPOS>BOND
1     1     2     ar
2     2     3     ar
3     2     4     1
4     4     5     1
5     4     18    1
6     4     19    1
7     5     6     1
8     5     7     1
9     5     15    1
10    7     8     am
11    7     20    1
12    8     9     2
13    8     10    1
14    10    11    1
15    10    21    1
16    10    22    1
17    11    12    ar
18    11    13    ar
19    11    14    ar
20    15    16    ar
21    15    17    ar
@<TRIPOS>SUBSTRUCTURE
1   ZINC000001563934 1     RESIDUE    1   A     ZIN   1
