@<TRIPOS>MOLECULE
ZINC000000007459
  48   49    0    0    0
SMALL
USER_CHARGES
NO_NAME
@<TRIPOS>ATOM
    1 C1       -0.0283     1.5107     0.2721 C.3    1 <0>      -0.1600
    2 C2       -0.0074    -0.0173     0.1968 C.3    1 <0>      -0.1500
    3 C3       -1.4410    -0.5427     0.0981 C.3    1 <0>      -0.0200
    4 N4       -1.4164    -1.9965    -0.1112 N.4    1 <0>      -0.3800
    5 H5       -0.8565    -2.2100    -0.9230 H      1 <0>       0.4200
    6 C6       -0.8369    -2.6514     1.0692 C.3    1 <0>      -0.0200
    7 C7       -1.7550    -2.4361     2.2740 C.3    1 <0>      -0.1500
    8 C8       -1.0925    -3.0087     3.5287 C.3    1 <0>      -0.1600
    9 C9       -2.7863    -2.4846    -0.3189 C.3    1 <0>       0.0200
   10 C10      -3.3746    -1.9258    -1.6318 C.3    1 <0>      -0.0900
   11 C11      -3.0441    -2.9608    -2.6862 C.ar   1 <0>      -0.1200
   12 C12      -3.0374    -2.8613    -4.0676 C.ar   1 <0>      -0.1500
   13 C13      -2.6972    -3.9559    -4.8440 C.ar   1 <0>       0.1200
   14 O14      -2.6911    -3.8549    -6.2001 O.3    1 <0>      -0.3000
   15 C15      -3.0466    -2.5883    -6.7580 C.3    1 <0>       0.0200
   16 C16      -2.3610    -5.1595    -4.2320 C.ar   1 <0>       0.1200
   17 O17      -2.0253    -6.2389    -4.9882 O.3    1 <0>      -0.3000
   18 C18      -1.6919    -7.4409    -4.2911 C.3    1 <0>       0.0200
   19 C19      -2.3691    -5.2546    -2.8509 C.ar   1 <0>      -0.1500
   20 C20      -2.7101    -4.1569    -2.0781 C.ar   1 <0>      -0.1200
   21 C21      -2.7935    -4.0067    -0.5739 C.3    1 <0>      -0.0900
   22 H22       0.9930     1.8850     0.3424 H      1 <0>       0.0800
   23 H23      -0.5016     1.9122    -0.6240 H      1 <0>       0.0700
   24 H24      -0.5912     1.8235     1.1515 H      1 <0>       0.0700
   25 H25       0.5555    -0.3300    -0.6827 H      1 <0>       0.0800
   26 H26       0.4658    -0.4188     1.0928 H      1 <0>       0.0900
   27 H27      -1.9748    -0.3175     1.0214 H      1 <0>       0.1300
   28 H28      -1.9467    -0.0634    -0.7401 H      1 <0>       0.1300
   29 H29      -0.7330    -3.7194     0.8778 H      1 <0>       0.1300
   30 H30       0.1433    -2.2227     1.2780 H      1 <0>       0.1300
   31 H31      -1.9309    -1.3692     2.4108 H      1 <0>       0.0900
   32 H32      -2.7050    -2.9419     2.1018 H      1 <0>       0.0900
   33 H33      -0.1424    -2.5030     3.7009 H      1 <0>       0.0700
   34 H34      -1.7466    -2.8554     4.3871 H      1 <0>       0.0800
   35 H35      -0.9166    -4.0757     3.3920 H      1 <0>       0.0700
   36 H36      -3.4192    -2.2312     0.5316 H      1 <0>       0.1600
   37 H37      -4.4545    -1.8084    -1.5424 H      1 <0>       0.1200
   38 H38      -2.9088    -0.9719    -1.8791 H      1 <0>       0.0900
   39 H39      -3.2989    -1.9264    -4.5409 H      1 <0>       0.1400
   40 H40      -4.0587    -2.3265    -6.4494 H      1 <0>       0.0600
   41 H41      -2.3507    -1.8274    -6.4046 H      1 <0>       0.0600
   42 H42      -3.0015    -2.6448    -7.8456 H      1 <0>       0.1100
   43 H43      -0.8345    -7.2592    -3.6431 H      1 <0>       0.0600
   44 H44      -2.5423    -7.7590    -3.6879 H      1 <0>       0.0600
   45 H45      -1.4446    -8.2215    -5.0106 H      1 <0>       0.1100
   46 H46      -2.1084    -6.1880    -2.3743 H      1 <0>       0.1400
   47 H47      -1.9312    -4.4743    -0.0987 H      1 <0>       0.1000
   48 H48      -3.7176    -4.4480    -0.2004 H      1 <0>       0.1200
@<TRIPOS>BOND
   1    1    2 1
   2    1   22 1
   3    1   23 1
   4    1   24 1
   5    2    3 1
   6    2   25 1
   7    2   26 1
   8    3    4 1
   9    3   27 1
  10    3   28 1
  11    4    5 1
  12    4    6 1
  13    4    9 1
  14    6    7 1
  15    6   29 1
  16    6   30 1
  17    7    8 1
  18    7   31 1
  19    7   32 1
  20    8   33 1
  21    8   34 1
  22    8   35 1
  23    9   21 1
  24    9   10 1
  25    9   36 1
  26   10   11 1
  27   10   37 1
  28   10   38 1
  29   11   20 ar
  30   11   12 ar
  31   12   13 ar
  32   12   39 1
  33   13   14 1
  34   13   16 ar
  35   14   15 1
  36   15   40 1
  37   15   41 1
  38   15   42 1
  39   16   17 1
  40   16   19 ar
  41   17   18 1
  42   18   43 1
  43   18   44 1
  44   18   45 1
  45   19   20 ar
  46   19   46 1
  47   20   21 1
  48   21   47 1
  49   21   48 1
