@<TRIPOS>MOLECULE
ZINC000000643032
51    53    1     0     0
SMALL
USER_CHARGES
@<TRIPOS>ATOM
1      C1     -0.3316    1.6697   -0.1102 C.3      1 ZINC000000643032    0.0600
2      N2     -0.0970    0.2276   -0.0025 N.am     1 ZINC000000643032   -0.6300
3      C3      0.0422   -0.3438    1.2102 C.2      1 ZINC000000643032    0.5100
4      O4      0.2365   -1.5376    1.2993 O.2      1 ZINC000000643032   -0.5100
5      C5     -0.0434    0.5007    2.4554 C.3      1 ZINC000000643032   -0.1000
6      C6      0.1442   -0.3730    3.6688 C.ar     1 ZINC000000643032   -0.0700
7      C7     -0.9506   -0.9667    4.2683 C.ar     1 ZINC000000643032   -0.0900
8      C8     -0.7800   -1.7685    5.3815 C.ar     1 ZINC000000643032   -0.1000
9      C9      0.4868   -1.9769    5.8960 C.ar     1 ZINC000000643032   -0.0300
10     Cl10    0.7018   -2.9841    7.2935 Cl       1 ZINC000000643032   -0.0400
11     C11     1.5837   -1.3820    5.2953 C.ar     1 ZINC000000643032   -0.0300
12     Cl12    3.1745   -1.6427    5.9398 Cl       1 ZINC000000643032   -0.0400
13     C13     1.4117   -0.5848    4.1783 C.ar     1 ZINC000000643032   -0.0800
14     C14    -0.0137   -0.5933   -1.2130 C.3      1 ZINC000000643032    0.1200
15     H15     0.1460   -1.6352   -0.9352 H        1 ZINC000000643032    0.1200
16     C16     1.1533   -0.1112   -2.0770 C.3      1 ZINC000000643032   -0.1200
17     C17     1.2403   -0.9686   -3.3412 C.3      1 ZINC000000643032   -0.1300
18     C18    -0.0641   -0.8458   -4.1314 C.3      1 ZINC000000643032   -0.1200
19     C19    -1.2311   -1.3279   -3.2674 C.3      1 ZINC000000643032   -0.1400
20     C20    -1.3181   -0.4705   -2.0032 C.3      1 ZINC000000643032    0.0200
21     H21    -1.4779    0.5713   -2.2811 H        1 ZINC000000643032    0.1400
22     N22    -2.4386   -0.9335   -1.1737 N.4      1 ZINC000000643032   -0.3900
23     H23    -2.5148   -0.3659   -0.3430 H        1 ZINC000000643032    0.4200
24     C24    -3.7051   -0.8807   -1.9480 C.3      1 ZINC000000643032   -0.0100
25     C25    -4.6213   -1.8796   -1.1974 C.3      1 ZINC000000643032   -0.1400
26     C26    -3.6440   -3.0058   -0.7895 C.3      1 ZINC000000643032   -0.1400
27     C27    -2.2482   -2.3532   -0.8056 C.3      1 ZINC000000643032   -0.0200
28     H28     0.6242    2.1893   -0.1770 H        1 ZINC000000643032    0.0800
29     H29    -0.9207    1.8763   -1.0037 H        1 ZINC000000643032    0.0700
30     H30    -0.8729    2.0165    0.7701 H        1 ZINC000000643032    0.0900
31     H31     0.7360    1.2624    2.4321 H        1 ZINC000000643032    0.1200
32     H32    -1.0204    0.9819    2.5016 H        1 ZINC000000643032    0.1100
33     H33    -1.9400   -0.8039    3.8671 H        1 ZINC000000643032    0.1300
34     H34    -1.6359   -2.2318    5.8497 H        1 ZINC000000643032    0.1500
35     H35     2.2668   -0.1209    3.7092 H        1 ZINC000000643032    0.1400
36     H36     0.9935    0.9306   -2.3548 H        1 ZINC000000643032    0.0800
37     H37     2.0826   -0.1987   -1.5140 H        1 ZINC000000643032    0.0900
38     H38     2.0717   -0.6251   -3.9567 H        1 ZINC000000643032    0.0900
39     H39     1.4000   -2.0104   -3.0633 H        1 ZINC000000643032    0.0700
40     H40    -0.2239    0.1960   -4.4092 H        1 ZINC000000643032    0.0800
41     H41    -0.0022   -1.4566   -5.0320 H        1 ZINC000000643032    0.0900
42     H42    -2.1604   -1.2405   -3.8304 H        1 ZINC000000643032    0.0900
43     H43    -1.0714   -2.3698   -2.9896 H        1 ZINC000000643032    0.0900
44     H44    -4.1292    0.1231   -1.9239 H        1 ZINC000000643032    0.1300
45     H45    -3.5417   -1.2059   -2.9754 H        1 ZINC000000643032    0.1400
46     H46    -5.0609   -1.4125   -0.3162 H        1 ZINC000000643032    0.1000
47     H47    -5.3974   -2.2635   -1.8595 H        1 ZINC000000643032    0.1200
48     H48    -3.8800   -3.3675    0.2113 H        1 ZINC000000643032    0.1000
49     H49    -3.6882   -3.8239   -1.5085 H        1 ZINC000000643032    0.1000
50     H50    -1.6164   -2.8460   -1.5446 H        1 ZINC000000643032    0.1300
51     H51    -1.7934   -2.4247    0.1824 H        1 ZINC000000643032    0.1300
@<TRIPOS>BOND
1     1     2     1
2     1     28    1
3     1     29    1
4     1     30    1
5     2     3     am
6     2     14    1
7     3     4     2
8     3     5     1
9     5     6     1
10    5     31    1
11    5     32    1
12    6     13    ar
13    6     7     ar
14    7     8     ar
15    7     33    1
16    8     9     ar
17    8     34    1
18    9     10    1
19    9     11    ar
20    11    12    1
21    11    13    ar
22    13    35    1
23    14    15    1
24    14    20    1
25    14    16    1
26    16    17    1
27    16    36    1
28    16    37    1
29    17    18    1
30    17    38    1
31    17    39    1
32    18    19    1
33    18    40    1
34    18    41    1
35    19    20    1
36    19    42    1
37    19    43    1
38    20    21    1
39    20    22    1
40    22    23    1
41    22    27    1
42    22    24    1
43    24    25    1
44    24    44    1
45    24    45    1
46    25    26    1
47    25    46    1
48    25    47    1
49    26    27    1
50    26    48    1
51    26    49    1
52    27    50    1
53    27    51    1
@<TRIPOS>SUBSTRUCTURE
1   ZINC000000643032 1     RESIDUE    1   A     ZIN   1
