@<TRIPOS>MOLECULE
ZINC000001629400
52    55    1     0     0
SMALL
USER_CHARGES
@<TRIPOS>ATOM
1      C1      0.1055    1.4997    0.0860 C.3      1 ZINC000001629400   -0.1300
2      C2      0.0500   -0.0053    0.0318 C.ar     1 ZINC000001629400   -0.0800
3      C3      1.0576   -0.7127   -0.5597 C.ar     1 ZINC000001629400    0.1100
4      N4      1.0354   -2.0343   -0.6218 N.ar     1 ZINC000001629400   -0.4800
5      H5      1.7718   -2.4973   -1.0511 H        1 ZINC000001629400    0.4400
6      C6      0.0391   -2.7437   -0.1157 C.ar     1 ZINC000001629400    0.4600
7      N7      0.0584   -4.1284   -0.2031 N.pl3    1 ZINC000001629400   -0.7700
8      C8     -0.0490   -4.7815   -1.5101 C.3      1 ZINC000001629400    0.1200
9      C9     -0.0022   -6.2997   -1.3270 C.3      1 ZINC000001629400   -0.1700
10     C10    -0.1143   -6.9818   -2.6919 C.3      1 ZINC000001629400   -0.0100
11     N11    -0.0694   -8.4395   -2.5161 N.4      1 ZINC000001629400   -0.3900
12     H12    -0.7866   -8.7220   -1.8651 H        1 ZINC000001629400    0.4300
13     C13    -0.2967   -9.0961   -3.8104 C.3      1 ZINC000001629400   -0.0500
14     C14     1.2471   -8.8294   -1.9938 C.3      1 ZINC000001629400   -0.0600
15     C15    -1.0341   -2.0960    0.5084 C.ar     1 ZINC000001629400   -0.1200
16     C16    -1.0296   -0.6927    0.5910 C.ar     1 ZINC000001629400    0.2200
17     N17    -2.1743   -0.2941    1.2388 N.pl3    1 ZINC000001629400   -0.5500
18     C18    -2.9372   -1.3957    1.5877 C.ar     1 ZINC000001629400    0.1500
19     C19    -2.2691   -2.5442    1.1598 C.ar     1 ZINC000001629400   -0.0800
20     C20    -2.8675   -3.8500    1.4084 C.ar     1 ZINC000001629400   -0.0100
21     C21    -2.2401   -5.0333    1.0010 C.ar     1 ZINC000001629400   -0.1400
22     C22    -2.8298   -6.2355    1.2514 C.ar     1 ZINC000001629400   -0.1200
23     C23    -4.0584   -6.3065    1.9119 C.ar     1 ZINC000001629400    0.1100
24     O24    -4.6252   -7.5188    2.1493 O.3      1 ZINC000001629400   -0.5000
25     C25    -4.7013   -5.1614    2.3254 C.ar     1 ZINC000001629400   -0.1100
26     C26    -4.1137   -3.9107    2.0795 C.ar     1 ZINC000001629400   -0.0400
27     C27    -4.7394   -2.7171    2.4871 C.ar     1 ZINC000001629400   -0.0400
28     C28    -4.1668   -1.5116    2.2507 C.ar     1 ZINC000001629400   -0.1200
29     H29     0.6162    1.8119    0.9970 H        1 ZINC000001629400    0.1000
30     H30     0.6484    1.8747   -0.7816 H        1 ZINC000001629400    0.1000
31     H31    -0.9079    1.9011    0.0818 H        1 ZINC000001629400    0.0800
32     H32     1.8937   -0.1798   -0.9879 H        1 ZINC000001629400    0.2100
33     H33     0.1429   -4.6640    0.6012 H        1 ZINC000001629400    0.4300
34     H34    -0.9916   -4.5010   -1.9800 H        1 ZINC000001629400    0.0900
35     H35     0.7805   -4.4661   -2.1430 H        1 ZINC000001629400    0.0800
36     H36     0.9405   -6.5802   -0.8570 H        1 ZINC000001629400    0.1000
37     H37    -0.8317   -6.6151   -0.6940 H        1 ZINC000001629400    0.1000
38     H38    -1.0570   -6.7013   -3.1619 H        1 ZINC000001629400    0.1400
39     H39     0.7152   -6.6664   -3.3249 H        1 ZINC000001629400    0.1400
40     H40     0.4781   -8.7909   -4.5137 H        1 ZINC000001629400    0.1200
41     H41    -0.2634  -10.1777   -3.6800 H        1 ZINC000001629400    0.1300
42     H42    -1.2736   -8.8068   -4.1980 H        1 ZINC000001629400    0.1300
43     H43     1.4158   -8.3422   -1.0335 H        1 ZINC000001629400    0.1200
44     H44     1.2804   -9.9110   -1.8634 H        1 ZINC000001629400    0.1300
45     H45     2.0219   -8.5242   -2.6971 H        1 ZINC000001629400    0.1300
46     H46    -2.4136    0.6273    1.4251 H        1 ZINC000001629400    0.4400
47     H47    -1.2901   -4.9931    0.4887 H        1 ZINC000001629400    0.1500
48     H48    -2.3414   -7.1453    0.9349 H        1 ZINC000001629400    0.1300
49     H49    -4.3695   -7.9139    2.9940 H        1 ZINC000001629400    0.4000
50     H50    -5.6513   -5.2250    2.8351 H        1 ZINC000001629400    0.1500
51     H51    -5.6896   -2.7630    2.9984 H        1 ZINC000001629400    0.1500
52     H52    -4.6742   -0.6159    2.5772 H        1 ZINC000001629400    0.1500
@<TRIPOS>BOND
1     1     2     1
2     1     29    1
3     1     30    1
4     1     31    1
5     2     16    ar
6     2     3     ar
7     3     4     ar
8     3     32    1
9     4     5     1
10    4     6     ar
11    6     7     1
12    6     15    ar
13    7     8     1
14    7     33    1
15    8     9     1
16    8     34    1
17    8     35    1
18    9     10    1
19    9     36    1
20    9     37    1
21    10    11    1
22    10    38    1
23    10    39    1
24    11    12    1
25    11    13    1
26    11    14    1
27    13    40    1
28    13    41    1
29    13    42    1
30    14    43    1
31    14    44    1
32    14    45    1
33    15    19    1
34    15    16    ar
35    16    17    1
36    17    18    1
37    17    46    1
38    18    28    ar
39    18    19    ar
40    19    20    ar
41    20    26    ar
42    20    21    ar
43    21    22    ar
44    21    47    1
45    22    23    ar
46    22    48    1
47    23    24    1
48    23    25    ar
49    24    49    1
50    25    26    ar
51    25    50    1
52    26    27    ar
53    27    28    ar
54    27    51    1
55    28    52    1
@<TRIPOS>SUBSTRUCTURE
1   ZINC000001629400 1     RESIDUE    1   A     ZIN   1
