@<TRIPOS>MOLECULE
ZINC000003779991
26    27    1     0     0
SMALL
USER_CHARGES
@<TRIPOS>ATOM
1      N1     -0.0166    1.3714    0.0096 N.pl3    1 ZINC000003779991   -0.8200
2      C2      0.0021   -0.0041    0.0020 C.2      1 ZINC000003779991    0.5000
3      N3     -1.1354   -0.6867    0.0037 N.2      1 ZINC000003779991   -0.6100
4      C4     -1.1293   -2.0185   -0.0041 C.2      1 ZINC000003779991    0.6300
5      O5     -2.1886   -2.6233   -0.0028 O.2      1 ZINC000003779991   -0.4700
6      N6      0.0264   -2.7078   -0.0137 N.am     1 ZINC000003779991   -0.5300
7      C7      0.0011   -4.1726   -0.0226 C.3      1 ZINC000003779991    0.1500
8      H8      1.0109   -4.5769    0.0466 H        1 ZINC000003779991    0.1400
9      C9     -0.8900   -4.7157    1.1215 C.3      1 ZINC000003779991    0.0400
10     O10    -2.2358   -4.8668    0.6490 O.3      1 ZINC000003779991   -0.3100
11     C11    -2.2431   -5.5972   -0.6032 C.3      1 ZINC000003779991    0.1400
12     H12    -2.0429   -6.6558   -0.4375 H        1 ZINC000003779991    0.1100
13     C13    -3.5694   -5.4036   -1.3410 C.3      1 ZINC000003779991    0.0900
14     O14    -3.7781   -4.0118   -1.5885 O.3      1 ZINC000003779991   -0.5200
15     S15    -0.8547   -4.8030   -1.5203 S.3      1 ZINC000003779991   -0.2700
16     C16     1.2200   -2.0505   -0.0158 C.2      1 ZINC000003779991    0.1900
17     C17     1.2303   -0.6965   -0.0134 C.2      1 ZINC000003779991   -0.3100
18     H18     0.8168    1.8678    0.0043 H        1 ZINC000003779991    0.4100
19     H19    -0.8631    1.8449    0.0162 H        1 ZINC000003779991    0.4100
20     H20    -0.5096   -5.6827    1.4506 H        1 ZINC000003779991    0.0800
21     H21    -0.8746   -4.0163    1.9574 H        1 ZINC000003779991    0.1100
22     H22    -3.5395   -5.9407   -2.2890 H        1 ZINC000003779991    0.0600
23     H23    -4.3849   -5.7903   -0.7299 H        1 ZINC000003779991    0.0600
24     H24    -4.6021   -3.8143   -2.0543 H        1 ZINC000003779991    0.3700
25     H25     2.1477   -2.6035   -0.0235 H        1 ZINC000003779991    0.1700
26     H26     2.1649   -0.1552   -0.0154 H        1 ZINC000003779991    0.1500
@<TRIPOS>BOND
1     1     2     1
2     1     18    1
3     1     19    1
4     2     17    1
5     2     3     2
6     3     4     1
7     4     5     2
8     4     6     am
9     6     7     1
10    6     16    1
11    7     8     1
12    7     15    1
13    7     9     1
14    9     10    1
15    9     20    1
16    9     21    1
17    10    11    1
18    11    12    1
19    11    13    1
20    11    15    1
21    13    14    1
22    13    22    1
23    13    23    1
24    14    24    1
25    16    17    2
26    16    25    1
27    17    26    1
@<TRIPOS>SUBSTRUCTURE
1   ZINC000003779991 1     RESIDUE    1   A     ZIN   1
