@<TRIPOS>MOLECULE
ZINC000066111849
53    56    1     0     0
SMALL
USER_CHARGES
@<TRIPOS>ATOM
1      O1      0.3057    1.0979    1.0158 O.2      1 ZINC000066111849   -0.5600
2      C2      0.2590    2.2342    0.5858 C.2      1 ZINC000066111849    0.7200
3      N3      1.3994    2.9001    0.3164 N.am     1 ZINC000066111849   -0.6600
4      C4      2.6324    2.3161    0.6043 C.ar     1 ZINC000066111849    0.3100
5      C5      2.7090    0.9598    0.9147 C.ar     1 ZINC000066111849   -0.1500
6      C6      3.9586    0.4271    1.1929 C.ar     1 ZINC000066111849   -0.1000
7      C7      5.0547    1.2762    1.1452 C.ar     1 ZINC000066111849    0.0100
8      N8      4.8901    2.5488    0.8420 N.ar     1 ZINC000066111849   -0.2200
9      N9      3.7369    3.0470    0.5787 N.ar     1 ZINC000066111849   -0.2800
10     N10    -0.9331    2.8258    0.3733 N.am     1 ZINC000066111849   -0.6200
11     C11    -1.0025    4.1553   -0.2466 C.3      1 ZINC000066111849    0.1100
12     C12    -1.8624    4.0650   -1.5137 C.3      1 ZINC000066111849   -0.1000
13     C13    -3.1515    3.3530   -1.1670 C.2      1 ZINC000066111849   -0.1100
14     C14    -4.3258    3.8959   -1.4559 C.2      1 ZINC000066111849   -0.1200
15     C15    -5.5680    3.1198   -1.2567 C.ar     1 ZINC000066111849   -0.0400
16     C16    -6.7296    3.7577   -0.8198 C.ar     1 ZINC000066111849   -0.1000
17     C17    -7.8880    3.0302   -0.6352 C.ar     1 ZINC000066111849   -0.1000
18     C18    -7.9016    1.6701   -0.8815 C.ar     1 ZINC000066111849   -0.1100
19     C19    -6.7503    1.0267   -1.3162 C.ar     1 ZINC000066111849    0.0900
20     O20    -6.7692   -0.3107   -1.5569 O.3      1 ZINC000066111849   -0.2400
21     C21    -7.3692   -0.7448   -2.6937 C.ar     1 ZINC000066111849    0.3500
22     C22    -7.5022   -2.1081   -2.9238 C.ar     1 ZINC000066111849   -0.1800
23     C23    -8.1162   -2.5379   -4.0875 C.ar     1 ZINC000066111849    0.0100
24     C24    -8.5774   -1.5839   -4.9838 C.ar     1 ZINC000066111849   -0.2800
25     C25    -9.2527   -2.0049   -6.2636 C.3      1 ZINC000066111849    0.5200
26     F26   -10.6297   -2.1242   -6.0469 F        1 ZINC000066111849   -0.1700
27     F27    -9.0179   -1.0439   -7.2528 F        1 ZINC000066111849   -0.1700
28     F28    -8.7375   -3.2374   -6.6792 F        1 ZINC000066111849   -0.1700
29     C29    -8.4113   -0.2447   -4.6902 C.ar     1 ZINC000066111849    0.2000
30     N30    -7.8267    0.1344   -3.5700 N.ar     1 ZINC000066111849   -0.5200
31     C31    -5.5845    1.7485   -1.5104 C.ar     1 ZINC000066111849   -0.1100
32     C32    -3.0679    2.0066   -0.4821 C.3      1 ZINC000066111849   -0.1200
33     C33    -2.1780    2.1459    0.7536 C.3      1 ZINC000066111849    0.1300
34     H34     1.3623    3.7856   -0.0777 H        1 ZINC000066111849    0.4200
35     H35     1.8228    0.3429    0.9383 H        1 ZINC000066111849    0.2000
36     H36     4.0751   -0.6178    1.4398 H        1 ZINC000066111849    0.1500
37     H37     6.0428    0.8949    1.3566 H        1 ZINC000066111849    0.1800
38     H38    -1.4532    4.8609    0.4513 H        1 ZINC000066111849    0.0800
39     H39     0.0014    4.4888   -0.5094 H        1 ZINC000066111849    0.0800
40     H40    -2.0838    5.0677   -1.8792 H        1 ZINC000066111849    0.0900
41     H41    -1.3281    3.5040   -2.2806 H        1 ZINC000066111849    0.0800
42     H42    -4.3750    4.9053   -1.8368 H        1 ZINC000066111849    0.1300
43     H43    -6.7222    4.8201   -0.6257 H        1 ZINC000066111849    0.1300
44     H44    -8.7864    3.5250   -0.2969 H        1 ZINC000066111849    0.1300
45     H45    -8.8107    1.1058   -0.7351 H        1 ZINC000066111849    0.1300
46     H46    -7.1311   -2.8232   -2.2045 H        1 ZINC000066111849    0.1600
47     H47    -8.2333   -3.5916   -4.2935 H        1 ZINC000066111849    0.1600
48     H48    -8.7681    0.5016   -5.3845 H        1 ZINC000066111849    0.1700
49     H49    -4.6885    1.2494   -1.8488 H        1 ZINC000066111849    0.1400
50     H50    -4.0653    1.6842   -0.1834 H        1 ZINC000066111849    0.1000
51     H51    -2.6337    1.2747   -1.1632 H        1 ZINC000066111849    0.0800
52     H52    -1.9487    1.1576    1.1520 H        1 ZINC000066111849    0.1000
53     H53    -2.6939    2.7366    1.5106 H        1 ZINC000066111849    0.0800
@<TRIPOS>BOND
1     1     2     2
2     2     3     am
3     2     10    am
4     3     4     1
5     3     34    1
6     4     9     ar
7     4     5     ar
8     5     6     ar
9     5     35    1
10    6     7     ar
11    6     36    1
12    7     8     ar
13    7     37    1
14    8     9     ar
15    10    33    1
16    10    11    1
17    11    12    1
18    11    38    1
19    11    39    1
20    12    13    1
21    12    40    1
22    12    41    1
23    13    14    2
24    13    32    1
25    14    15    1
26    14    42    1
27    15    31    ar
28    15    16    ar
29    16    17    ar
30    16    43    1
31    17    18    ar
32    17    44    1
33    18    19    ar
34    18    45    1
35    19    20    1
36    19    31    ar
37    20    21    1
38    21    30    ar
39    21    22    ar
40    22    23    ar
41    22    46    1
42    23    24    ar
43    23    47    1
44    24    25    1
45    24    29    ar
46    25    26    1
47    25    27    1
48    25    28    1
49    29    30    ar
50    29    48    1
51    31    49    1
52    32    33    1
53    32    50    1
54    32    51    1
55    33    52    1
56    33    53    1
@<TRIPOS>SUBSTRUCTURE
1   ZINC000066111849 1     RESIDUE    1   A     ZIN   1
