@<TRIPOS>MOLECULE
ZINC000000896981
29    28    1     0     0
SMALL
USER_CHARGES
@<TRIPOS>ATOM
1      C1     -0.0187    1.5258    0.0104 C.3      1 ZINC000000896981   -0.1900
2      C2      0.0021   -0.0041    0.0020 C.3      1 ZINC000000896981   -0.0200
3      N3     -1.3761   -0.5125    0.0124 N.4      1 ZINC000000896981   -0.2700
4      C4     -2.0637   -0.0388    1.2211 C.3      1 ZINC000000896981   -0.0200
5      C5     -1.3237   -0.5456    2.4606 C.3      1 ZINC000000896981   -0.1900
6      C6     -2.0866   -0.0259   -1.1777 C.3      1 ZINC000000896981   -0.0200
7      C7     -1.3704   -0.5193   -2.4365 C.3      1 ZINC000000896981   -0.1900
8      C8     -1.3562   -1.9814    0.0044 C.3      1 ZINC000000896981   -0.0200
9      C9     -2.7915   -2.5110    0.0152 C.3      1 ZINC000000896981   -0.1900
10     H10     1.0039    1.9031    0.0027 H        1 ZINC000000896981    0.1000
11     H11    -0.5459    1.8868   -0.8726 H        1 ZINC000000896981    0.0800
12     H12    -0.5289    1.8773    0.9072 H        1 ZINC000000896981    0.0800
13     H13     0.5123   -0.3556   -0.8948 H        1 ZINC000000896981    0.1300
14     H14     0.5293   -0.3651    0.8851 H        1 ZINC000000896981    0.1300
15     H15    -2.0784    1.0511    1.2271 H        1 ZINC000000896981    0.1300
16     H16    -3.0863   -0.4161    1.2288 H        1 ZINC000000896981    0.1300
17     H17    -1.8339   -0.1941    3.3574 H        1 ZINC000000896981    0.1000
18     H18    -1.3089   -1.6355    2.4546 H        1 ZINC000000896981    0.0800
19     H19    -0.3011   -0.1684    2.4529 H        1 ZINC000000896981    0.0800
20     H20    -3.1092   -0.4032   -1.1699 H        1 ZINC000000896981    0.1300
21     H21    -2.1014    1.0640   -1.1717 H        1 ZINC000000896981    0.1300
22     H22    -0.3478   -0.1420   -2.4442 H        1 ZINC000000896981    0.0800
23     H23    -1.3557   -1.6092   -2.4425 H        1 ZINC000000896981    0.0800
24     H24    -1.8976   -0.1582   -3.3195 H        1 ZINC000000896981    0.1000
25     H25    -0.8460   -2.3329   -0.8924 H        1 ZINC000000896981    0.1300
26     H26    -0.8290   -2.3425    0.8874 H        1 ZINC000000896981    0.1300
27     H27    -3.3187   -2.1499   -0.8678 H        1 ZINC000000896981    0.0800
28     H28    -2.7768   -3.6008    0.0092 H        1 ZINC000000896981    0.1000
29     H29    -3.3017   -2.1594    0.9120 H        1 ZINC000000896981    0.0800
@<TRIPOS>BOND
1     1     2     1
2     1     10    1
3     1     11    1
4     1     12    1
5     2     3     1
6     2     13    1
7     2     14    1
8     3     4     1
9     3     6     1
10    3     8     1
11    4     5     1
12    4     15    1
13    4     16    1
14    5     17    1
15    5     18    1
16    5     19    1
17    6     7     1
18    6     20    1
19    6     21    1
20    7     22    1
21    7     23    1
22    7     24    1
23    8     9     1
24    8     25    1
25    8     26    1
26    9     27    1
27    9     28    1
28    9     29    1
@<TRIPOS>SUBSTRUCTURE
1   ZINC000000896981 1     RESIDUE    1   A     ZIN   1
