@<TRIPOS>MOLECULE
ZINC000095627836
107   112   1     0     0
SMALL
USER_CHARGES
@<TRIPOS>ATOM
1      C1     -2.1294    0.9434   -3.5652 C.3      1 ZINC000095627836   -0.1400
2      C2     -1.5134   -0.1591   -2.7014 C.3      1 ZINC000095627836   -0.0900
3      C3     -0.6005   -1.0327   -3.5642 C.3      1 ZINC000095627836   -0.1300
4      H4     -0.1318   -0.5305   -4.4105 H        1 ZINC000095627836    0.1000
5      C5     -0.9899   -2.5016   -3.7416 C.3      1 ZINC000095627836   -0.1400
6      C6      0.2031   -2.1269   -2.8587 C.3      1 ZINC000095627836    0.1200
7      N7      1.5434   -2.4199   -3.3726 N.am     1 ZINC000095627836   -0.6700
8      C8      1.9144   -3.6957   -3.5986 C.2      1 ZINC000095627836    0.5200
9      O9      1.1031   -4.5910   -3.4928 O.2      1 ZINC000095627836   -0.5200
10     C10     3.3374   -4.0099   -3.9827 C.3      1 ZINC000095627836    0.1200
11     H11     4.0159   -3.2976   -3.5132 H        1 ZINC000095627836    0.1100
12     C12     3.4936   -3.9559   -5.5107 C.3      1 ZINC000095627836   -0.1300
13     C13     3.5156   -5.4166   -5.9869 C.3      1 ZINC000095627836    0.1100
14     H14     2.6441   -5.6237   -6.6066 H        1 ZINC000095627836    0.1100
15     C15     3.4741   -6.2754   -4.7129 C.3      1 ZINC000095627836    0.1000
16     N16     3.6791   -5.3763   -3.5693 N.am     1 ZINC000095627836   -0.5900
17     C17     4.1206   -5.7427   -2.3530 C.2      1 ZINC000095627836    0.5300
18     O18     4.1675   -4.9276   -1.4562 O.2      1 ZINC000095627836   -0.4900
19     C19     4.5570   -7.1635   -2.1006 C.3      1 ZINC000095627836    0.1600
20     H20     4.3108   -7.7819   -2.9638 H        1 ZINC000095627836    0.1100
21     C21     3.8485   -7.7072   -0.8583 C.3      1 ZINC000095627836   -0.0700
22     C22     2.3475   -7.4306   -0.9652 C.3      1 ZINC000095627836   -0.1500
23     C23     4.0831   -9.2156   -0.7566 C.3      1 ZINC000095627836   -0.1300
24     C24     4.4063   -7.0190    0.3891 C.3      1 ZINC000095627836   -0.1500
25     N25     6.0186   -7.1705   -1.8839 N.am     1 ZINC000095627836   -0.7000
26     C26     6.6780   -8.3131   -2.2231 C.2      1 ZINC000095627836    0.6500
27     O27     6.0735   -9.2678   -2.6700 O.2      1 ZINC000095627836   -0.5600
28     O28     8.0134   -8.3636   -2.0538 O.3      1 ZINC000095627836   -0.3600
29     C29     8.6756   -9.6013   -2.4256 C.3      1 ZINC000095627836    0.0800
30     C30     9.5990   -9.3452   -3.6186 C.3      1 ZINC000095627836   -0.0800
31     C31     9.8363   -7.8410   -3.7661 C.3      1 ZINC000095627836   -0.1300
32     C32    10.9363  -10.0523   -3.3892 C.3      1 ZINC000095627836   -0.1400
33     C33     8.9482   -9.8863   -4.8934 C.3      1 ZINC000095627836   -0.1100
34     C34     9.9501   -9.8065   -6.0471 C.3      1 ZINC000095627836   -0.1200
35     C35     9.1986   -9.5822   -7.3603 C.3      1 ZINC000095627836   -0.1100
36     C36     9.6850   -8.2865   -8.0135 C.3      1 ZINC000095627836   -0.0800
37     C37     8.9416   -8.0681   -9.3058 C.ar     1 ZINC000095627836   -0.0500
38     C38     9.4345   -8.5939  -10.4833 C.ar     1 ZINC000095627836   -0.1100
39     C39     8.7537   -8.3942  -11.6696 C.ar     1 ZINC000095627836   -0.1100
40     C40     7.5769   -7.6705  -11.6762 C.ar     1 ZINC000095627836   -0.1000
41     C41     7.0778   -7.1444  -10.4973 C.ar     1 ZINC000095627836   -0.1000
42     C42     7.7613   -7.3395   -9.3122 C.ar     1 ZINC000095627836   -0.1000
43     C43     7.0025   -6.6526   -8.2026 C.3      1 ZINC000095627836    0.1500
44     N44     5.7158   -6.2079   -8.7635 N.am     1 ZINC000095627836   -0.6000
45     C45     5.8328   -6.3355  -10.2212 C.3      1 ZINC000095627836    0.1700
46     C46     4.6481   -5.7810   -8.0634 C.2      1 ZINC000095627836    0.6800
47     O47     3.6183   -5.4815   -8.6347 O.2      1 ZINC000095627836   -0.5600
48     O48     4.7341   -5.6921   -6.7227 O.3      1 ZINC000095627836   -0.3600
49     C49     0.0346   -2.2622   -1.3673 C.2      1 ZINC000095627836    0.5600
50     O50    -1.0642   -2.1433   -0.8679 O.2      1 ZINC000095627836   -0.6300
51     N51     1.1050   -2.5153   -0.5884 N.pl3    1 ZINC000095627836   -1.1000
52     S52     0.9040   -2.7839    1.0333 S.o2     1 ZINC000095627836    2.5800
53     O53     0.4474   -1.5377    1.5410 O.2      1 ZINC000095627836   -1.0200
54     O54     0.0870   -3.9448    1.0976 O.2      1 ZINC000095627836   -1.0100
55     C55     2.5738   -3.1461    1.6425 C.3      1 ZINC000095627836   -0.6400
56     C56     3.2927   -2.0479    2.4286 C.3      1 ZINC000095627836   -0.1300
57     C57     2.7595   -3.2844    3.1549 C.3      1 ZINC000095627836   -0.1500
58     H58    -1.3359    1.5572   -3.9913 H        1 ZINC000095627836    0.0500
59     H59    -2.7115    0.4926   -4.3689 H        1 ZINC000095627836    0.0500
60     H60    -2.7798    1.5657   -2.9505 H        1 ZINC000095627836    0.0500
61     H61    -0.9313    0.2917   -1.8976 H        1 ZINC000095627836    0.0700
62     H62    -2.3069   -0.7729   -2.2752 H        1 ZINC000095627836    0.0800
63     H63    -1.8964   -2.8456   -3.2437 H        1 ZINC000095627836    0.1000
64     H64    -0.7771   -2.9659   -4.7046 H        1 ZINC000095627836    0.0900
65     H65     2.1638   -1.6957   -3.5501 H        1 ZINC000095627836    0.4000
66     H66     2.6499   -3.4285   -5.9559 H        1 ZINC000095627836    0.1000
67     H67     4.4277   -3.4606   -5.7754 H        1 ZINC000095627836    0.1000
68     H68     2.5048   -6.7667   -4.6288 H        1 ZINC000095627836    0.1000
69     H69     4.2676   -7.0222   -4.7436 H        1 ZINC000095627836    0.0900
70     H70     1.9523   -7.9111   -1.8602 H        1 ZINC000095627836    0.0500
71     H71     1.8412   -7.8282   -0.0857 H        1 ZINC000095627836    0.0600
72     H72     2.1796   -6.3553   -1.0260 H        1 ZINC000095627836    0.0700
73     H73     5.1524   -9.4127   -0.6804 H        1 ZINC000095627836    0.0500
74     H74     3.5783   -9.6030    0.1285 H        1 ZINC000095627836    0.0500
75     H75     3.6857   -9.7059   -1.6453 H        1 ZINC000095627836    0.0600
76     H76     4.0518   -5.9888    0.4249 H        1 ZINC000095627836    0.0800
77     H77     4.0688   -7.5505    1.2789 H        1 ZINC000095627836    0.0500
78     H78     5.4956   -7.0273    0.3522 H        1 ZINC000095627836    0.0500
79     H79     6.4843   -6.4016   -1.5195 H        1 ZINC000095627836    0.4200
80     H80     9.2628   -9.9667   -1.5831 H        1 ZINC000095627836    0.0900
81     H81     7.9277  -10.3461   -2.6980 H        1 ZINC000095627836    0.0900
82     H82    10.3002   -7.4555   -2.8582 H        1 ZINC000095627836    0.0600
83     H83    10.4941   -7.6585   -4.6159 H        1 ZINC000095627836    0.0600
84     H84     8.8836   -7.3372   -3.9293 H        1 ZINC000095627836    0.0600
85     H85    10.7673  -11.1240   -3.2840 H        1 ZINC000095627836    0.0600
86     H86    11.5942   -9.8699   -4.2390 H        1 ZINC000095627836    0.0600
87     H87    11.4002   -9.6667   -2.4813 H        1 ZINC000095627836    0.0600
88     H88     8.6533  -10.9243   -4.7389 H        1 ZINC000095627836    0.0600
89     H89     8.0682   -9.2898   -5.1340 H        1 ZINC000095627836    0.0700
90     H90    10.6368   -8.9776   -5.8753 H        1 ZINC000095627836    0.0700
91     H91    10.5127  -10.7383   -6.1050 H        1 ZINC000095627836    0.0600
92     H92     9.3844  -10.4198   -8.0327 H        1 ZINC000095627836    0.0600
93     H93     8.1299   -9.5085   -7.1591 H        1 ZINC000095627836    0.0700
94     H94     9.4996   -7.4486   -7.3414 H        1 ZINC000095627836    0.0700
95     H95    10.7533   -8.3605   -8.2167 H        1 ZINC000095627836    0.0700
96     H96    10.3532   -9.1616  -10.4776 H        1 ZINC000095627836    0.1300
97     H97     9.1416   -8.8034  -12.5907 H        1 ZINC000095627836    0.1300
98     H98     7.0455   -7.5146  -12.6034 H        1 ZINC000095627836    0.1300
99     H99     6.8287   -7.3514   -7.3843 H        1 ZINC000095627836    0.0900
100    H100    7.5678   -5.7925   -7.8439 H        1 ZINC000095627836    0.0900
101    H101    5.9237   -5.3483  -10.6743 H        1 ZINC000095627836    0.0900
102    H102    4.9588   -6.8502  -10.6203 H        1 ZINC000095627836    0.0900
103    H103    3.1801   -3.7851    1.0005 H        1 ZINC000095627836    0.1500
104    H104    4.3723   -1.9640    2.3037 H        1 ZINC000095627836    0.1000
105    H105    2.7623   -1.1077    2.5796 H        1 ZINC000095627836    0.1100
106    H106    1.8783   -3.1578    3.7838 H        1 ZINC000095627836    0.0900
107    H107    3.4883   -4.0141    3.5078 H        1 ZINC000095627836    0.1000
@<TRIPOS>BOND
1     1     2     1
2     1     58    1
3     1     59    1
4     1     60    1
5     2     3     1
6     2     61    1
7     2     62    1
8     3     4     1
9     3     6     1
10    3     5     1
11    5     6     1
12    5     63    1
13    5     64    1
14    6     7     1
15    6     49    1
16    7     8     am
17    7     65    1
18    8     9     2
19    8     10    1
20    10    11    1
21    10    16    1
22    10    12    1
23    12    13    1
24    12    66    1
25    12    67    1
26    13    14    1
27    13    48    1
28    13    15    1
29    15    16    1
30    15    68    1
31    15    69    1
32    16    17    am
33    17    18    2
34    17    19    1
35    19    20    1
36    19    21    1
37    19    25    1
38    21    22    1
39    21    23    1
40    21    24    1
41    22    70    1
42    22    71    1
43    22    72    1
44    23    73    1
45    23    74    1
46    23    75    1
47    24    76    1
48    24    77    1
49    24    78    1
50    25    26    am
51    25    79    1
52    26    27    2
53    26    28    1
54    28    29    1
55    29    30    1
56    29    80    1
57    29    81    1
58    30    31    1
59    30    32    1
60    30    33    1
61    31    82    1
62    31    83    1
63    31    84    1
64    32    85    1
65    32    86    1
66    32    87    1
67    33    34    1
68    33    88    1
69    33    89    1
70    34    35    1
71    34    90    1
72    34    91    1
73    35    36    1
74    35    92    1
75    35    93    1
76    36    37    1
77    36    94    1
78    36    95    1
79    37    42    ar
80    37    38    ar
81    38    39    ar
82    38    96    1
83    39    40    ar
84    39    97    1
85    40    41    ar
86    40    98    1
87    41    45    1
88    41    42    ar
89    42    43    1
90    43    44    1
91    43    99    1
92    43    100   1
93    44    45    1
94    44    46    am
95    45    101   1
96    45    102   1
97    46    47    2
98    46    48    1
99    49    50    2
100   49    51    1
101   51    52    1
102   52    53    2
103   52    54    2
104   52    55    1
105   55    57    1
106   55    56    1
107   55    103   1
108   56    57    1
109   56    104   1
110   56    105   1
111   57    106   1
112   57    107   1
@<TRIPOS>SUBSTRUCTURE
1   ZINC000095627836 1     RESIDUE    1   A     ZIN   1
