@<TRIPOS>MOLECULE
ZINC000003985678
66    68    1     0     0
SMALL
USER_CHARGES
@<TRIPOS>ATOM
1      C1     -0.7630    1.3446   -0.2524 C.3      1 ZINC000003985678    0.0500
2      N2     -0.3571   -0.0615   -0.1856 N.am     1 ZINC000003985678   -0.6000
3      C3      0.0682   -0.5854    0.9811 C.2      1 ZINC000003985678    0.5700
4      O4      0.4769   -1.7295    1.0205 O.2      1 ZINC000003985678   -0.5100
5      C5      0.0375    0.2314    2.2131 C.ar     1 ZINC000003985678   -0.1300
6      C6     -0.3630   -0.3389    3.4224 C.ar     1 ZINC000003985678    0.0100
7      C7     -0.3890    0.4287    4.5684 C.ar     1 ZINC000003985678   -0.1900
8      C8     -0.8211   -0.1854    5.8750 C.3      1 ZINC000003985678    0.5100
9      F9      0.2946   -0.7131    6.5338 F        1 ZINC000003985678   -0.1700
10     F10    -1.4157    0.7947    6.6768 F        1 ZINC000003985678   -0.1700
11     F11    -1.7432   -1.2079    5.6273 F        1 ZINC000003985678   -0.1700
12     C12    -0.0187    1.7610    4.5208 C.ar     1 ZINC000003985678    0.0000
13     C13     0.3788    2.3326    3.3252 C.ar     1 ZINC000003985678   -0.1900
14     C14     0.7800    3.7846    3.2827 C.3      1 ZINC000003985678    0.5100
15     F15     0.6689    4.3367    4.5633 F        1 ZINC000003985678   -0.1700
16     F16     2.1037    3.8900    2.8427 F        1 ZINC000003985678   -0.1700
17     F17    -0.0604    4.4750    2.4027 F        1 ZINC000003985678   -0.1700
18     C18     0.4144    1.5747    2.1730 C.ar     1 ZINC000003985678   -0.0100
19     C19    -0.4134   -0.8981   -1.3869 C.3      1 ZINC000003985678    0.1700
20     H20    -0.0758   -1.9056   -1.1442 H        1 ZINC000003985678    0.1200
21     C21    -1.8310   -0.9522   -1.8954 C.2      1 ZINC000003985678   -0.0800
22     C22    -2.4952   -2.1043   -1.8918 C.2      1 ZINC000003985678   -0.1900
23     C23    -3.8790   -2.1571   -2.3882 C.2      1 ZINC000003985678    0.5400
24     O24    -4.4156   -1.1472   -2.8017 O.2      1 ZINC000003985678   -0.5200
25     N25    -4.5521   -3.3247   -2.3846 N.am     1 ZINC000003985678   -0.7200
26     C26    -5.9302   -3.3773   -2.8789 C.3      1 ZINC000003985678    0.1300
27     H27    -6.4883   -2.5215   -2.4992 H        1 ZINC000003985678    0.1200
28     C28    -6.5954   -4.6738   -2.4106 C.3      1 ZINC000003985678   -0.1300
29     C29    -5.5903   -5.8107   -2.3731 C.3      1 ZINC000003985678   -0.1300
30     C30    -5.0774   -6.2206   -3.7416 C.3      1 ZINC000003985678   -0.1500
31     C31    -4.2332   -5.1066   -4.3636 C.3      1 ZINC000003985678    0.0900
32     N32    -5.1278   -4.1785   -5.0741 N.am     1 ZINC000003985678   -0.7200
33     C33    -5.9289   -3.3528   -4.3929 C.2      1 ZINC000003985678    0.5100
34     O34    -6.6579   -2.5890   -4.9897 O.2      1 ZINC000003985678   -0.5300
35     C35     0.4931   -0.3026   -2.4660 C.3      1 ZINC000003985678   -0.0900
36     C36     1.9270   -0.3614   -2.0062 C.ar     1 ZINC000003985678   -0.0600
37     C37     2.4667    0.6911   -1.2909 C.ar     1 ZINC000003985678   -0.1000
38     C38     3.7820    0.6384   -0.8684 C.ar     1 ZINC000003985678   -0.1000
39     C39     4.5586   -0.4678   -1.1614 C.ar     1 ZINC000003985678   -0.0300
40     Cl40    6.2101   -0.5347   -0.6307 Cl       1 ZINC000003985678   -0.0500
41     C41     4.0179   -1.5223   -1.8781 C.ar     1 ZINC000003985678   -0.0200
42     Cl42    4.9915   -2.9116   -2.2467 Cl       1 ZINC000003985678   -0.0400
43     C43     2.7003   -1.4704   -2.2951 C.ar     1 ZINC000003985678   -0.0900
44     H44     0.0977    1.9590   -0.5168 H        1 ZINC000003985678    0.0700
45     H45    -1.5397    1.4630   -1.0079 H        1 ZINC000003985678    0.0900
46     H46    -1.1488    1.6578    0.7177 H        1 ZINC000003985678    0.0800
47     H47    -0.6523   -1.3788    3.4608 H        1 ZINC000003985678    0.1600
48     H48    -0.0404    2.3574    5.4209 H        1 ZINC000003985678    0.1600
49     H49     0.7252    2.0220    1.2404 H        1 ZINC000003985678    0.1500
50     H50    -2.3075   -0.0553   -2.2627 H        1 ZINC000003985678    0.1400
51     H51    -2.0187   -3.0012   -1.5246 H        1 ZINC000003985678    0.1300
52     H52    -4.1241   -4.1303   -2.0547 H        1 ZINC000003985678    0.4100
53     H53    -7.0071   -4.5257   -1.4122 H        1 ZINC000003985678    0.0900
54     H54    -7.4027   -4.9310   -3.0963 H        1 ZINC000003985678    0.0800
55     H55    -4.7419   -5.5050   -1.7608 H        1 ZINC000003985678    0.0600
56     H56    -6.0602   -6.6753   -1.9044 H        1 ZINC000003985678    0.0800
57     H57    -4.4681   -7.1188   -3.6417 H        1 ZINC000003985678    0.0800
58     H58    -5.9250   -6.4340   -4.3928 H        1 ZINC000003985678    0.0700
59     H59    -3.6989   -4.5710   -3.5789 H        1 ZINC000003985678    0.0800
60     H60    -3.5201   -5.5373   -5.0665 H        1 ZINC000003985678    0.0900
61     H61    -5.1349   -4.1635   -6.0440 H        1 ZINC000003985678    0.4000
62     H62     0.3836   -0.8734   -3.3882 H        1 ZINC000003985678    0.1000
63     H63     0.2113    0.7350   -2.6453 H        1 ZINC000003985678    0.0900
64     H64     1.8606    1.5552   -1.0622 H        1 ZINC000003985678    0.1300
65     H65     4.2031    1.4612   -0.3098 H        1 ZINC000003985678    0.1400
66     H66     2.2779   -2.2925   -2.8537 H        1 ZINC000003985678    0.1400
@<TRIPOS>BOND
1     1     2     1
2     1     44    1
3     1     45    1
4     1     46    1
5     2     3     am
6     2     19    1
7     3     4     2
8     3     5     1
9     5     18    ar
10    5     6     ar
11    6     7     ar
12    6     47    1
13    7     8     1
14    7     12    ar
15    8     9     1
16    8     10    1
17    8     11    1
18    12    13    ar
19    12    48    1
20    13    14    1
21    13    18    ar
22    14    15    1
23    14    16    1
24    14    17    1
25    18    49    1
26    19    20    1
27    19    21    1
28    19    35    1
29    21    22    2
30    21    50    1
31    22    23    1
32    22    51    1
33    23    24    2
34    23    25    am
35    25    26    1
36    25    52    1
37    26    27    1
38    26    33    1
39    26    28    1
40    28    29    1
41    28    53    1
42    28    54    1
43    29    30    1
44    29    55    1
45    29    56    1
46    30    31    1
47    30    57    1
48    30    58    1
49    31    32    1
50    31    59    1
51    31    60    1
52    32    33    am
53    32    61    1
54    33    34    2
55    35    36    1
56    35    62    1
57    35    63    1
58    36    43    ar
59    36    37    ar
60    37    38    ar
61    37    64    1
62    38    39    ar
63    38    65    1
64    39    40    1
65    39    41    ar
66    41    42    1
67    41    43    ar
68    43    66    1
@<TRIPOS>SUBSTRUCTURE
1   ZINC000003985678 1     RESIDUE    1   A     ZIN   1
