@<TRIPOS>MOLECULE
ZINC000003775177
28    29    1     0     0
SMALL
USER_CHARGES
@<TRIPOS>ATOM
1      O1     -0.0173    1.4248    0.0099 O.3      1 ZINC000003775177   -0.5500
2      C2      0.0021   -0.0041    0.0020 C.3      1 ZINC000003775177    0.1200
3      H3      0.5203   -0.3728   -0.8832 H        1 ZINC000003775177    0.0700
4      C4      0.6753   -0.5446    1.2892 C.3      1 ZINC000003775177   -0.1600
5      C5     -0.4445   -1.3236    2.0292 C.3      1 ZINC000003775177    0.0500
6      N6     -1.6823   -0.7144    1.5191 N.3      1 ZINC000003775177   -0.5200
7      C7     -2.9098   -1.4741    1.7140 C.3      1 ZINC000003775177    0.0200
8      C8     -4.0747   -0.6316    1.1726 C.3      1 ZINC000003775177    0.0800
9      H9     -4.1529    0.2878    1.7529 H        1 ZINC000003775177    0.0800
10     O10    -5.2901   -1.3725    1.2989 O.3      1 ZINC000003775177   -0.5700
11     C11    -3.8504   -0.2811   -0.2978 C.3      1 ZINC000003775177    0.0800
12     H12    -3.8939   -1.1919   -0.8950 H        1 ZINC000003775177    0.0600
13     O13    -4.8760    0.6152   -0.7302 O.3      1 ZINC000003775177   -0.5600
14     C14    -2.4802    0.3868   -0.4917 C.3      1 ZINC000003775177    0.1500
15     H15    -2.4496    1.3324    0.0498 H        1 ZINC000003775177    0.0900
16     O16    -2.2451    0.6168   -1.8823 O.3      1 ZINC000003775177   -0.5500
17     C17    -1.4249   -0.5602    0.0589 C.3      1 ZINC000003775177    0.0700
18     H18    -1.4858   -1.5260   -0.4427 H        1 ZINC000003775177    0.0700
19     H19     0.8606    1.8301    0.0037 H        1 ZINC000003775177    0.3800
20     H20     1.4976   -1.2132    1.0347 H        1 ZINC000003775177    0.0800
21     H21     1.0333    0.2806    1.9048 H        1 ZINC000003775177    0.0900
22     H22    -0.4060   -2.3833    1.7766 H        1 ZINC000003775177    0.0500
23     H23    -0.3628   -1.1818    3.1069 H        1 ZINC000003775177    0.0900
24     H24    -2.8512   -2.4163    1.1690 H        1 ZINC000003775177    0.0500
25     H25    -3.0581   -1.6698    2.7760 H        1 ZINC000003775177    0.0900
26     H26    -5.5097   -1.6158    2.2087 H        1 ZINC000003775177    0.3900
27     H27    -5.7704    0.2557   -0.6538 H        1 ZINC000003775177    0.3900
28     H28    -2.9005    1.1905   -2.3024 H        1 ZINC000003775177    0.3900
@<TRIPOS>BOND
1     1     2     1
2     1     19    1
3     2     3     1
4     2     17    1
5     2     4     1
6     4     5     1
7     4     20    1
8     4     21    1
9     5     6     1
10    5     22    1
11    5     23    1
12    6     17    1
13    6     7     1
14    7     8     1
15    7     24    1
16    7     25    1
17    8     9     1
18    8     10    1
19    8     11    1
20    10    26    1
21    11    12    1
22    11    13    1
23    11    14    1
24    13    27    1
25    14    15    1
26    14    16    1
27    14    17    1
28    16    28    1
29    17    18    1
@<TRIPOS>SUBSTRUCTURE
1   ZINC000003775177 1     RESIDUE    1   A     ZIN   1
