@<TRIPOS>MOLECULE
ZINC000035328520
78    80    1     0     0
SMALL
USER_CHARGES
@<TRIPOS>ATOM
1      C1      0.7604   -0.6233   -1.3525 C.3      1 ZINC000035328520   -0.0600
2      N2      0.1959   -0.0008   -0.1476 N.4      1 ZINC000035328520   -0.5100
3      H3      0.6688   -0.3585    0.6688 H        1 ZINC000035328520    0.4200
4      H4      0.3194    0.9994   -0.1965 H        1 ZINC000035328520    0.4300
5      C5     -1.2367   -0.3136   -0.0601 C.3      1 ZINC000035328520    0.0100
6      H6     -1.6658    0.1879    0.8073 H        1 ZINC000035328520    0.1500
7      C7     -1.4207   -1.8258    0.0823 C.3      1 ZINC000035328520    0.1200
8      N8     -0.6468   -2.3060    1.2298 N.am     1 ZINC000035328520   -0.7700
9      C9     -0.6577   -3.6152    1.5497 C.2      1 ZINC000035328520    0.7100
10     O10    -1.3732   -4.3846    0.9378 O.2      1 ZINC000035328520   -0.5700
11     N11     0.1245   -4.0715    2.5479 N.am     1 ZINC000035328520   -0.6200
12     C12     0.9111   -3.1402    3.3680 C.3      1 ZINC000035328520    0.1100
13     C13     2.3760   -3.5881    3.3549 C.3      1 ZINC000035328520   -0.1300
14     C14     2.4628   -5.0485    3.8041 C.3      1 ZINC000035328520   -0.1200
15     C15     1.6792   -5.9311    2.8299 C.3      1 ZINC000035328520   -0.0900
16     H16     2.0860   -5.8144    1.8254 H        1 ZINC000035328520    0.0900
17     C17     1.7944   -7.3946    3.2608 C.3      1 ZINC000035328520    0.1400
18     H18     2.8466   -7.6671    3.3437 H        1 ZINC000035328520    0.0800
19     O19     1.1557   -7.5701    4.5270 O.3      1 ZINC000035328520   -0.3700
20     C20     1.7278   -8.6060    5.3279 C.3      1 ZINC000035328520    0.0500
21     C21     0.9690   -8.7041    6.6529 C.3      1 ZINC000035328520    0.1400
22     N22    -0.4092   -9.1291    6.3961 N.am     1 ZINC000035328520   -0.7100
23     C23    -1.2689   -9.2842    7.4225 C.2      1 ZINC000035328520    0.6500
24     O24    -0.9008   -9.0715    8.5608 O.2      1 ZINC000035328520   -0.5700
25     O25    -2.5355   -9.6749    7.1865 O.3      1 ZINC000035328520   -0.3700
26     C26    -3.4059   -9.8213    8.3394 C.3      1 ZINC000035328520    0.0600
27     C27     1.1270   -8.2742    2.2352 C.ar     1 ZINC000035328520   -0.1100
28     C28    -0.2482   -8.4132    2.2341 C.ar     1 ZINC000035328520   -0.0900
29     C29    -0.8614   -9.2197    1.2932 C.ar     1 ZINC000035328520   -0.1000
30     C30    -0.0995   -9.8878    0.3536 C.ar     1 ZINC000035328520   -0.1000
31     C31     1.2773   -9.7491    0.3542 C.ar     1 ZINC000035328520   -0.0300
32     Cl32    2.2351  -10.5876   -0.8262 Cl       1 ZINC000035328520   -0.0600
33     C33     1.8897   -8.9375    1.2922 C.ar     1 ZINC000035328520   -0.1000
34     C34     0.2020   -5.5092    2.8407 C.3      1 ZINC000035328520    0.1300
35     C35    -1.9425    0.1687   -1.3291 C.3      1 ZINC000035328520   -0.1400
36     C36    -1.8112    1.6891   -1.4391 C.3      1 ZINC000035328520   -0.1300
37     H37    -0.7594    1.9690   -1.3813 H        1 ZINC000035328520    0.0700
38     C38    -2.3929    2.1576   -2.7764 C.3      1 ZINC000035328520   -0.1200
39     C39    -2.3270    3.6866   -2.8416 C.3      1 ZINC000035328520   -0.1600
40     C40    -3.0782    4.2736   -1.6438 C.3      1 ZINC000035328520    0.0500
41     O41    -2.5066    3.7735   -0.4332 O.3      1 ZINC000035328520   -0.3800
42     C42    -2.5811    2.3531   -0.2945 C.3      1 ZINC000035328520    0.0600
43     H43     1.8107   -0.3472   -1.4461 H        1 ZINC000035328520    0.1300
44     H44     0.6752   -1.7073   -1.2754 H        1 ZINC000035328520    0.1300
45     H45     0.2142   -0.2775   -2.2301 H        1 ZINC000035328520    0.1300
46     H46    -2.4761   -2.0505    0.2363 H        1 ZINC000035328520    0.1200
47     H47    -1.0722   -2.3212   -0.8239 H        1 ZINC000035328520    0.1000
48     H48    -0.1265   -1.6816    1.7594 H        1 ZINC000035328520    0.3900
49     H49     0.8328   -2.1343    2.9555 H        1 ZINC000035328520    0.0600
50     H50     0.5358   -3.1479    4.3914 H        1 ZINC000035328520    0.0800
51     H51     2.7763   -3.4935    2.3455 H        1 ZINC000035328520    0.0700
52     H52     2.9537   -2.9630    4.0359 H        1 ZINC000035328520    0.0800
53     H53     3.5066   -5.3623    3.8192 H        1 ZINC000035328520    0.0700
54     H54     2.0398   -5.1467    4.8038 H        1 ZINC000035328520    0.0800
55     H55     1.6575   -9.5559    4.7978 H        1 ZINC000035328520    0.0600
56     H56     2.7750   -8.3766    5.5250 H        1 ZINC000035328520    0.0800
57     H57     1.4593   -9.4320    7.2993 H        1 ZINC000035328520    0.0900
58     H58     0.9637   -7.7297    7.1415 H        1 ZINC000035328520    0.0800
59     H59    -0.7031   -9.2989    5.4874 H        1 ZINC000035328520    0.4100
60     H60    -2.9903  -10.5682    9.0158 H        1 ZINC000035328520    0.0700
61     H61    -3.4858   -8.8659    8.8580 H        1 ZINC000035328520    0.0600
62     H62    -4.3949  -10.1398    8.0100 H        1 ZINC000035328520    0.1000
63     H63    -0.8440   -7.8918    2.9687 H        1 ZINC000035328520    0.1300
64     H64    -1.9359   -9.3279    1.2928 H        1 ZINC000035328520    0.1400
65     H65    -0.5784  -10.5183   -0.3808 H        1 ZINC000035328520    0.1400
66     H66     2.9642   -8.8289    1.2932 H        1 ZINC000035328520    0.1300
67     H67    -0.2287   -5.7117    3.8213 H        1 ZINC000035328520    0.0800
68     H68    -0.3426   -6.0661    2.0781 H        1 ZINC000035328520    0.1000
69     H69    -1.4840   -0.2995   -2.2001 H        1 ZINC000035328520    0.1000
70     H70    -2.9972   -0.1026   -1.2837 H        1 ZINC000035328520    0.1200
71     H71    -1.8128    1.7324   -3.5954 H        1 ZINC000035328520    0.0800
72     H72    -3.4306    1.8337   -2.8562 H        1 ZINC000035328520    0.0800
73     H73    -1.2858    4.0079   -2.8117 H        1 ZINC000035328520    0.0700
74     H74    -2.7893    4.0320   -3.7663 H        1 ZINC000035328520    0.0800
75     H75    -2.9982    5.3605   -1.6617 H        1 ZINC000035328520    0.1000
76     H76    -4.1280    3.9852   -1.6963 H        1 ZINC000035328520    0.0600
77     H77    -3.6241    2.0387   -0.3293 H        1 ZINC000035328520    0.0600
78     H78    -2.1438    2.0577    0.6592 H        1 ZINC000035328520    0.0900
@<TRIPOS>BOND
1     1     2     1
2     1     43    1
3     1     44    1
4     1     45    1
5     2     3     1
6     2     4     1
7     2     5     1
8     5     6     1
9     5     7     1
10    5     35    1
11    7     8     1
12    7     46    1
13    7     47    1
14    8     9     am
15    8     48    1
16    9     10    2
17    9     11    am
18    11    34    1
19    11    12    1
20    12    13    1
21    12    49    1
22    12    50    1
23    13    14    1
24    13    51    1
25    13    52    1
26    14    15    1
27    14    53    1
28    14    54    1
29    15    16    1
30    15    17    1
31    15    34    1
32    17    18    1
33    17    19    1
34    17    27    1
35    19    20    1
36    20    21    1
37    20    55    1
38    20    56    1
39    21    22    1
40    21    57    1
41    21    58    1
42    22    23    am
43    22    59    1
44    23    24    2
45    23    25    1
46    25    26    1
47    26    60    1
48    26    61    1
49    26    62    1
50    27    33    ar
51    27    28    ar
52    28    29    ar
53    28    63    1
54    29    30    ar
55    29    64    1
56    30    31    ar
57    30    65    1
58    31    32    1
59    31    33    ar
60    33    66    1
61    34    67    1
62    34    68    1
63    35    36    1
64    35    69    1
65    35    70    1
66    36    37    1
67    36    42    1
68    36    38    1
69    38    39    1
70    38    71    1
71    38    72    1
72    39    40    1
73    39    73    1
74    39    74    1
75    40    41    1
76    40    75    1
77    40    76    1
78    41    42    1
79    42    77    1
80    42    78    1
@<TRIPOS>SUBSTRUCTURE
1   ZINC000035328520 1     RESIDUE    1   A     ZIN   1
