@<TRIPOS>MOLECULE
ZINC000070471849
74    79    1     0     0
SMALL
USER_CHARGES
@<TRIPOS>ATOM
1      O1      0.1699    0.5977   -0.0179 O.2      1 ZINC000070471849   -0.4600
2      C2      0.1216    1.4705    0.8231 C.2      1 ZINC000070471849    0.5500
3      N3      1.2431    1.8471    1.4687 N.am     1 ZINC000070471849   -0.6300
4      C4      2.4365    1.1658    1.2460 C.2      1 ZINC000070471849    0.3000
5      N5      2.5887    0.1622    0.4393 N.2      1 ZINC000070471849   -0.4500
6      C6      3.7982   -0.3621    0.3540 C.2      1 ZINC000070471849    0.0900
7      C7      4.7340    0.2138    1.1215 C.2      1 ZINC000070471849   -0.2500
8      S8      6.4272   -0.2638    1.2197 S.3      1 ZINC000070471849   -0.0200
9      C9      7.1133    0.9102    2.4205 C.3      1 ZINC000070471849   -0.1200
10     C10     8.6028    0.6234    2.6202 C.3      1 ZINC000070471849    0.0600
11     N11     9.1584    1.5740    3.5926 N.3      1 ZINC000070471849   -0.5100
12     C12     8.6944    1.2606    4.9684 C.3      1 ZINC000070471849    0.0300
13     C13     9.7403    1.9691    5.8654 C.3      1 ZINC000070471849   -0.1200
14     C14    11.0609    1.7572    5.0900 C.3      1 ZINC000070471849   -0.1300
15     C15    10.6342    1.4870    3.6353 C.3      1 ZINC000070471849    0.0400
16     S16     3.9799    1.5359    2.0100 S.3      1 ZINC000070471849    0.0900
17     C17    -1.1914    2.1380    1.1415 C.3      1 ZINC000070471849   -0.1400
18     C18    -1.1297    3.6301    1.3438 C.ar     1 ZINC000070471849    0.0100
19     C19    -1.9956    4.2439    2.2294 C.ar     1 ZINC000070471849   -0.1300
20     C20    -1.9391    5.6126    2.4150 C.ar     1 ZINC000070471849   -0.0200
21     C21    -1.0163    6.3674    1.7152 C.ar     1 ZINC000070471849   -0.6600
22     S22    -0.9445    8.1120    1.9513 S.o2     1 ZINC000070471849    2.5200
23     O23    -0.4073    8.6087    0.7332 O.2      1 ZINC000070471849   -0.9300
24     O24    -2.2561    8.4632    2.3706 O.2      1 ZINC000070471849   -0.9300
25     C25     0.2389    8.3370    3.3076 C.3      1 ZINC000070471849   -0.6700
26     C26     1.5819    8.9890    2.9724 C.3      1 ZINC000070471849   -0.1300
27     C27     0.5287    9.7689    3.7620 C.3      1 ZINC000070471849   -0.1300
28     C28    -0.1495    5.7534    0.8306 C.ar     1 ZINC000070471849   -0.0100
29     C29    -0.2035    4.3843    0.6479 C.ar     1 ZINC000070471849   -0.1400
30     C30    -2.1979    1.3515    1.9837 C.3      1 ZINC000070471849   -0.1400
31     C31    -2.4516    1.5650    0.4901 C.3      1 ZINC000070471849   -0.0800
32     H32    -2.3310    0.7051   -0.1688 H        1 ZINC000070471849    0.1300
33     C33    -3.5534    2.5501    0.0944 C.3      1 ZINC000070471849   -0.0700
34     C34    -3.7558    2.5069   -1.4215 C.3      1 ZINC000070471849   -0.1100
35     C35    -4.8575    3.4920   -1.8172 C.3      1 ZINC000070471849   -0.1200
36     C36    -6.1622    3.1063   -1.1173 C.3      1 ZINC000070471849   -0.1200
37     C37    -5.9597    3.1495    0.3987 C.3      1 ZINC000070471849   -0.1200
38     C38    -4.8580    2.1643    0.7944 C.3      1 ZINC000070471849   -0.1100
39     H39     1.2187    2.5928    2.0885 H        1 ZINC000070471849    0.4200
40     H40     4.0184   -1.1998   -0.2911 H        1 ZINC000070471849    0.1800
41     H41     6.9856    1.9267    2.0485 H        1 ZINC000070471849    0.1000
42     H42     6.5919    0.8032    3.3718 H        1 ZINC000070471849    0.0900
43     H43     8.7304   -0.3932    2.9923 H        1 ZINC000070471849    0.0500
44     H44     9.1242    0.7303    1.6690 H        1 ZINC000070471849    0.0900
45     H45     7.6990    1.6698    5.1412 H        1 ZINC000070471849    0.0800
46     H46     8.7045    0.1845    5.1420 H        1 ZINC000070471849    0.0500
47     H47     9.5132    3.0312    5.9574 H        1 ZINC000070471849    0.0800
48     H48     9.7893    1.4976    6.8469 H        1 ZINC000070471849    0.0700
49     H49    11.6786    2.6537    5.1428 H        1 ZINC000070471849    0.0700
50     H50    11.6017    0.9001    5.4911 H        1 ZINC000070471849    0.0700
51     H51    10.9563    0.4905    3.3329 H        1 ZINC000070471849    0.0500
52     H52    11.0697    2.2371    2.9752 H        1 ZINC000070471849    0.0800
53     H53    -2.7166    3.6542    2.7761 H        1 ZINC000070471849    0.1400
54     H54    -2.6160    6.0923    3.1064 H        1 ZINC000070471849    0.1500
55     H55     0.2336    7.5583    4.0702 H        1 ZINC000070471849    0.1600
56     H56     2.4604    8.6391    3.5145 H        1 ZINC000070471849    0.1200
57     H57     1.7543    9.2827    1.9370 H        1 ZINC000070471849    0.1200
58     H58     0.0083   10.5758    3.2461 H        1 ZINC000070471849    0.1100
59     H59     0.7144    9.9321    4.8236 H        1 ZINC000070471849    0.1200
60     H60     0.5717    6.3431    0.2842 H        1 ZINC000070471849    0.1500
61     H61     0.4737    3.9046   -0.0432 H        1 ZINC000070471849    0.1300
62     H62    -1.9103    0.3512    2.3075 H        1 ZINC000070471849    0.1100
63     H63    -2.8156    1.9132    2.6845 H        1 ZINC000070471849    0.1200
64     H64    -3.2646    3.5576    0.3938 H        1 ZINC000070471849    0.0800
65     H65    -2.8264    2.7817   -1.9202 H        1 ZINC000070471849    0.0600
66     H66    -4.0446    1.4994   -1.7209 H        1 ZINC000070471849    0.0700
67     H67    -4.5687    4.4995   -1.5178 H        1 ZINC000070471849    0.0600
68     H68    -5.0018    3.4612   -2.8972 H        1 ZINC000070471849    0.0600
69     H69    -6.9471    3.8081   -1.3992 H        1 ZINC000070471849    0.0600
70     H70    -6.4510    2.0988   -1.4167 H        1 ZINC000070471849    0.0600
71     H71    -5.6709    4.1570    0.6981 H        1 ZINC000070471849    0.0600
72     H72    -6.8892    2.8746    0.8974 H        1 ZINC000070471849    0.0600
73     H73    -5.1468    1.1568    0.4950 H        1 ZINC000070471849    0.0700
74     H74    -4.7138    2.1951    1.8744 H        1 ZINC000070471849    0.0600
@<TRIPOS>BOND
1     1     2     2
2     2     3     am
3     2     17    1
4     3     4     1
5     3     39    1
6     4     16    1
7     4     5     2
8     5     6     1
9     6     7     2
10    6     40    1
11    7     8     1
12    7     16    1
13    8     9     1
14    9     10    1
15    9     41    1
16    9     42    1
17    10    11    1
18    10    43    1
19    10    44    1
20    11    15    1
21    11    12    1
22    12    13    1
23    12    45    1
24    12    46    1
25    13    14    1
26    13    47    1
27    13    48    1
28    14    15    1
29    14    49    1
30    14    50    1
31    15    51    1
32    15    52    1
33    17    31    1
34    17    18    1
35    17    30    1
36    18    29    ar
37    18    19    ar
38    19    20    ar
39    19    53    1
40    20    21    ar
41    20    54    1
42    21    22    1
43    21    28    ar
44    22    23    2
45    22    24    2
46    22    25    1
47    25    27    1
48    25    26    1
49    25    55    1
50    26    27    1
51    26    56    1
52    26    57    1
53    27    58    1
54    27    59    1
55    28    29    ar
56    28    60    1
57    29    61    1
58    30    31    1
59    30    62    1
60    30    63    1
61    31    32    1
62    31    33    1
63    33    38    1
64    33    34    1
65    33    64    1
66    34    35    1
67    34    65    1
68    34    66    1
69    35    36    1
70    35    67    1
71    35    68    1
72    36    37    1
73    36    69    1
74    36    70    1
75    37    38    1
76    37    71    1
77    37    72    1
78    38    73    1
79    38    74    1
@<TRIPOS>SUBSTRUCTURE
1   ZINC000070471849 1     RESIDUE    1   A     ZIN   1
