@<TRIPOS>MOLECULE
ZINC000003818809
  48   51    0    0    0
SMALL
USER_CHARGES
NO_NAME
@<TRIPOS>ATOM
    1 C1       -0.0187     1.5258     0.0104 C.3    1 <0>      -0.1800
    2 C2        0.0021    -0.0041     0.0020 C.3    1 <0>       0.0300
    3 H3        0.5000    -0.3635    -0.8985 H      1 <0>       0.1400
    4 C4       -1.4373    -0.5486     0.0584 C.3    1 <0>      -0.1400
    5 C5       -1.4939    -1.4078     1.3424 C.3    1 <0>      -0.1400
    6 C6       -0.0045    -1.7512     1.5954 C.3    1 <0>      -0.0100
    7 N7        0.7072    -0.5050     1.2018 N.4    1 <0>      -0.3900
    8 H8        0.6529     0.1760     1.9443 H      1 <0>       0.4200
    9 C9        2.1111    -0.8013     0.8869 C.3    1 <0>       0.0000
   10 C10       2.8351    -1.2500     2.1579 C.3    1 <0>      -0.0600
   11 C11       4.2753    -1.5540     1.8349 C.2    1 <0>       0.0000
   12 C12       5.2773    -0.6665     1.8912 C.2    1 <0>      -0.1700
   13 C13       6.4910    -1.3945     1.4993 C.ar   1 <0>      -0.1400
   14 C14       7.8309    -1.0445     1.3606 C.ar   1 <0>      -0.0500
   15 C15       8.7510    -2.0054     0.9587 C.ar   1 <0>      -0.0600
   16 C16      10.1812    -1.6450     0.8079 C.ar   1 <0>      -0.0200
   17 C17      10.6036    -0.3424     1.0750 C.ar   1 <0>      -0.1100
   18 C18      11.9310    -0.0063     0.9349 C.ar   1 <0>      -0.0600
   19 C19      12.8560    -0.9708     0.5253 C.ar   1 <0>      -0.0200
   20 C20      14.2374    -0.6227     0.3795 C.1    1 <0>       0.2400
   21 N21      15.3332    -0.3465     0.2640 N.1    1 <0>      -0.4000
   22 C22      12.4315    -2.2755     0.2584 C.ar   1 <0>      -0.0600
   23 C23      11.1044    -2.6101     0.4044 C.ar   1 <0>      -0.1100
   24 C24       8.3279    -3.3125     0.6971 C.ar   1 <0>      -0.0700
   25 C25       7.0037    -3.6596     0.8333 C.ar   1 <0>      -0.1000
   26 C26       6.0709    -2.7100     1.2350 C.ar   1 <0>       0.0700
   27 O27       4.7412    -2.7562     1.4543 O.3    1 <0>      -0.1900
   28 H28       1.0039     1.9031     0.0027 H      1 <0>       0.0800
   29 H29      -0.5459     1.8868    -0.8726 H      1 <0>       0.1100
   30 H30      -0.5289     1.8773     0.9072 H      1 <0>       0.0800
   31 H31      -2.1505     0.2733     0.1214 H      1 <0>       0.1100
   32 H32      -1.6438    -1.1634    -0.8176 H      1 <0>       0.1000
   33 H33      -1.9038    -0.8333     2.1731 H      1 <0>       0.1000
   34 H34      -2.0757    -2.3142     1.1746 H      1 <0>       0.1200
   35 H35       0.1651    -1.9754     2.6485 H      1 <0>       0.1400
   36 H36       0.3100    -2.5852     0.9680 H      1 <0>       0.1300
   37 H37       2.1566    -1.5965     0.1429 H      1 <0>       0.1300
   38 H38       2.5916     0.0938     0.4919 H      1 <0>       0.1300
   39 H39       2.7896    -0.4548     2.9020 H      1 <0>       0.1200
   40 H40       2.3546    -2.1451     2.5529 H      1 <0>       0.1100
   41 H41       5.2067     0.3749     2.1685 H      1 <0>       0.1600
   42 H42       8.1531    -0.0338     1.5634 H      1 <0>       0.1400
   43 H43       9.8887     0.4026     1.3915 H      1 <0>       0.1400
   44 H44      12.2576     1.0023     1.1411 H      1 <0>       0.1400
   45 H45      13.1452    -3.0217    -0.0582 H      1 <0>       0.1400
   46 H46      10.7761    -3.6183     0.1986 H      1 <0>       0.1400
   47 H47       9.0468    -4.0556     0.3850 H      1 <0>       0.1500
   48 H48       6.6880    -4.6718     0.6279 H      1 <0>       0.1400
@<TRIPOS>BOND
   1    1    2 1
   2    1   28 1
   3    1   29 1
   4    1   30 1
   5    2    3 1
   6    2    7 1
   7    2    4 1
   8    4    5 1
   9    4   31 1
  10    4   32 1
  11    5    6 1
  12    5   33 1
  13    5   34 1
  14    6    7 1
  15    6   35 1
  16    6   36 1
  17    7    8 1
  18    7    9 1
  19    9   10 1
  20    9   37 1
  21    9   38 1
  22   10   11 1
  23   10   39 1
  24   10   40 1
  25   11   27 1
  26   11   12 2
  27   12   13 1
  28   12   41 1
  29   13   26 ar
  30   13   14 ar
  31   14   15 ar
  32   14   42 1
  33   15   16 1
  34   15   24 ar
  35   16   23 ar
  36   16   17 ar
  37   17   18 ar
  38   17   43 1
  39   18   19 ar
  40   18   44 1
  41   19   20 1
  42   19   22 ar
  43   20   21 3
  44   22   23 ar
  45   22   45 1
  46   23   46 1
  47   24   25 ar
  48   24   47 1
  49   25   26 ar
  50   25   48 1
  51   26   27 1
