@<TRIPOS>MOLECULE
ZINC000003830974
87    93    1     0     0
SMALL
USER_CHARGES
@<TRIPOS>ATOM
1      C1     -0.0187    1.5258    0.0104 C.3      1 ZINC000003830974   -0.1500
2      C2      0.0021   -0.0041    0.0020 C.3      1 ZINC000003830974   -0.1300
3      C3      0.7182   -0.4975   -1.2568 C.3      1 ZINC000003830974    0.1800
4      H4      0.2444   -0.0644   -2.1377 H        1 ZINC000003830974    0.1100
5      C5      0.6303   -2.0233   -1.3286 C.3      1 ZINC000003830974   -0.1600
6      N6      2.1249   -0.0911   -1.2094 N.am     1 ZINC000003830974   -0.4400
7      N7      3.0612   -0.4522   -0.2308 N.2      1 ZINC000003830974   -0.2600
8      C8      4.1921    0.1006   -0.5314 C.2      1 ZINC000003830974    0.2500
9      N9      4.0372    0.8249   -1.6898 N.am     1 ZINC000003830974   -0.5000
10     C10     5.0387    1.5672   -2.3351 C.ar     1 ZINC000003830974    0.1300
11     C11     4.7457    2.2605   -3.5016 C.ar     1 ZINC000003830974   -0.1100
12     C12     5.7302    2.9911   -4.1364 C.ar     1 ZINC000003830974   -0.1100
13     C13     7.0140    3.0323   -3.6078 C.ar     1 ZINC000003830974    0.1100
14     N14     8.0115    3.7726   -4.2503 N.3      1 ZINC000003830974   -0.4900
15     C15     8.1701    3.3422   -5.6464 C.3      1 ZINC000003830974    0.0600
16     C16     9.2118    4.2271   -6.3351 C.3      1 ZINC000003830974    0.0500
17     N17    10.4866    4.1335   -5.6101 N.3      1 ZINC000003830974   -0.4900
18     C18    11.4847    4.8742   -6.2530 C.ar     1 ZINC000003830974    0.0700
19     C19    11.1908    5.5730   -7.4164 C.ar     1 ZINC000003830974   -0.1300
20     C20    12.1763    6.3042   -8.0499 C.ar     1 ZINC000003830974   -0.1200
21     C21    13.4595    6.3404   -7.5247 C.ar     1 ZINC000003830974    0.1100
22     O22    14.4295    7.0603   -8.1495 O.3      1 ZINC000003830974   -0.3100
23     C23    15.7283    7.0532   -7.5535 C.3      1 ZINC000003830974    0.0500
24     C24    16.6785    7.9114   -8.3911 C.3      1 ZINC000003830974    0.0600
25     H25    16.6769    7.5830   -9.4305 H        1 ZINC000003830974    0.1000
26     C26    18.1124    7.8705   -7.8062 C.3      1 ZINC000003830974    0.0300
27     O27    18.6537    9.1323   -8.2659 O.3      1 ZINC000003830974   -0.3500
28     C28    17.5486   10.0497   -8.2067 C.3      1 ZINC000003830974    0.2900
29     C29    17.5898   10.8194   -6.8851 C.3      1 ZINC000003830974    0.1100
30     N30    17.5163    9.8751   -5.7674 N.pl3    1 ZINC000003830974   -0.3800
31     C31    18.3810    9.7696   -4.7436 C.2      1 ZINC000003830974    0.2600
32     N32    17.9648    8.8098   -3.9579 N.2      1 ZINC000003830974   -0.5400
33     C33    16.8428    8.2815   -4.4450 C.2      1 ZINC000003830974    0.1900
34     N34    16.5252    8.9041   -5.5496 N.2      1 ZINC000003830974   -0.3000
35     C35    17.6316   11.0174   -9.3589 C.ar     1 ZINC000003830974   -0.0900
36     C36    17.7266   12.3745   -9.1158 C.ar     1 ZINC000003830974   -0.0800
37     C37    17.8023   13.2629  -10.1723 C.ar     1 ZINC000003830974   -0.1000
38     C38    17.7834   12.7938  -11.4736 C.ar     1 ZINC000003830974   -0.0100
39     Cl39   17.8791   13.9095  -12.8001 Cl       1 ZINC000003830974   -0.0500
40     C40    17.6887   11.4353  -11.7176 C.ar     1 ZINC000003830974   -0.1000
41     C41    17.6183   10.5466  -10.6601 C.ar     1 ZINC000003830974    0.0200
42     Cl42   17.5000    8.8417  -10.9652 Cl       1 ZINC000003830974   -0.0400
43     O43    16.3232    9.3056   -8.2966 O.3      1 ZINC000003830974   -0.3300
44     C44    13.7539    5.6431   -6.3624 C.ar     1 ZINC000003830974   -0.1800
45     C45    12.7682    4.9156   -5.7247 C.ar     1 ZINC000003830974   -0.1000
46     C46    10.3280    4.5639   -4.2139 C.3      1 ZINC000003830974    0.0600
47     C47     9.2863    3.6790   -3.5253 C.3      1 ZINC000003830974    0.0500
48     C48     7.3067    2.3385   -2.4407 C.ar     1 ZINC000003830974   -0.1400
49     C49     6.3203    1.6125   -1.8036 C.ar     1 ZINC000003830974   -0.1100
50     C50     2.7605    0.6955   -2.1028 C.2      1 ZINC000003830974    0.6500
51     O51     2.2689    1.2018   -3.0958 O.2      1 ZINC000003830974   -0.5400
52     H52     1.0039    1.9031    0.0027 H        1 ZINC000003830974    0.0500
53     H53    -0.5459    1.8868   -0.8726 H        1 ZINC000003830974    0.0600
54     H54    -0.5289    1.8773    0.9072 H        1 ZINC000003830974    0.0600
55     H55     0.5293   -0.3651    0.8851 H        1 ZINC000003830974    0.0800
56     H56    -1.0205   -0.3814    0.0098 H        1 ZINC000003830974    0.0800
57     H57     1.1405   -2.3748   -2.2254 H        1 ZINC000003830974    0.0600
58     H58     1.1041   -2.4564   -0.4477 H        1 ZINC000003830974    0.0700
59     H59    -0.4163   -2.3257   -1.3639 H        1 ZINC000003830974    0.0800
60     H60     5.1072    0.0083    0.0347 H        1 ZINC000003830974    0.2300
61     H61     3.7475    2.2281   -3.9128 H        1 ZINC000003830974    0.1600
62     H62     5.5023    3.5301   -5.0441 H        1 ZINC000003830974    0.1300
63     H63     8.5012    2.3040   -5.6715 H        1 ZINC000003830974    0.0600
64     H64     7.2159    3.4325   -6.1654 H        1 ZINC000003830974    0.0900
65     H65     9.3522    3.8912   -7.3625 H        1 ZINC000003830974    0.0900
66     H66     8.8680    5.2615   -6.3341 H        1 ZINC000003830974    0.0600
67     H67    10.1918    5.5444   -7.8259 H        1 ZINC000003830974    0.1300
68     H68    11.9479    6.8478   -8.9548 H        1 ZINC000003830974    0.1300
69     H69    15.6669    7.4590   -6.5437 H        1 ZINC000003830974    0.1000
70     H70    16.1034    6.0307   -7.5119 H        1 ZINC000003830974    0.0700
71     H71    18.0887    7.8297   -6.7173 H        1 ZINC000003830974    0.0800
72     H72    18.6766    7.0320   -8.2145 H        1 ZINC000003830974    0.1100
73     H73    18.5197   11.3846   -6.8226 H        1 ZINC000003830974    0.1200
74     H74    16.7439   11.5052   -6.8375 H        1 ZINC000003830974    0.1100
75     H75    19.2653   10.3718   -4.5957 H        1 ZINC000003830974    0.2200
76     H76    16.2840    7.4729   -3.9975 H        1 ZINC000003830974    0.2200
77     H77    17.7414   12.7412   -8.1001 H        1 ZINC000003830974    0.1500
78     H78    17.8759   14.3234   -9.9817 H        1 ZINC000003830974    0.1500
79     H79    17.6740   11.0686  -12.7333 H        1 ZINC000003830974    0.1500
80     H80    14.7533    5.6718   -5.9542 H        1 ZINC000003830974    0.1300
81     H81    12.9977    4.3727   -4.8197 H        1 ZINC000003830974    0.1300
82     H82    11.2822    4.4736   -3.6949 H        1 ZINC000003830974    0.0900
83     H83     9.9969    5.6021   -4.1889 H        1 ZINC000003830974    0.0500
84     H84     9.1459    4.0149   -2.4979 H        1 ZINC000003830974    0.0900
85     H85     9.6301    2.6446   -3.5262 H        1 ZINC000003830974    0.0600
86     H86     8.3049    2.3700   -2.0296 H        1 ZINC000003830974    0.1400
87     H87     6.5479    1.0729   -0.8961 H        1 ZINC000003830974    0.1300
@<TRIPOS>BOND
1     1     2     1
2     1     52    1
3     1     53    1
4     1     54    1
5     2     3     1
6     2     55    1
7     2     56    1
8     3     4     1
9     3     5     1
10    3     6     1
11    5     57    1
12    5     58    1
13    5     59    1
14    6     50    am
15    6     7     1
16    7     8     2
17    8     9     1
18    8     60    1
19    9     10    1
20    9     50    am
21    10    49    ar
22    10    11    ar
23    11    12    ar
24    11    61    1
25    12    13    ar
26    12    62    1
27    13    14    1
28    13    48    ar
29    14    47    1
30    14    15    1
31    15    16    1
32    15    63    1
33    15    64    1
34    16    17    1
35    16    65    1
36    16    66    1
37    17    18    1
38    17    46    1
39    18    45    ar
40    18    19    ar
41    19    20    ar
42    19    67    1
43    20    21    ar
44    20    68    1
45    21    22    1
46    21    44    ar
47    22    23    1
48    23    24    1
49    23    69    1
50    23    70    1
51    24    25    1
52    24    43    1
53    24    26    1
54    26    27    1
55    26    71    1
56    26    72    1
57    27    28    1
58    28    29    1
59    28    35    1
60    28    43    1
61    29    30    1
62    29    73    1
63    29    74    1
64    30    34    1
65    30    31    1
66    31    32    2
67    31    75    1
68    32    33    1
69    33    34    2
70    33    76    1
71    35    41    ar
72    35    36    ar
73    36    37    ar
74    36    77    1
75    37    38    ar
76    37    78    1
77    38    39    1
78    38    40    ar
79    40    41    ar
80    40    79    1
81    41    42    1
82    44    45    ar
83    44    80    1
84    45    81    1
85    46    47    1
86    46    82    1
87    46    83    1
88    47    84    1
89    47    85    1
90    48    49    ar
91    48    86    1
92    49    87    1
93    50    51    2
@<TRIPOS>SUBSTRUCTURE
1   ZINC000003830974 1     RESIDUE    1   A     ZIN   1
