@<TRIPOS>MOLECULE
ZINC000072190221
66    71    1     0     0
SMALL
USER_CHARGES
@<TRIPOS>ATOM
1      C1      0.9133    1.3419   -0.1861 C.3      1 ZINC000072190221   -0.0900
2      C2      0.4373   -0.0849   -0.0937 C.2      1 ZINC000072190221   -0.1100
3      C3     -0.1726   -0.8147   -1.0958 C.2      1 ZINC000072190221   -0.0900
4      C4     -0.5367   -0.5266   -2.4311 C.2      1 ZINC000072190221    0.5300
5      N5     -0.2820    0.7188   -2.9721 N.pl3    1 ZINC000072190221   -0.6100
6      C6     -0.5164    0.9524   -4.3324 C.ar     1 ZINC000072190221    0.1100
7      C7     -0.7962   -0.1181   -5.1824 C.ar     1 ZINC000072190221   -0.0900
8      C8     -1.0281    0.0884   -6.5118 C.ar     1 ZINC000072190221   -0.1200
9      C9     -0.9875    1.3780   -7.0356 C.ar     1 ZINC000072190221    0.1200
10     C10    -0.7061    2.4658   -6.1869 C.ar     1 ZINC000072190221   -0.1600
11     C11    -0.4753    2.2418   -4.8252 C.ar     1 ZINC000072190221   -0.0800
12     C12    -0.7358    3.6597   -7.0259 C.2      1 ZINC000072190221    0.0700
13     N13    -1.0095    3.2846   -8.2428 N.2      1 ZINC000072190221   -0.2500
14     N14    -1.1711    1.8963   -8.2930 N.pl3    1 ZINC000072190221   -0.4000
15     C15    -1.4859    1.1200   -9.4948 C.3      1 ZINC000072190221    0.1800
16     C16    -0.2063    0.7024  -10.1726 C.ar     1 ZINC000072190221   -0.0900
17     C17     0.3694    1.5209  -11.1261 C.ar     1 ZINC000072190221   -0.1000
18     C18     1.5434    1.1391  -11.7487 C.ar     1 ZINC000072190221   -0.0900
19     C19     2.1425   -0.0614  -11.4183 C.ar     1 ZINC000072190221   -0.1400
20     C20     1.5669   -0.8821  -10.4628 C.ar     1 ZINC000072190221    0.1000
21     F21     2.1517   -2.0561  -10.1390 F        1 ZINC000072190221   -0.1400
22     C22     0.3942   -0.4963   -9.8363 C.ar     1 ZINC000072190221   -0.1300
23     N23    -1.1240   -1.4643   -3.1566 N.2      1 ZINC000072190221   -0.6100
24     C24    -1.3805   -2.6728   -2.6597 C.2      1 ZINC000072190221    0.3200
25     N25    -1.0706   -3.0036   -1.4361 N.2      1 ZINC000072190221   -0.3400
26     N26    -0.4452   -2.0731   -0.5944 N.pl3    1 ZINC000072190221   -0.2300
27     C27    -0.0169   -2.1270    0.6884 C.2      1 ZINC000072190221    0.0600
28     C28     0.5346   -0.9248    1.0217 C.2      1 ZINC000072190221    0.0900
29     N29     1.0921   -0.5860    2.2675 N.am     1 ZINC000072190221   -0.6200
30     C30     1.1122   -1.4917    3.2654 C.2      1 ZINC000072190221    0.6500
31     O31     0.6485   -2.6010    3.0886 O.2      1 ZINC000072190221   -0.5600
32     O32     1.6461   -1.1673    4.4584 O.3      1 ZINC000072190221   -0.3500
33     C33     1.6336   -2.1923    5.4867 C.3      1 ZINC000072190221    0.1000
34     C34     2.2773   -1.6435    6.7616 C.3      1 ZINC000072190221    0.0500
35     H35     1.7717   -0.7246    7.0582 H        1 ZINC000072190221    0.1100
36     C36     2.1550   -2.6790    7.8826 C.3      1 ZINC000072190221    0.0300
37     O37     2.8236   -2.1923    9.0494 O.3      1 ZINC000072190221   -0.3700
38     C38     4.2104   -1.9104    8.8428 C.3      1 ZINC000072190221    0.0200
39     C39     4.3536   -0.8671    7.7315 C.3      1 ZINC000072190221    0.0200
40     N40     3.6988   -1.3632    6.5123 N.3      1 ZINC000072190221   -0.6700
41     H41     1.9736    1.3556   -0.4388 H        1 ZINC000072190221    0.0800
42     H42     0.3489    1.8639   -0.9588 H        1 ZINC000072190221    0.0600
43     H43     0.7618    1.8383    0.7724 H        1 ZINC000072190221    0.0800
44     H44     0.0593    1.4314   -2.4094 H        1 ZINC000072190221    0.4200
45     H45    -0.8292   -1.1214   -4.7843 H        1 ZINC000072190221    0.2000
46     H46    -1.2431   -0.7497   -7.1582 H        1 ZINC000072190221    0.1300
47     H47    -0.2591    3.0698   -4.1663 H        1 ZINC000072190221    0.1300
48     H48    -0.5621    4.6734   -6.6964 H        1 ZINC000072190221    0.2000
49     H49    -2.0554    0.2335   -9.2159 H        1 ZINC000072190221    0.1000
50     H50    -2.0761    1.7310  -10.1778 H        1 ZINC000072190221    0.1100
51     H51    -0.0983    2.4592  -11.3852 H        1 ZINC000072190221    0.1300
52     H52     1.9922    1.7792  -12.4938 H        1 ZINC000072190221    0.1400
53     H53     3.0591   -0.3598  -11.9053 H        1 ZINC000072190221    0.1400
54     H54    -0.0554   -1.1353   -9.0907 H        1 ZINC000072190221    0.1400
55     H55    -1.8621   -3.4046   -3.2914 H        1 ZINC000072190221    0.2200
56     H56    -0.0943   -2.9845    1.3405 H        1 ZINC000072190221    0.2100
57     H57     1.4622    0.2994    2.4086 H        1 ZINC000072190221    0.4200
58     H58     0.6045   -2.4844    5.6961 H        1 ZINC000072190221    0.0800
59     H59     2.1946   -3.0606    5.1411 H        1 ZINC000072190221    0.0800
60     H60     1.1023   -2.8469    8.1098 H        1 ZINC000072190221    0.1100
61     H61     2.6132   -3.6155    7.5647 H        1 ZINC000072190221    0.0600
62     H62     4.6442   -1.5223    9.7644 H        1 ZINC000072190221    0.1000
63     H63     4.7284   -2.8245    8.5528 H        1 ZINC000072190221    0.0500
64     H64     3.8818    0.0645    8.0439 H        1 ZINC000072190221    0.0900
65     H65     5.4105   -0.6913    7.5313 H        1 ZINC000072190221    0.0900
66     H66     4.1706   -2.1807    6.1555 H        1 ZINC000072190221    0.3400
@<TRIPOS>BOND
1     1     2     1
2     1     41    1
3     1     42    1
4     1     43    1
5     2     28    1
6     2     3     2
7     3     26    1
8     3     4     1
9     4     5     1
10    4     23    2
11    5     6     1
12    5     44    1
13    6     11    ar
14    6     7     ar
15    7     8     ar
16    7     45    1
17    8     9     ar
18    8     46    1
19    9     14    1
20    9     10    ar
21    10    11    ar
22    10    12    1
23    11    47    1
24    12    13    2
25    12    48    1
26    13    14    1
27    14    15    1
28    15    16    1
29    15    49    1
30    15    50    1
31    16    22    ar
32    16    17    ar
33    17    18    ar
34    17    51    1
35    18    19    ar
36    18    52    1
37    19    20    ar
38    19    53    1
39    20    21    1
40    20    22    ar
41    22    54    1
42    23    24    1
43    24    25    2
44    24    55    1
45    25    26    1
46    26    27    1
47    27    28    2
48    27    56    1
49    28    29    1
50    29    30    am
51    29    57    1
52    30    31    2
53    30    32    1
54    32    33    1
55    33    34    1
56    33    58    1
57    33    59    1
58    34    35    1
59    34    40    1
60    34    36    1
61    36    37    1
62    36    60    1
63    36    61    1
64    37    38    1
65    38    39    1
66    38    62    1
67    38    63    1
68    39    40    1
69    39    64    1
70    39    65    1
71    40    66    1
@<TRIPOS>SUBSTRUCTURE
1   ZINC000072190221 1     RESIDUE    1   A     ZIN   1
