@<TRIPOS>MOLECULE
ZINC000011726774
  30   30    0    0    0
SMALL
USER_CHARGES
NO_NAME
@<TRIPOS>ATOM
    1 C1       -0.0187     1.5258     0.0104 C.3    1 <0>      -0.1500
    2 C2        0.0021    -0.0041     0.0020 C.3    1 <0>      -0.1400
    3 C3        0.7182    -0.4975    -1.2568 C.3    1 <0>       0.1400
    4 H4        1.7103    -0.0491    -1.3098 H      1 <0>       0.1200
    5 C5        0.8473    -1.9981    -1.2057 C.2    1 <0>       0.5100
    6 N6        1.5230    -2.5824    -0.1965 N.am   1 <0>      -0.8500
    7 O7        0.3431    -2.6799    -2.0728 O.2    1 <0>      -0.5200
    8 N8       -0.0549    -0.1139    -2.4405 N.am   1 <0>      -0.6100
    9 C9        0.4537     0.7392    -3.5211 C.3    1 <0>       0.1200
   10 C10      -0.5046     0.5120    -4.7113 C.3    1 <0>      -0.0600
   11 H11      -0.1344    -0.2779    -5.3648 H      1 <0>       0.1100
   12 C12      -0.7198     1.7891    -5.4818 C.2    1 <0>      -0.2000
   13 C13      -0.3913     1.8529    -6.7552 C.2    1 <0>       0.2300
   14 F14       0.1386     0.7735    -7.3711 F      1 <0>      -0.1200
   15 F15      -0.5842     2.9978    -7.4460 F      1 <0>      -0.1200
   16 C16      -1.8015     0.0732    -3.9926 C.3    1 <0>      -0.1400
   17 C17      -1.3193    -0.5026    -2.6794 C.2    1 <0>       0.5300
   18 O18      -1.9800    -1.2066    -1.9452 O.2    1 <0>      -0.5100
   19 H19       1.0039     1.9031     0.0027 H      1 <0>       0.0600
   20 H20      -0.5459     1.8868    -0.8726 H      1 <0>       0.0600
   21 H21      -0.5289     1.8773     0.9072 H      1 <0>       0.0600
   22 H22       0.5293    -0.3651     0.8851 H      1 <0>       0.0800
   23 H23      -1.0205    -0.3814     0.0098 H      1 <0>       0.0900
   24 H24       1.9263    -2.0370     0.4969 H      1 <0>       0.4000
   25 H25       1.6061    -3.5482    -0.1637 H      1 <0>       0.4000
   26 H26       0.4349     1.7855    -3.2162 H      1 <0>       0.0800
   27 H27       1.4671     0.4423    -3.7908 H      1 <0>       0.0800
   28 H28      -1.1434     2.6520    -4.9895 H      1 <0>       0.1600
   29 H29      -2.4518     0.9310    -3.8215 H      1 <0>       0.1100
   30 H30      -2.3199    -0.6899    -4.5731 H      1 <0>       0.1100
@<TRIPOS>BOND
   1    1    2 1
   2    1   19 1
   3    1   20 1
   4    1   21 1
   5    2    3 1
   6    2   22 1
   7    2   23 1
   8    3    4 1
   9    3    5 1
  10    3    8 1
  11    5    6 am
  12    5    7 2
  13    6   24 1
  14    6   25 1
  15    8   17 am
  16    8    9 1
  17    9   10 1
  18    9   26 1
  19    9   27 1
  20   10   11 1
  21   10   12 1
  22   10   16 1
  23   12   13 2
  24   12   28 1
  25   13   14 1
  26   13   15 1
  27   16   17 1
  28   16   29 1
  29   16   30 1
  30   17   18 2
