@<TRIPOS>MOLECULE
ZINC000003931585
  31   31    0    0    0
SMALL
USER_CHARGES
NO_NAME
@<TRIPOS>ATOM
    1 C1        0.9773     1.2459    -0.3798 C.3    1 <0>      -0.1500
    2 C2        0.5213    -0.1988    -0.1659 C.3    1 <0>      -0.1200
    3 C3        1.1269    -0.7379     1.1316 C.3    1 <0>      -0.1200
    4 H4        0.8686    -0.0739     1.9565 H      1 <0>       0.0800
    5 C5        2.6489    -0.8102     0.9926 C.3    1 <0>      -0.1600
    6 C6        0.5732    -2.1367     1.4102 C.3    1 <0>       0.0800
    7 H7        0.8712    -2.8118     0.6080 H      1 <0>       0.1000
    8 N8       -0.8929    -2.0778     1.4814 N.3    1 <0>      -0.8300
    9 C9        1.1199    -2.6415     2.7207 C.2    1 <0>       0.5400
   10 O10       0.5971    -2.3103     3.7637 O.2    1 <0>      -0.5200
   11 N11       2.1897    -3.4612     2.7336 N.am   1 <0>      -0.6200
   12 C12       2.8295    -3.8976     3.9728 C.3    1 <0>       0.1000
   13 C13       3.4353    -5.3147     3.7733 C.3    1 <0>      -0.0800
   14 S14       4.1183    -5.1259     2.0726 S.3    1 <0>      -0.2600
   15 C15       2.7965    -3.9878     1.5019 C.3    1 <0>       0.1400
   16 H16       2.0649     1.2777    -0.4458 H      1 <0>       0.0600
   17 H17       0.5459     1.6300    -1.3042 H      1 <0>       0.0600
   18 H18       0.6461     1.8593     0.4581 H      1 <0>       0.0500
   19 H19      -0.5662    -0.2305    -0.0999 H      1 <0>       0.0600
   20 H20       0.8526    -0.8122    -1.0038 H      1 <0>       0.0700
   21 H21       3.0360     0.1719     0.7213 H      1 <0>       0.0700
   22 H22       3.0858    -1.1238     1.9407 H      1 <0>       0.0600
   23 H23       2.9091    -1.5303     0.2168 H      1 <0>       0.0600
   24 H24      -1.1945    -1.4578     2.2181 H      1 <0>       0.3500
   25 H25      -1.2873    -1.8037     0.5940 H      1 <0>       0.3500
   26 H26       3.6218    -3.1979     4.2387 H      1 <0>       0.0800
   27 H27       2.0895    -3.9282     4.7725 H      1 <0>       0.1000
   28 H28       4.2247    -5.5143     4.4980 H      1 <0>       0.1300
   29 H29       2.6643    -6.0843     3.8081 H      1 <0>       0.1000
   30 H30       2.0577    -4.5306     0.9122 H      1 <0>       0.1000
   31 H31       3.2242    -3.1730     0.9178 H      1 <0>       0.1100
@<TRIPOS>BOND
   1    1    2 1
   2    1   16 1
   3    1   17 1
   4    1   18 1
   5    2    3 1
   6    2   19 1
   7    2   20 1
   8    3    4 1
   9    3    5 1
  10    3    6 1
  11    5   21 1
  12    5   22 1
  13    5   23 1
  14    6    7 1
  15    6    8 1
  16    6    9 1
  17    8   24 1
  18    8   25 1
  19    9   10 2
  20    9   11 am
  21   11   15 1
  22   11   12 1
  23   12   13 1
  24   12   26 1
  25   12   27 1
  26   13   14 1
  27   13   28 1
  28   13   29 1
  29   14   15 1
  30   15   30 1
  31   15   31 1
