@<TRIPOS>MOLECULE
ZINC000077024213
60    64    1     0     0
SMALL
USER_CHARGES
@<TRIPOS>ATOM
1      C1     -2.5678   -0.0610   -0.4681 C.3      1 ZINC000077024213    0.0800
2      N2     -1.3120   -0.7826   -0.2478 N.am     1 ZINC000077024213   -0.7200
3      C3     -0.7227   -1.4368   -1.2682 C.2      1 ZINC000077024213    0.5600
4      O4     -1.2335   -1.4281   -2.3717 O.2      1 ZINC000077024213   -0.5300
5      C5      0.5414   -2.1632   -1.0465 C.ar     1 ZINC000077024213   -0.1300
6      C6      1.1043   -2.9537   -2.0795 C.ar     1 ZINC000077024213    0.0000
7      C7      0.4803   -3.0659   -3.3300 C.ar     1 ZINC000077024213   -0.0800
8      C8      1.0468   -3.8329   -4.3017 C.ar     1 ZINC000077024213   -0.1400
9      C9      2.2459   -4.5135   -4.0705 C.ar     1 ZINC000077024213    0.0300
10     O10     2.7880   -5.2723   -5.0588 O.3      1 ZINC000077024213   -0.2100
11     C11     3.4070   -4.6354   -6.0834 C.ar     1 ZINC000077024213    0.2900
12     C12     3.8892   -5.3522   -7.2010 C.ar     1 ZINC000077024213   -0.0800
13     C13     3.7449   -6.7453   -7.2899 C.ar     1 ZINC000077024213   -0.1200
14     C14     4.2226   -7.4052   -8.3847 C.ar     1 ZINC000077024213    0.1300
15     O15     4.0823   -8.7549   -8.4713 O.3      1 ZINC000077024213   -0.3000
16     C16     3.4277   -9.4103   -7.3831 C.3      1 ZINC000077024213    0.0100
17     C17     4.8564   -6.7051   -9.4218 C.ar     1 ZINC000077024213    0.2100
18     O18     5.3237   -7.3847  -10.5016 O.3      1 ZINC000077024213   -0.3100
19     C19     5.9599   -6.6174  -11.5256 C.3      1 ZINC000077024213    0.0700
20     C20     6.4166   -7.5480  -12.6510 C.3      1 ZINC000077024213   -0.0600
21     N21     6.7540   -8.9181  -12.2425 N.4      1 ZINC000077024213   -0.6000
22     H22     6.1482   -9.2028  -11.4875 H        1 ZINC000077024213    0.4500
23     H23     6.6316   -9.5424  -13.0256 H        1 ZINC000077024213    0.4400
24     H24     7.7141   -8.9502  -11.9337 H        1 ZINC000077024213    0.4400
25     C25     5.7771   -7.3581  -14.0279 C.3      1 ZINC000077024213   -0.1400
26     C26     7.2274   -6.9312  -13.7925 C.3      1 ZINC000077024213   -0.1300
27     C27     5.0095   -5.3503   -9.3610 C.ar     1 ZINC000077024213   -0.2200
28     C28     4.5286   -4.6424   -8.2465 C.ar     1 ZINC000077024213    0.1800
29     N29     4.6674   -3.3142   -8.1642 N.ar     1 ZINC000077024213   -0.4900
30     H30     5.1062   -2.8388   -8.8869 H        1 ZINC000077024213    0.4500
31     C31     4.2242   -2.6385   -7.1298 C.ar     1 ZINC000077024213    0.2400
32     C32     3.5806   -3.2623   -6.0689 C.ar     1 ZINC000077024213   -0.2600
33     C33     2.8796   -4.4249   -2.8633 C.ar     1 ZINC000077024213   -0.0800
34     C34     2.3195   -3.6410   -1.8409 C.ar     1 ZINC000077024213   -0.0500
35     C35     2.9453   -3.5273   -0.5871 C.ar     1 ZINC000077024213   -0.0700
36     C36     2.3842   -2.7613    0.3906 C.ar     1 ZINC000077024213   -0.1100
37     C37     1.1957   -2.0758    0.1735 C.ar     1 ZINC000077024213   -0.0500
38     H38    -2.4159    0.7106   -1.2228 H        1 ZINC000077024213    0.0700
39     H39    -3.3324   -0.7584   -0.8103 H        1 ZINC000077024213    0.0700
40     H40    -2.8894    0.4017    0.4649 H        1 ZINC000077024213    0.0800
41     H41    -0.9046   -0.7895    0.6325 H        1 ZINC000077024213    0.4000
42     H42    -0.4467   -2.5459   -3.5216 H        1 ZINC000077024213    0.1900
43     H43     0.5633   -3.9170   -5.2637 H        1 ZINC000077024213    0.1400
44     H44     3.2585   -7.2923   -6.4959 H        1 ZINC000077024213    0.1800
45     H45     3.9849   -9.2321   -6.4634 H        1 ZINC000077024213    0.0700
46     H46     2.4166   -9.0170   -7.2774 H        1 ZINC000077024213    0.0700
47     H47     3.3822  -10.4816   -7.5786 H        1 ZINC000077024213    0.1200
48     H48     5.2557   -5.8861  -11.9222 H        1 ZINC000077024213    0.1100
49     H49     6.8241   -6.1005  -11.1084 H        1 ZINC000077024213    0.1000
50     H50     5.6066   -8.2499  -14.6309 H        1 ZINC000077024213    0.1300
51     H51     5.0312   -6.5702  -14.1321 H        1 ZINC000077024213    0.1400
52     H52     7.4355   -5.8624  -13.7417 H        1 ZINC000077024213    0.1400
53     H53     8.0110   -7.5421  -14.2406 H        1 ZINC000077024213    0.1400
54     H54     5.4996   -4.8239  -10.1667 H        1 ZINC000077024213    0.1700
55     H55     4.3582   -1.5671   -7.1059 H        1 ZINC000077024213    0.2200
56     H56     3.2267   -2.6797   -5.2312 H        1 ZINC000077024213    0.1900
57     H57     3.8055   -4.9551   -2.6958 H        1 ZINC000077024213    0.1500
58     H58     3.8723   -4.0482   -0.3982 H        1 ZINC000077024213    0.1400
59     H59     2.8745   -2.6824    1.3496 H        1 ZINC000077024213    0.1400
60     H60     0.7723   -1.4757    0.9655 H        1 ZINC000077024213    0.1400
@<TRIPOS>BOND
1     1     2     1
2     1     38    1
3     1     39    1
4     1     40    1
5     2     3     am
6     2     41    1
7     3     4     2
8     3     5     1
9     5     37    ar
10    5     6     ar
11    6     34    ar
12    6     7     ar
13    7     8     ar
14    7     42    1
15    8     9     ar
16    8     43    1
17    9     10    1
18    9     33    ar
19    10    11    1
20    11    32    ar
21    11    12    ar
22    12    28    ar
23    12    13    ar
24    13    14    ar
25    13    44    1
26    14    15    1
27    14    17    ar
28    15    16    1
29    16    45    1
30    16    46    1
31    16    47    1
32    17    18    1
33    17    27    ar
34    18    19    1
35    19    20    1
36    19    48    1
37    19    49    1
38    20    26    1
39    20    21    1
40    20    25    1
41    21    22    1
42    21    23    1
43    21    24    1
44    25    26    1
45    25    50    1
46    25    51    1
47    26    52    1
48    26    53    1
49    27    28    ar
50    27    54    1
51    28    29    ar
52    29    30    1
53    29    31    ar
54    31    32    ar
55    31    55    1
56    32    56    1
57    33    34    ar
58    33    57    1
59    34    35    ar
60    35    36    ar
61    35    58    1
62    36    37    ar
63    36    59    1
64    37    60    1
@<TRIPOS>SUBSTRUCTURE
1   ZINC000077024213 1     RESIDUE    1   A     ZIN   1
