@<TRIPOS>MOLECULE
ZINC000049590175
66    66    1     0     0
SMALL
USER_CHARGES
@<TRIPOS>ATOM
1      C1     -0.0187    1.5258    0.0104 C.3      1 ZINC000049590175   -0.1500
2      C2      0.0021   -0.0041    0.0020 C.3      1 ZINC000049590175   -0.1300
3      C3     -1.4333   -0.5336    0.0129 C.3      1 ZINC000049590175   -0.1200
4      C4     -1.4126   -2.0635    0.0045 C.3      1 ZINC000049590175   -0.1200
5      C5     -2.8479   -2.5931    0.0153 C.3      1 ZINC000049590175   -0.1100
6      C6     -2.8272   -4.1229    0.0069 C.3      1 ZINC000049590175   -0.1100
7      C7     -4.2410   -4.6445    0.0176 C.ar     1 ZINC000049590175    0.0100
8      C8     -4.8802   -4.8849    1.2201 C.ar     1 ZINC000049590175   -0.1100
9      I9     -3.8832   -4.5240    3.0269 I        1 ZINC000049590175   -0.0100
10     C10    -6.1777   -5.3631    1.2299 C.ar     1 ZINC000049590175    0.0100
11     C11    -6.8745   -5.6247    2.5403 C.3      1 ZINC000049590175   -0.1100
12     C12    -7.6091   -4.3597    2.9887 C.3      1 ZINC000049590175   -0.1100
13     C13    -8.3165   -4.6252    4.3191 C.3      1 ZINC000049590175   -0.1200
14     C14    -9.0511   -3.3602    4.7674 C.3      1 ZINC000049590175   -0.1200
15     C15    -9.7585   -3.6257    6.0978 C.3      1 ZINC000049590175   -0.1300
16     C16   -10.4931   -2.3607    6.5462 C.3      1 ZINC000049590175   -0.1500
17     C17    -6.8360   -5.6010    0.0373 C.ar     1 ZINC000049590175   -0.1100
18     I18    -8.8019   -6.3248    0.0521 I        1 ZINC000049590175   -0.0100
19     C19    -6.1968   -5.3606   -1.1652 C.ar     1 ZINC000049590175    0.0100
20     C20    -6.9144   -5.6193   -2.4649 C.3      1 ZINC000049590175   -0.1100
21     C21    -7.6556   -4.3532   -2.8991 C.3      1 ZINC000049590175   -0.1100
22     C22    -8.3841   -4.6159   -4.2186 C.3      1 ZINC000049590175   -0.1200
23     C23    -9.1253   -3.3499   -4.6528 C.3      1 ZINC000049590175   -0.1200
24     C24    -9.8538   -3.6126   -5.9723 C.3      1 ZINC000049590175   -0.1300
25     C25   -10.5951   -2.3465   -6.4065 C.3      1 ZINC000049590175   -0.1500
26     C26    -4.9011   -4.8774   -1.1750 C.ar     1 ZINC000049590175   -0.1100
27     I27    -3.9327   -4.5132   -2.9967 I        1 ZINC000049590175   -0.0100
28     H28     1.0039    1.9031    0.0027 H        1 ZINC000049590175    0.0500
29     H29    -0.5459    1.8868   -0.8726 H        1 ZINC000049590175    0.0500
30     H30    -0.5289    1.8773    0.9072 H        1 ZINC000049590175    0.0500
31     H31     0.5123   -0.3556   -0.8948 H        1 ZINC000049590175    0.0600
32     H32     0.5293   -0.3651    0.8851 H        1 ZINC000049590175    0.0600
33     H33    -1.9435   -0.1821    0.9097 H        1 ZINC000049590175    0.0600
34     H34    -1.9605   -0.1726   -0.8702 H        1 ZINC000049590175    0.0600
35     H35    -0.9024   -2.4150   -0.8923 H        1 ZINC000049590175    0.0600
36     H36    -0.8854   -2.4246    0.8875 H        1 ZINC000049590175    0.0600
37     H37    -3.3581   -2.2415    0.9121 H        1 ZINC000049590175    0.0700
38     H38    -3.3751   -2.2320   -0.8677 H        1 ZINC000049590175    0.0700
39     H39    -2.3170   -4.4744   -0.8899 H        1 ZINC000049590175    0.0900
40     H40    -2.3000   -4.4840    0.8900 H        1 ZINC000049590175    0.0900
41     H41    -7.5914   -6.4361    2.4150 H        1 ZINC000049590175    0.0900
42     H42    -6.1381   -5.9036    3.2940 H        1 ZINC000049590175    0.0900
43     H43    -6.8921   -3.5483    3.1140 H        1 ZINC000049590175    0.0700
44     H44    -8.3455   -4.0807    2.2350 H        1 ZINC000049590175    0.0700
45     H45    -9.0335   -5.4366    4.1938 H        1 ZINC000049590175    0.0600
46     H46    -7.5802   -4.9041    5.0728 H        1 ZINC000049590175    0.0600
47     H47    -8.3342   -2.5488    4.8927 H        1 ZINC000049590175    0.0600
48     H48    -9.7875   -3.0812    4.0137 H        1 ZINC000049590175    0.0600
49     H49   -10.4755   -4.4371    5.9725 H        1 ZINC000049590175    0.0600
50     H50    -9.0222   -3.9046    6.8515 H        1 ZINC000049590175    0.0600
51     H51    -9.7762   -1.5493    6.6715 H        1 ZINC000049590175    0.0500
52     H52   -11.2295   -2.0817    5.7925 H        1 ZINC000049590175    0.0500
53     H53   -10.9971   -2.5498    7.4940 H        1 ZINC000049590175    0.0500
54     H54    -6.1901   -5.8970   -3.2307 H        1 ZINC000049590175    0.0900
55     H55    -7.6295   -6.4308   -2.3298 H        1 ZINC000049590175    0.0900
56     H56    -8.3798   -4.0756   -2.1333 H        1 ZINC000049590175    0.0700
57     H57    -6.9405   -3.5418   -3.0342 H        1 ZINC000049590175    0.0700
58     H58    -7.6599   -4.8936   -4.9845 H        1 ZINC000049590175    0.0600
59     H59    -9.0992   -5.4274   -4.0836 H        1 ZINC000049590175    0.0600
60     H60    -9.8496   -3.0722   -3.8870 H        1 ZINC000049590175    0.0600
61     H61    -8.4102   -2.5384   -4.7879 H        1 ZINC000049590175    0.0600
62     H62    -9.1296   -3.8903   -6.7382 H        1 ZINC000049590175    0.0600
63     H63   -10.5690   -4.4240   -5.8373 H        1 ZINC000049590175    0.0600
64     H64   -11.3193   -2.0688   -5.6407 H        1 ZINC000049590175    0.0500
65     H65    -9.8799   -1.5350   -6.5416 H        1 ZINC000049590175    0.0500
66     H66   -11.1141   -2.5336   -7.3466 H        1 ZINC000049590175    0.0500
@<TRIPOS>BOND
1     1     2     1
2     1     28    1
3     1     29    1
4     1     30    1
5     2     3     1
6     2     31    1
7     2     32    1
8     3     4     1
9     3     33    1
10    3     34    1
11    4     5     1
12    4     35    1
13    4     36    1
14    5     6     1
15    5     37    1
16    5     38    1
17    6     7     1
18    6     39    1
19    6     40    1
20    7     26    ar
21    7     8     ar
22    8     9     1
23    8     10    ar
24    10    11    1
25    10    17    ar
26    11    12    1
27    11    41    1
28    11    42    1
29    12    13    1
30    12    43    1
31    12    44    1
32    13    14    1
33    13    45    1
34    13    46    1
35    14    15    1
36    14    47    1
37    14    48    1
38    15    16    1
39    15    49    1
40    15    50    1
41    16    51    1
42    16    52    1
43    16    53    1
44    17    18    1
45    17    19    ar
46    19    20    1
47    19    26    ar
48    20    21    1
49    20    54    1
50    20    55    1
51    21    22    1
52    21    56    1
53    21    57    1
54    22    23    1
55    22    58    1
56    22    59    1
57    23    24    1
58    23    60    1
59    23    61    1
60    24    25    1
61    24    62    1
62    24    63    1
63    25    64    1
64    25    65    1
65    25    66    1
66    26    27    1
@<TRIPOS>SUBSTRUCTURE
1   ZINC000049590175 1     RESIDUE    1   A     ZIN   1
