@<TRIPOS>MOLECULE
ZINC000036156833
  25   26    0    0    0
SMALL
USER_CHARGES
NO_NAME
@<TRIPOS>ATOM
    1 C1       -0.0187     1.5258     0.0104 C.3    1 <0>      -0.1900
    2 C2        0.0021    -0.0041     0.0020 C.3    1 <0>       0.0500
    3 H3        0.5123    -0.3556    -0.8948 H      1 <0>       0.1100
    4 N4        0.7126    -0.4907     1.1921 N.3    1 <0>      -0.8400
    5 C5       -1.4117    -0.5257     0.0127 C.2    1 <0>       0.4100
    6 O6       -1.9077    -0.9123     1.0499 O.2    1 <0>      -0.4400
    7 C7       -2.1890    -0.5659    -1.2327 C.ar   1 <0>      -0.1600
    8 C8       -1.6170    -0.1258    -2.4320 C.ar   1 <0>      -0.0600
    9 C9       -2.3481    -0.1651    -3.5981 C.ar   1 <0>      -0.1100
   10 C10      -3.6533    -0.6404    -3.5902 C.ar   1 <0>       0.0700
   11 O11      -4.5676    -0.7775    -4.5919 O.3    1 <0>      -0.3000
   12 C12      -5.5634    -1.6846    -4.0839 C.3    1 <0>       0.2100
   13 O13      -5.5061    -1.4938    -2.6580 O.3    1 <0>      -0.3000
   14 C14      -4.2308    -1.0814    -2.3973 C.ar   1 <0>       0.0200
   15 C15      -3.5032    -1.0503    -1.2254 C.ar   1 <0>      -0.0400
   16 H16       1.0039     1.9031     0.0027 H      1 <0>       0.0700
   17 H17      -0.5459     1.8868    -0.8726 H      1 <0>       0.0700
   18 H18      -0.5289     1.8773     0.9072 H      1 <0>       0.0600
   19 H19       1.6810    -0.2080     1.1759 H      1 <0>       0.3500
   20 H20       0.2587    -0.1779     2.0373 H      1 <0>       0.3500
   21 H21      -0.6027     0.2449    -2.4426 H      1 <0>       0.1500
   22 H22      -1.9051     0.1752    -4.5225 H      1 <0>       0.1500
   23 H23      -6.5502    -1.4227    -4.4658 H      1 <0>       0.1400
   24 H24      -5.3122    -2.7131    -4.3430 H      1 <0>       0.0900
   25 H25      -3.9472    -1.3961    -0.3036 H      1 <0>       0.1500
@<TRIPOS>BOND
   1    1    2 1
   2    1   16 1
   3    1   17 1
   4    1   18 1
   5    2    3 1
   6    2    4 1
   7    2    5 1
   8    4   19 1
   9    4   20 1
  10    5    6 2
  11    5    7 1
  12    7   15 ar
  13    7    8 ar
  14    8    9 ar
  15    8   21 1
  16    9   10 ar
  17    9   22 1
  18   10   14 ar
  19   10   11 1
  20   11   12 1
  21   12   13 1
  22   12   23 1
  23   12   24 1
  24   13   14 1
  25   14   15 ar
  26   15   25 1
