@<TRIPOS>MOLECULE
ZINC000003917481
64    67    1     0     0
SMALL
USER_CHARGES
@<TRIPOS>ATOM
1      C1      9.5286   -2.2357    1.1995 C.3      1 ZINC000003917481   -0.1500
2      C2      9.1854   -0.9976    0.3687 C.3      1 ZINC000003917481    0.0300
3      C3     10.4036   -0.5862   -0.4606 C.3      1 ZINC000003917481   -0.1500
4      O4      8.0942   -1.2970   -0.5040 O.3      1 ZINC000003917481   -0.1200
5      N5      8.3883   -2.2834   -1.4763 N.2      1 ZINC000003917481   -0.2100
6      C6      7.5111   -2.5763   -2.3922 C.2      1 ZINC000003917481    0.1200
7      C7      6.1612   -1.9682   -2.3463 C.2      1 ZINC000003917481    0.5300
8      O8      5.8841   -1.1690   -1.4738 O.2      1 ZINC000003917481   -0.4600
9      N9      5.2402   -2.3011   -3.2723 N.am     1 ZINC000003917481   -0.7000
10     C10     3.9378   -1.6306   -3.2842 C.3      1 ZINC000003917481    0.1300
11     H11     3.9715   -0.6314   -2.8500 H        1 ZINC000003917481    0.1500
12     C12     2.8047   -2.4898   -2.7494 C.2      1 ZINC000003917481    0.5300
13     O13     2.4574   -2.8408   -1.6415 O.2      1 ZINC000003917481   -0.4300
14     N14     2.3397   -2.7063   -3.9919 N.am     1 ZINC000003917481   -0.5700
15     C15     1.4965   -3.6146   -4.6549 C.2      1 ZINC000003917481    0.1900
16     C16     0.3810   -4.2467   -3.9320 C.2      1 ZINC000003917481    0.5200
17     O17     0.1188   -5.4265   -4.1225 O.co2    1 ZINC000003917481   -0.6600
18     O18    -0.2841   -3.5923   -3.1406 O.co2    1 ZINC000003917481   -0.6300
19     C19     1.7068   -3.9013   -5.9327 C.2      1 ZINC000003917481   -0.2700
20     C20     0.7841   -4.9291   -6.5355 C.3      1 ZINC000003917481    0.1000
21     N21    -0.4259   -4.2683   -7.0309 N.2      1 ZINC000003917481   -0.2500
22     C22    -0.4848   -3.0692   -7.5512 C.2      1 ZINC000003917481    0.2000
23     C23    -1.8127   -2.8059   -7.8991 C.2      1 ZINC000003917481   -0.3100
24     C24    -2.5549   -3.8980   -7.5665 C.2      1 ZINC000003917481    0.4500
25     N25    -3.9271   -4.0462   -7.7477 N.pl3    1 ZINC000003917481   -0.8200
26     N26    -1.7155   -4.8149   -7.0337 N.pl3    1 ZINC000003917481   -0.3500
27     C27    -2.0903   -6.1417   -6.5383 C.3      1 ZINC000003917481    0.1100
28     C28    -3.1304   -5.9956   -5.4257 C.3      1 ZINC000003917481    0.0700
29     O29    -3.3708   -7.2711   -4.8279 O.3      1 ZINC000003917481   -0.5600
30     C30     2.7406   -3.3370   -6.8506 C.3      1 ZINC000003917481   -0.0300
31     S31     4.1279   -2.5853   -5.9462 S.3      1 ZINC000003917481   -0.1800
32     C32     3.2326   -1.6871   -4.6355 C.3      1 ZINC000003917481    0.1200
33     H33     2.7520   -0.7661   -4.9653 H        1 ZINC000003917481    0.1500
34     C34     7.8627   -3.5176   -3.4804 C.2      1 ZINC000003917481    0.3800
35     N35     7.0261   -3.7726   -4.4560 N.2      1 ZINC000003917481   -0.4900
36     S36     7.8196   -4.8852   -5.4658 S.3      1 ZINC000003917481    0.2200
37     C37     9.2513   -4.9485   -4.5101 C.2      1 ZINC000003917481    0.3400
38     N38    10.3883   -5.6979   -4.7502 N.pl3    1 ZINC000003917481   -0.7900
39     N39     9.0341   -4.1282   -3.5074 N.2      1 ZINC000003917481   -0.5500
40     C40     8.7984    0.1325    1.2875 C.2      1 ZINC000003917481    0.5200
41     O41     9.6209    0.6038    2.0543 O.co2    1 ZINC000003917481   -0.6800
42     O42     7.6627    0.5755    1.2642 O.co2    1 ZINC000003917481   -0.6600
43     H43    10.3610   -2.0073    1.8652 H        1 ZINC000003917481    0.0700
44     H44     8.6607   -2.5287    1.7903 H        1 ZINC000003917481    0.0500
45     H45     9.8085   -3.0530    0.5349 H        1 ZINC000003917481    0.0500
46     H46    10.6836   -1.4035   -1.1252 H        1 ZINC000003917481    0.0500
47     H47    10.1592    0.2959   -1.0525 H        1 ZINC000003917481    0.0500
48     H48    11.2360   -0.3578    0.2051 H        1 ZINC000003917481    0.0700
49     H49     5.4398   -2.9848   -3.9309 H        1 ZINC000003917481    0.4200
50     H50     1.2886   -5.4302   -7.3616 H        1 ZINC000003917481    0.1100
51     H51     0.5125   -5.6631   -5.7768 H        1 ZINC000003917481    0.1900
52     H52     0.3499   -2.3977   -7.6882 H        1 ZINC000003917481    0.2200
53     H53    -2.1839   -1.8979   -8.3508 H        1 ZINC000003917481    0.1900
54     H54    -4.4442   -3.3281   -8.1449 H        1 ZINC000003917481    0.4300
55     H55    -4.3662   -4.8677   -7.4768 H        1 ZINC000003917481    0.4100
56     H56    -2.5114   -6.7287   -7.3545 H        1 ZINC000003917481    0.1100
57     H57    -1.2071   -6.6460   -6.1461 H        1 ZINC000003917481    0.1400
58     H58    -2.7587   -5.3041   -4.6695 H        1 ZINC000003917481    0.0800
59     H59    -4.0596   -5.6101   -5.8453 H        1 ZINC000003917481    0.0400
60     H60    -4.0213   -7.2539   -4.1127 H        1 ZINC000003917481    0.4000
61     H61     3.1238   -4.1359   -7.4853 H        1 ZINC000003917481    0.1200
62     H62     2.2771   -2.5783   -7.4812 H        1 ZINC000003917481    0.0900
63     H63    10.4359   -6.2700   -5.5321 H        1 ZINC000003917481    0.4200
64     H64    11.1382   -5.6516   -4.1368 H        1 ZINC000003917481    0.4200
@<TRIPOS>BOND
1     1     2     1
2     1     43    1
3     1     44    1
4     1     45    1
5     2     3     1
6     2     4     1
7     2     40    1
8     3     46    1
9     3     47    1
10    3     48    1
11    4     5     1
12    5     6     2
13    6     7     1
14    6     34    1
15    7     8     2
16    7     9     am
17    9     10    1
18    9     49    1
19    10    11    1
20    10    32    1
21    10    12    1
22    12    13    2
23    12    14    am
24    14    32    1
25    14    15    1
26    15    16    1
27    15    19    2
28    16    17    ar
29    16    18    ar
30    19    20    1
31    19    30    1
32    20    21    1
33    20    50    1
34    20    51    1
35    21    26    1
36    21    22    2
37    22    23    1
38    22    52    1
39    23    24    2
40    23    53    1
41    24    25    1
42    24    26    1
43    25    54    1
44    25    55    1
45    26    27    1
46    27    28    1
47    27    56    1
48    27    57    1
49    28    29    1
50    28    58    1
51    28    59    1
52    29    60    1
53    30    31    1
54    30    61    1
55    30    62    1
56    31    32    1
57    32    33    1
58    34    39    1
59    34    35    2
60    35    36    1
61    36    37    1
62    37    38    1
63    37    39    2
64    38    63    1
65    38    64    1
66    40    41    ar
67    40    42    ar
@<TRIPOS>SUBSTRUCTURE
1   ZINC000003917481 1     RESIDUE    1   A     ZIN   1
