@<TRIPOS>MOLECULE
ZINC000013985547
45    47    1     0     0
SMALL
USER_CHARGES
@<TRIPOS>ATOM
1      C1     -0.5000    1.2466   -0.0980 C.3      1 ZINC000013985547   -0.2100
2      C2     -0.0976   -0.2295   -0.1018 C.3      1 ZINC000013985547    0.0300
3      O3      0.6422   -0.5326    1.1103 O.3      1 ZINC000013985547   -0.3100
4      C4      0.0492   -0.2281    2.2809 C.2      1 ZINC000013985547    0.5100
5      O5     -1.0087    0.3687    2.2887 O.2      1 ZINC000013985547   -0.4800
6      C6      0.6856   -0.6201    3.5552 C.ar     1 ZINC000013985547   -0.1600
7      C7      1.9045   -1.3012    3.5499 C.ar     1 ZINC000013985547   -0.0600
8      C8      2.4932   -1.6642    4.7434 C.ar     1 ZINC000013985547   -0.1300
9      C9      1.8786   -1.3549    5.9439 C.ar     1 ZINC000013985547    0.0000
10     C10     2.5280   -1.7544    7.2438 C.3      1 ZINC000013985547    0.0200
11     C11     3.4371   -0.6474    7.7122 C.2      1 ZINC000013985547   -0.4700
12     C12     2.9834    0.2808    8.6083 C.2      1 ZINC000013985547    0.3500
13     O13     1.7206    0.2255    9.0894 O.3      1 ZINC000013985547   -0.6500
14     C14     3.9105    1.3411    9.0335 C.ar     1 ZINC000013985547   -0.1700
15     C15     3.5142    2.3209    9.9458 C.ar     1 ZINC000013985547   -0.0400
16     C16     4.4066    3.2998   10.3238 C.ar     1 ZINC000013985547   -0.1700
17     C17     5.6916    3.3147    9.8025 C.ar     1 ZINC000013985547   -0.0800
18     C18     6.0958    2.3526    8.9005 C.ar     1 ZINC000013985547   -0.1600
19     C19     5.2120    1.3567    8.5065 C.ar     1 ZINC000013985547    0.1500
20     O20     5.5914    0.4066    7.6246 O.3      1 ZINC000013985547   -0.3000
21     C21     4.7543   -0.5681    7.2351 C.2      1 ZINC000013985547    0.5200
22     O22     5.1462   -1.4014    6.4368 O.2      1 ZINC000013985547   -0.5400
23     C23     0.6707   -0.6802    5.9564 C.ar     1 ZINC000013985547   -0.1200
24     C24     0.0738   -0.3061    4.7703 C.ar     1 ZINC000013985547   -0.0500
25     C25    -1.3540   -1.1005   -0.1637 C.3      1 ZINC000013985547    0.4400
26     F26    -1.9922   -0.9116   -1.3943 F        1 ZINC000013985547   -0.1600
27     F27    -0.9961   -2.4458   -0.0257 F        1 ZINC000013985547   -0.1600
28     F28    -2.2226   -0.7404    0.8722 F        1 ZINC000013985547   -0.1400
29     C29     0.7816   -0.5153   -1.3209 C.3      1 ZINC000013985547    0.4800
30     F30     1.9305    0.2811   -1.2643 F        1 ZINC000013985547   -0.1500
31     F31     1.1496   -1.8651   -1.3243 F        1 ZINC000013985547   -0.1600
32     F32     0.0689   -0.2233   -2.4887 F        1 ZINC000013985547   -0.1600
33     H33     0.3950    1.8671   -0.0539 H        1 ZINC000013985547    0.1000
34     H34    -1.0554    1.4741   -1.0079 H        1 ZINC000013985547    0.1000
35     H35    -1.1264    1.4502    0.7704 H        1 ZINC000013985547    0.1300
36     H36     2.3851   -1.5435    2.6136 H        1 ZINC000013985547    0.1300
37     H37     3.4358   -2.1914    4.7409 H        1 ZINC000013985547    0.1400
38     H38     1.7583   -1.9344    7.9943 H        1 ZINC000013985547    0.0800
39     H39     3.1100   -2.6639    7.0948 H        1 ZINC000013985547    0.0600
40     H40     2.5137    2.3115   10.3524 H        1 ZINC000013985547    0.1300
41     H41     4.1040    4.0595   11.0293 H        1 ZINC000013985547    0.1200
42     H42     6.3826    4.0875   10.1055 H        1 ZINC000013985547    0.1300
43     H43     7.0990    2.3737    8.5012 H        1 ZINC000013985547    0.1300
44     H44     0.1963   -0.4418    6.8969 H        1 ZINC000013985547    0.1400
45     H45    -0.8690    0.2206    4.7814 H        1 ZINC000013985547    0.1300
@<TRIPOS>BOND
1     1     2     1
2     1     33    1
3     1     34    1
4     1     35    1
5     2     3     1
6     2     25    1
7     2     29    1
8     3     4     1
9     4     5     2
10    4     6     1
11    6     24    ar
12    6     7     ar
13    7     8     ar
14    7     36    1
15    8     9     ar
16    8     37    1
17    9     10    1
18    9     23    ar
19    10    11    1
20    10    38    1
21    10    39    1
22    11    21    1
23    11    12    2
24    12    13    1
25    12    14    1
26    14    19    ar
27    14    15    ar
28    15    16    ar
29    15    40    1
30    16    17    ar
31    16    41    1
32    17    18    ar
33    17    42    1
34    18    19    ar
35    18    43    1
36    19    20    1
37    20    21    1
38    21    22    2
39    23    24    ar
40    23    44    1
41    24    45    1
42    25    26    1
43    25    27    1
44    25    28    1
45    29    30    1
46    29    31    1
47    29    32    1
@<TRIPOS>SUBSTRUCTURE
1   ZINC000013985547 1     RESIDUE    1   A     ZIN   1
