@<TRIPOS>MOLECULE
ZINC000043204022
52    54    1     0     0
SMALL
USER_CHARGES
@<TRIPOS>ATOM
1      C1      0.2655    1.2309   -0.0686 C.3      1 ZINC000043204022    0.0000
2      O2      0.2031   -0.1964   -0.0963 O.3      1 ZINC000043204022   -0.1100
3      N3      0.7593   -0.7747   -1.2630 N.am     1 ZINC000043204022   -0.4800
4      C4      2.1790   -1.1345   -1.2969 C.3      1 ZINC000043204022    0.1000
5      C5     -0.0175   -0.9942   -2.3423 C.2      1 ZINC000043204022    0.7500
6      O6      0.4603   -1.4910   -3.3446 O.2      1 ZINC000043204022   -0.5400
7      N7     -1.3236   -0.6633   -2.3112 N.am     1 ZINC000043204022   -0.4500
8      N8     -1.9495   -0.1966   -1.1767 N.2      1 ZINC000043204022   -0.2100
9      C9     -3.2052    0.1159   -1.1692 C.2      1 ZINC000043204022    0.1600
10     C10    -3.9849    0.6249   -0.0208 C.ar     1 ZINC000043204022   -0.0300
11     C11    -5.3417    0.9139   -0.1683 C.ar     1 ZINC000043204022   -0.1000
12     C12    -6.0650    1.3890    0.9091 C.ar     1 ZINC000043204022    0.1000
13     F13    -7.3791    1.6690    0.7680 F        1 ZINC000043204022   -0.1200
14     C14    -5.4455    1.5783    2.1339 C.ar     1 ZINC000043204022   -0.1000
15     C15    -4.1006    1.2941    2.2868 C.ar     1 ZINC000043204022   -0.1200
16     C16    -3.3673    0.8130    1.2188 C.ar     1 ZINC000043204022    0.1300
17     F17    -2.0537    0.5355    1.3698 F        1 ZINC000043204022   -0.1100
18     S18    -3.8058   -0.1880   -2.8139 S.3      1 ZINC000043204022   -0.1300
19     C19    -2.2030   -0.7640   -3.4904 C.3      1 ZINC000043204022    0.2400
20     C20    -2.3008   -2.2135   -3.9702 C.3      1 ZINC000043204022   -0.1100
21     C21    -2.7076   -3.1117   -2.8003 C.3      1 ZINC000043204022   -0.1600
22     C22    -2.8053   -4.5612   -3.2802 C.3      1 ZINC000043204022    0.0000
23     N23    -3.1959   -5.4236   -2.1569 N.4      1 ZINC000043204022   -0.6400
24     H24    -4.0917   -5.1262   -1.8002 H        1 ZINC000043204022    0.4400
25     H25    -3.2604   -6.3795   -2.4733 H        1 ZINC000043204022    0.4400
26     H26    -2.5039   -5.3573   -1.4256 H        1 ZINC000043204022    0.4400
27     C27    -1.7311    0.1386   -4.6010 C.ar     1 ZINC000043204022   -0.1000
28     C28    -1.8388   -0.2704   -5.9171 C.ar     1 ZINC000043204022   -0.0900
29     C29    -1.4059    0.5576   -6.9359 C.ar     1 ZINC000043204022   -0.1100
30     C30    -0.8657    1.7948   -6.6386 C.ar     1 ZINC000043204022   -0.1000
31     C31    -0.7588    2.2042   -5.3226 C.ar     1 ZINC000043204022   -0.1100
32     C32    -1.1956    1.3780   -4.3041 C.ar     1 ZINC000043204022   -0.0900
33     H33     1.3064    1.5502   -0.1209 H        1 ZINC000043204022    0.0500
34     H34    -0.2818    1.6352   -0.9202 H        1 ZINC000043204022    0.0400
35     H35    -0.1805    1.5963    0.8565 H        1 ZINC000043204022    0.1100
36     H36     2.3022   -2.1604   -0.9501 H        1 ZINC000043204022    0.0700
37     H37     2.5513   -1.0488   -2.3177 H        1 ZINC000043204022    0.0900
38     H38     2.7399   -0.4618   -0.6480 H        1 ZINC000043204022    0.0800
39     H39    -5.8257    0.7671   -1.1226 H        1 ZINC000043204022    0.1500
40     H40    -6.0152    1.9498    2.9728 H        1 ZINC000043204022    0.1600
41     H41    -3.6235    1.4445    3.2439 H        1 ZINC000043204022    0.1600
42     H42    -3.0483   -2.2851   -4.7603 H        1 ZINC000043204022    0.1000
43     H43    -1.3331   -2.5348   -4.3555 H        1 ZINC000043204022    0.1200
44     H44    -1.9600   -3.0401   -2.0103 H        1 ZINC000043204022    0.0900
45     H45    -3.6753   -2.7905   -2.4150 H        1 ZINC000043204022    0.1000
46     H46    -3.5529   -4.6328   -4.0702 H        1 ZINC000043204022    0.1400
47     H47    -1.8376   -4.8824   -3.6654 H        1 ZINC000043204022    0.1400
48     H48    -2.2609   -1.2370   -6.1493 H        1 ZINC000043204022    0.1300
49     H49    -1.4894    0.2377   -7.9640 H        1 ZINC000043204022    0.1300
50     H50    -0.5268    2.4414   -7.4345 H        1 ZINC000043204022    0.1300
51     H51    -0.3364    3.1707   -5.0904 H        1 ZINC000043204022    0.1300
52     H52    -1.1121    1.6979   -3.2759 H        1 ZINC000043204022    0.1100
@<TRIPOS>BOND
1     1     2     1
2     1     33    1
3     1     34    1
4     1     35    1
5     2     3     1
6     3     4     1
7     3     5     am
8     4     36    1
9     4     37    1
10    4     38    1
11    5     6     2
12    5     7     am
13    7     19    1
14    7     8     1
15    8     9     2
16    9     10    1
17    9     18    1
18    10    16    ar
19    10    11    ar
20    11    12    ar
21    11    39    1
22    12    13    1
23    12    14    ar
24    14    15    ar
25    14    40    1
26    15    16    ar
27    15    41    1
28    16    17    1
29    18    19    1
30    19    20    1
31    19    27    1
32    20    21    1
33    20    42    1
34    20    43    1
35    21    22    1
36    21    44    1
37    21    45    1
38    22    23    1
39    22    46    1
40    22    47    1
41    23    24    1
42    23    25    1
43    23    26    1
44    27    32    ar
45    27    28    ar
46    28    29    ar
47    28    48    1
48    29    30    ar
49    29    49    1
50    30    31    ar
51    30    50    1
52    31    32    ar
53    31    51    1
54    32    52    1
@<TRIPOS>SUBSTRUCTURE
1   ZINC000043204022 1     RESIDUE    1   A     ZIN   1
