@<TRIPOS>MOLECULE
ZINC000003806644
  46   49    0    0    0
SMALL
USER_CHARGES
NO_NAME
@<TRIPOS>ATOM
    1 C1       -5.3263    -0.8961     3.6197 C.3    1 <0>      -0.0800
    2 C2       -5.6708     0.4663     3.0753 C.2    1 <0>       0.0100
    3 C3       -5.2665     0.9646     1.9179 C.2    1 <0>      -0.0500
    4 C4       -4.3821     0.2678     0.9162 C.3    1 <0>       0.1500
    5 O5       -5.1167     0.0351    -0.2872 O.3    1 <0>      -0.3300
    6 C6       -4.4643    -0.5854    -1.2932 C.2    1 <0>       0.5400
    7 O7       -3.3025    -0.9194    -1.1506 O.2    1 <0>      -0.4900
    8 C8       -5.1311    -0.8474    -2.5132 C.2    1 <0>      -0.0200
    9 C9       -4.4583    -1.3513    -3.5595 C.2    1 <0>      -0.0200
   10 C10      -2.9860    -1.6702    -3.6003 C.3    1 <0>       0.1200
   11 H11      -2.5035    -1.3458    -2.6782 H      1 <0>       0.1500
   12 C12      -2.7705    -3.1897    -3.8141 C.3    1 <0>      -0.1400
   13 C13      -1.3552    -3.1996    -4.4535 C.3    1 <0>      -0.1500
   14 C14      -1.3608    -1.8969    -5.2820 C.3    1 <0>       0.0500
   15 O15      -2.3703    -1.0387    -4.7341 O.3    1 <0>      -0.3700
   16 S16      -5.6132    -1.5737    -4.8834 S.3    1 <0>      -0.0300
   17 C17      -7.0507    -0.9785    -3.9382 C.3    1 <0>       0.0700
   18 H18      -7.8766    -1.6883    -3.8919 H      1 <0>       0.1700
   19 C19      -7.4575     0.4592    -4.2483 C.3    1 <0>      -0.1200
   20 H20      -6.8736     0.9319    -5.0380 H      1 <0>       0.1500
   21 C21      -8.9654     0.6712    -4.3969 C.3    1 <0>       0.1300
   22 H22      -9.4647     0.3927    -3.4689 H      1 <0>       0.0700
   23 C23      -9.2454     2.1435    -4.7048 C.3    1 <0>      -0.1900
   24 O24      -9.4576    -0.1407    -5.4649 O.3    1 <0>      -0.5600
   25 C25      -6.9295     0.6951    -2.8584 C.2    1 <0>       0.5000
   26 O26      -6.9090     1.6859    -2.1586 O.2    1 <0>      -0.4100
   27 N27      -6.4910    -0.5914    -2.6397 N.am   1 <0>      -0.4600
   28 O28      -5.7862     2.2098     1.7887 O.3    1 <0>      -0.2300
   29 C29      -6.5163     2.4688     2.8855 C.2    1 <0>       0.5800
   30 O30      -7.1290     3.4940     3.1128 O.2    1 <0>      -0.4200
   31 O31      -6.4530     1.3911     3.6839 O.3    1 <0>      -0.2400
   32 H32      -5.8051    -1.0315     4.5895 H      1 <0>       0.0900
   33 H33      -5.6793    -1.6628     2.9300 H      1 <0>       0.1000
   34 H34      -4.2455    -0.9793     3.7332 H      1 <0>       0.1000
   35 H35      -3.5166     0.8936     0.6984 H      1 <0>       0.1000
   36 H36      -4.0475    -0.6846     1.3276 H      1 <0>       0.1100
   37 H37      -2.7764    -3.7248    -2.8645 H      1 <0>       0.0900
   38 H38      -3.5136    -3.5993    -4.4983 H      1 <0>       0.0800
   39 H39      -0.5824    -3.1676    -3.6855 H      1 <0>       0.0800
   40 H40      -1.2270    -4.0690    -5.0984 H      1 <0>       0.0900
   41 H41      -0.3875    -1.4111    -5.2136 H      1 <0>       0.0800
   42 H42      -1.5908    -2.1220    -6.3234 H      1 <0>       0.0700
   43 H43      -8.8700     2.7629    -3.8902 H      1 <0>       0.0700
   44 H44      -8.7461     2.4220    -5.6328 H      1 <0>       0.0700
   45 H45     -10.3197     2.2946    -4.8107 H      1 <0>       0.0700
   46 H46     -10.4090    -0.0568    -5.6164 H      1 <0>       0.3900
@<TRIPOS>BOND
   1    1    2 1
   2    1   32 1
   3    1   33 1
   4    1   34 1
   5    2   31 1
   6    2    3 2
   7    3    4 1
   8    3   28 1
   9    4    5 1
  10    4   35 1
  11    4   36 1
  12    5    6 1
  13    6    7 2
  14    6    8 1
  15    8   27 1
  16    8    9 2
  17    9   10 1
  18    9   16 1
  19   10   11 1
  20   10   15 1
  21   10   12 1
  22   12   13 1
  23   12   37 1
  24   12   38 1
  25   13   14 1
  26   13   39 1
  27   13   40 1
  28   14   15 1
  29   14   41 1
  30   14   42 1
  31   16   17 1
  32   17   18 1
  33   17   27 1
  34   17   19 1
  35   19   20 1
  36   19   21 1
  37   19   25 1
  38   21   22 1
  39   21   23 1
  40   21   24 1
  41   23   43 1
  42   23   44 1
  43   23   45 1
  44   24   46 1
  45   25   26 2
  46   25   27 am
  47   28   29 1
  48   29   30 2
  49   29   31 1
