@<TRIPOS>MOLECULE
ZINC000002004553
  40   42    0    0    0
SMALL
USER_CHARGES
NO_NAME
@<TRIPOS>ATOM
    1 O1        0.0021    -0.0041     0.0020 O.2    1 <0>      -0.4900
    2 C2       -0.0144     1.2106     0.0087 C.2    1 <0>       0.5200
    3 N3       -1.1873     1.8756     0.0291 N.am   1 <0>      -0.6300
    4 C4       -1.2003     3.2689     0.0372 C.ar   1 <0>       0.0900
    5 C5       -2.4153     3.9450     0.0583 C.ar   1 <0>      -0.0700
    6 C6       -2.4403     5.3238     0.0664 C.ar   1 <0>      -0.2100
    7 C7       -3.7597     6.0515     0.0893 C.3    1 <0>       0.5300
    8 F8       -4.8050     5.1217     0.0989 F      1 <0>      -0.1900
    9 F9       -3.8333     6.8478     1.2372 F      1 <0>      -0.1700
   10 F10      -3.8658     6.8607    -1.0471 F      1 <0>      -0.1800
   11 C11      -1.2505     6.0446     0.0540 C.ar   1 <0>       0.2300
   12 N12      -1.2810     7.4421     0.0632 N.pl3  1 <0>      -0.6800
   13 C13      -1.2733     8.1916     1.3295 C.3    1 <0>       0.1100
   14 C14      -0.1742     9.2575     1.2538 C.3    1 <0>       0.0400
   15 O15      -0.3463    10.0273     0.0615 O.3    1 <0>      -0.3900
   16 C16      -0.2197     9.2724    -1.1460 C.3    1 <0>       0.0400
   17 C17      -1.3154     8.2073    -1.1932 C.3    1 <0>       0.1100
   18 C18      -0.0349     5.3789     0.0329 C.ar   1 <0>      -0.0900
   19 C19      -0.0040     3.9898     0.0247 C.ar   1 <0>       0.2000
   20 N20       1.2207     3.3287     0.0036 N.am   1 <0>      -0.4800
   21 C21       2.4671     4.0985    -0.0093 C.3    1 <0>      -0.5000
   22 P22       3.0081     4.4076     1.7039 P.3    1 <0>       2.1600
   23 O23       1.8519     5.1041     2.4991 O.co2  1 <0>      -1.1500
   24 O24       3.3687     3.0467     2.3912 O.co2  1 <0>      -1.1500
   25 O25       4.2689     5.3376     1.6937 O.co2  1 <0>      -1.1600
   26 C26       1.2621     1.9810     0.0006 C.2    1 <0>       0.4900
   27 O27       2.3288     1.4002    -0.0174 O.2    1 <0>      -0.4400
   28 H28      -2.0230     1.3833     0.0379 H      1 <0>       0.4100
   29 H29      -3.3412     3.3891     0.0680 H      1 <0>       0.1400
   30 H30      -2.2406     8.6716     1.4779 H      1 <0>       0.0600
   31 H31      -1.0693     7.5121     2.1570 H      1 <0>       0.0900
   32 H32      -0.2414     9.9122     2.1227 H      1 <0>       0.1000
   33 H33       0.8021     8.7732     1.2366 H      1 <0>       0.0700
   34 H34      -0.3197     9.9377    -2.0035 H      1 <0>       0.0900
   35 H35       0.7565     8.7880    -1.1718 H      1 <0>       0.0600
   36 H36      -1.1418     7.5391    -2.0367 H      1 <0>       0.0700
   37 H37      -2.2888     8.6865    -1.2982 H      1 <0>       0.0600
   38 H38       0.8880     5.9397     0.0233 H      1 <0>       0.1500
   39 H39       3.2366     3.5354    -0.5373 H      1 <0>       0.0800
   40 H40       2.3014     5.0497    -0.5152 H      1 <0>       0.0700
@<TRIPOS>BOND
   1    1    2 2
   2    2   26 1
   3    2    3 am
   4    3    4 1
   5    3   28 1
   6    4   19 ar
   7    4    5 ar
   8    5    6 ar
   9    5   29 1
  10    6    7 1
  11    6   11 ar
  12    7    8 1
  13    7    9 1
  14    7   10 1
  15   11   12 1
  16   11   18 ar
  17   12   17 1
  18   12   13 1
  19   13   14 1
  20   13   30 1
  21   13   31 1
  22   14   15 1
  23   14   32 1
  24   14   33 1
  25   15   16 1
  26   16   17 1
  27   16   34 1
  28   16   35 1
  29   17   36 1
  30   17   37 1
  31   18   19 ar
  32   18   38 1
  33   19   20 1
  34   20   21 1
  35   20   26 am
  36   21   22 1
  37   21   39 1
  38   21   40 1
  39   22   23 ar
  40   22   24 ar
  41   22   25 ar
  42   26   27 2
