@<TRIPOS>MOLECULE
ZINC000002017838
38    40    1     0     0
SMALL
USER_CHARGES
@<TRIPOS>ATOM
1      C1     -0.0178    1.4648    0.0101 C.3      1 ZINC000002017838   -0.0500
2      N2      0.0021   -0.0041    0.0020 N.4      1 ZINC000002017838   -0.3800
3      H3     -0.9454   -0.3509    0.0092 H        1 ZINC000002017838    0.4200
4      C4      0.6801   -0.4725   -1.2070 C.3      1 ZINC000002017838   -0.0100
5      C5      2.1823   -0.5369   -0.9147 C.3      1 ZINC000002017838   -0.0700
6      C6      2.5756   -1.9200   -0.4650 C.ar     1 ZINC000002017838   -0.2500
7      C7      3.6594   -2.5244   -1.0875 C.ar     1 ZINC000002017838   -0.0500
8      C8      4.0791   -3.7804   -0.6984 C.ar     1 ZINC000002017838   -0.1600
9      Cl9     5.4331   -4.5299   -1.4850 Cl       1 ZINC000002017838   -0.1000
10     C10     3.4139   -4.4412    0.3252 C.ar     1 ZINC000002017838    0.2800
11     O11     3.8272   -5.6731    0.7243 O.3      1 ZINC000002017838   -0.6800
12     C12     2.3278   -3.8398    0.9381 C.ar     1 ZINC000002017838   -0.2400
13     C13     1.9000   -2.5826    0.5342 C.ar     1 ZINC000002017838   -0.0400
14     C14     0.6698   -2.0149    1.1994 C.3      1 ZINC000002017838   -0.0100
15     H15    -0.2161   -2.3555    0.6634 H        1 ZINC000002017838    0.0900
16     C16     0.6060   -2.5059    2.6227 C.ar     1 ZINC000002017838   -0.0800
17     C17     1.6291   -2.2079    3.5032 C.ar     1 ZINC000002017838   -0.1000
18     C18     1.5705   -2.6583    4.8088 C.ar     1 ZINC000002017838   -0.1200
19     C19     0.4886   -3.4062    5.2341 C.ar     1 ZINC000002017838   -0.1100
20     C20    -0.5350   -3.7034    4.3538 C.ar     1 ZINC000002017838   -0.1200
21     C21    -0.4785   -3.2494    3.0494 C.ar     1 ZINC000002017838   -0.1100
22     C22     0.7048   -0.4867    1.1959 C.3      1 ZINC000002017838   -0.0100
23     H23     1.0047    1.8421    0.0024 H        1 ZINC000002017838    0.1200
24     H24    -0.5450    1.8259   -0.8730 H        1 ZINC000002017838    0.1200
25     H25    -0.5280    1.8163    0.9069 H        1 ZINC000002017838    0.1200
26     H26     0.3141   -1.4640   -1.4737 H        1 ZINC000002017838    0.1300
27     H27     0.4938    0.2220   -2.0262 H        1 ZINC000002017838    0.1300
28     H28     2.7356   -0.2819   -1.8186 H        1 ZINC000002017838    0.1000
29     H29     2.4268    0.1793   -0.1303 H        1 ZINC000002017838    0.0700
30     H30     4.1775   -2.0083   -1.8822 H        1 ZINC000002017838    0.1100
31     H31     1.8102   -4.3522    1.7356 H        1 ZINC000002017838    0.1100
32     H32     2.4744   -1.6236    3.1709 H        1 ZINC000002017838    0.1200
33     H33     2.3703   -2.4261    5.4965 H        1 ZINC000002017838    0.1200
34     H34     0.4431   -3.7586    6.2539 H        1 ZINC000002017838    0.1200
35     H35    -1.3802   -4.2880    4.6860 H        1 ZINC000002017838    0.1200
36     H36    -1.2782   -3.4816    2.3617 H        1 ZINC000002017838    0.1200
37     H37     1.7396   -0.1446    1.1791 H        1 ZINC000002017838    0.1500
38     H38     0.2062   -0.1074    2.0878 H        1 ZINC000002017838    0.1300
@<TRIPOS>BOND
1     1     2     1
2     1     23    1
3     1     24    1
4     1     25    1
5     2     3     1
6     2     22    1
7     2     4     1
8     4     5     1
9     4     26    1
10    4     27    1
11    5     6     1
12    5     28    1
13    5     29    1
14    6     13    ar
15    6     7     ar
16    7     8     ar
17    7     30    1
18    8     9     1
19    8     10    ar
20    10    11    1
21    10    12    ar
22    12    13    ar
23    12    31    1
24    13    14    1
25    14    15    1
26    14    16    1
27    14    22    1
28    16    21    ar
29    16    17    ar
30    17    18    ar
31    17    32    1
32    18    19    ar
33    18    33    1
34    19    20    ar
35    19    34    1
36    20    21    ar
37    20    35    1
38    21    36    1
39    22    37    1
40    22    38    1
@<TRIPOS>SUBSTRUCTURE
1   ZINC000002017838 1     RESIDUE    1   A     ZIN   1
