@<TRIPOS>MOLECULE
ZINC000095627831
49    51    1     0     0
SMALL
USER_CHARGES
@<TRIPOS>ATOM
1      C1     -1.6799    1.8571    0.5606 C.3      1 ZINC000095627831   -0.1100
2      C2     -1.7007    0.3601    0.3887 C.ar     1 ZINC000095627831   -0.1500
3      C3     -2.2813   -0.2000   -0.7348 C.ar     1 ZINC000095627831    0.1100
4      F4     -2.8303    0.5952   -1.6789 F        1 ZINC000095627831   -0.1400
5      C5     -2.2997   -1.5762   -0.8924 C.ar     1 ZINC000095627831   -0.1700
6      C6     -1.7387   -2.3923    0.0719 C.ar     1 ZINC000095627831   -0.0800
7      C7     -1.1575   -1.8379    1.1959 C.ar     1 ZINC000095627831   -0.1300
8      C8     -1.1319   -0.4586    1.3551 C.ar     1 ZINC000095627831    0.2000
9      N9     -0.5436    0.1046    2.4930 N.am     1 ZINC000095627831   -0.6900
10     C10    -0.6342   -0.5259    3.6807 C.2      1 ZINC000095627831    0.7000
11     O11    -1.1519   -1.6241    3.7481 O.2      1 ZINC000095627831   -0.5700
12     N12    -0.1511    0.0608    4.7937 N.am     1 ZINC000095627831   -0.6400
13     C13    -0.1368   -0.6420    6.0069 C.ar     1 ZINC000095627831    0.0100
14     C14    -0.1156   -2.0284    6.0066 C.ar     1 ZINC000095627831   -0.0400
15     C15    -0.1011   -2.7197    7.2037 C.ar     1 ZINC000095627831   -0.2300
16     C16    -0.1082   -2.0314    8.4036 C.ar     1 ZINC000095627831    0.0900
17     Cl17   -0.0899   -2.9054    9.9034 Cl       1 ZINC000095627831   -0.0700
18     C18    -0.1293   -0.6477    8.4111 C.ar     1 ZINC000095627831   -0.7900
19     S19    -0.1376    0.2250    9.9418 S.o2     1 ZINC000095627831    2.5200
20     O20    -0.7629    1.4638    9.6355 O.2      1 ZINC000095627831   -0.9200
21     O21    -0.7260   -0.6851   10.8608 O.2      1 ZINC000095627831   -0.9500
22     C22     1.6166    0.4761   10.3292 C.3      1 ZINC000095627831   -0.6200
23     H23     2.0650    1.1287    9.5801 H        1 ZINC000095627831    0.1300
24     C24     1.7476    1.1199   11.7123 C.3      1 ZINC000095627831   -0.1100
25     C25     3.2317    1.2731   12.0568 C.3      1 ZINC000095627831   -0.1500
26     C26     3.9062   -0.0996   12.0073 C.3      1 ZINC000095627831    0.0500
27     N27     3.7538   -0.6732   10.6641 N.3      1 ZINC000095627831   -0.6700
28     C28     2.3382   -0.8735   10.3288 C.3      1 ZINC000095627831    0.0800
29     C29    -0.1381    0.0513    7.2154 C.ar     1 ZINC000095627831    0.3400
30     O30    -0.1585    1.4109    7.2210 O.3      1 ZINC000095627831   -0.6600
31     H31    -0.7742    2.2621    0.1092 H        1 ZINC000095627831    0.0700
32     H32    -2.5535    2.2909    0.0740 H        1 ZINC000095627831    0.0700
33     H33    -1.6970    2.1011    1.6228 H        1 ZINC000095627831    0.0700
34     H34    -2.7534   -2.0123   -1.7702 H        1 ZINC000095627831    0.1300
35     H35    -1.7551   -3.4649   -0.0533 H        1 ZINC000095627831    0.1300
36     H36    -0.7199   -2.4768    1.9486 H        1 ZINC000095627831    0.1500
37     H37    -0.0706    0.9489    2.4269 H        1 ZINC000095627831    0.4100
38     H38     0.1868    0.9692    4.7555 H        1 ZINC000095627831    0.4100
39     H39    -0.1108   -2.5682    5.0712 H        1 ZINC000095627831    0.1400
40     H40    -0.0846   -3.7996    7.2021 H        1 ZINC000095627831    0.1200
41     H41     1.2724    2.1009   11.7039 H        1 ZINC000095627831    0.0700
42     H42     1.2645    0.4864   12.4562 H        1 ZINC000095627831    0.0800
43     H43     3.7061    1.9380   11.3349 H        1 ZINC000095627831    0.0600
44     H44     3.3314    1.6917   13.0582 H        1 ZINC000095627831    0.0700
45     H45     4.9660    0.0079   12.2381 H        1 ZINC000095627831    0.0700
46     H46     3.4405   -0.7597   12.7390 H        1 ZINC000095627831    0.0700
47     H47     4.2110   -0.0990    9.9717 H        1 ZINC000095627831    0.3400
48     H48     1.8792   -1.5299   11.0681 H        1 ZINC000095627831    0.0900
49     H49     2.2596   -1.3280    9.3412 H        1 ZINC000095627831    0.0900
@<TRIPOS>BOND
1     1     2     1
2     1     31    1
3     1     32    1
4     1     33    1
5     2     8     ar
6     2     3     ar
7     3     4     1
8     3     5     ar
9     5     6     ar
10    5     34    1
11    6     7     ar
12    6     35    1
13    7     8     ar
14    7     36    1
15    8     9     1
16    9     10    am
17    9     37    1
18    10    11    2
19    10    12    am
20    12    13    1
21    12    38    1
22    13    29    ar
23    13    14    ar
24    14    15    ar
25    14    39    1
26    15    16    ar
27    15    40    1
28    16    17    1
29    16    18    ar
30    18    19    1
31    18    29    ar
32    19    20    2
33    19    21    2
34    19    22    1
35    22    23    1
36    22    28    1
37    22    24    1
38    24    25    1
39    24    41    1
40    24    42    1
41    25    26    1
42    25    43    1
43    25    44    1
44    26    27    1
45    26    45    1
46    26    46    1
47    27    28    1
48    27    47    1
49    28    48    1
50    28    49    1
51    29    30    1
@<TRIPOS>SUBSTRUCTURE
1   ZINC000095627831 1     RESIDUE    1   A     ZIN   1
