@<TRIPOS>MOLECULE
ZINC000000002277
29    31    1     0     0
SMALL
USER_CHARGES
@<TRIPOS>ATOM
1      C1     -0.0184    1.5028    0.0103 C.3      1 ZINC000000002277   -0.0600
2      C2      0.0021   -0.0041    0.0020 C.ar     1 ZINC000000002277   -0.0100
3      N3      0.0055   -0.6497   -1.1473 N.ar     1 ZINC000000002277   -0.4400
4      C4      0.0234   -1.9687   -1.2078 C.ar     1 ZINC000000002277   -0.0200
5      C5      0.0390   -2.7236   -0.0550 C.ar     1 ZINC000000002277   -0.1300
6      C6      0.0363   -2.0825    1.1762 C.ar     1 ZINC000000002277   -0.2600
7      C7      0.0229   -0.6978    1.2059 C.ar     1 ZINC000000002277    0.2600
8      O8      0.0196   -0.0304    2.3899 O.3      1 ZINC000000002277   -0.7100
9      C9      0.0559   -3.1500    2.2405 C.3      1 ZINC000000002277    0.1200
10     O10     0.4858   -4.3568    1.5826 O.3      1 ZINC000000002277   -0.3700
11     C11     0.0597   -4.2082    0.2153 C.3      1 ZINC000000002277    0.1700
12     H12    -0.9381   -4.6274    0.0853 H        1 ZINC000000002277    0.0800
13     C13     1.0338   -4.8920   -0.7092 C.ar     1 ZINC000000002277   -0.0600
14     C14     2.3791   -4.9257   -0.3930 C.ar     1 ZINC000000002277   -0.0800
15     C15     3.2730   -5.5527   -1.2404 C.ar     1 ZINC000000002277   -0.1100
16     C16     2.8211   -6.1467   -2.4054 C.ar     1 ZINC000000002277   -0.0400
17     Cl17    3.9432   -6.9349   -3.4700 Cl       1 ZINC000000002277   -0.0800
18     C18     1.4746   -6.1127   -2.7213 C.ar     1 ZINC000000002277   -0.1100
19     C19     0.5809   -5.4903   -1.8702 C.ar     1 ZINC000000002277   -0.1000
20     H20     1.0042    1.8801    0.0026 H        1 ZINC000000002277    0.0500
21     H21    -0.5455    1.8639   -0.8728 H        1 ZINC000000002277    0.0500
22     H22    -0.5286    1.8543    0.9071 H        1 ZINC000000002277    0.0700
23     H23     0.0255   -2.4603   -2.1694 H        1 ZINC000000002277    0.1200
24     H24     0.7587   -2.8813    3.0291 H        1 ZINC000000002277    0.0800
25     H25    -0.9428   -3.2842    2.6563 H        1 ZINC000000002277    0.0600
26     H26     2.7318   -4.4616    0.5162 H        1 ZINC000000002277    0.1400
27     H27     4.3241   -5.5786   -0.9935 H        1 ZINC000000002277    0.1300
28     H28     1.1213   -6.5760   -3.6306 H        1 ZINC000000002277    0.1300
29     H29    -0.4703   -5.4640   -2.1165 H        1 ZINC000000002277    0.1300
@<TRIPOS>BOND
1     1     2     1
2     1     20    1
3     1     21    1
4     1     22    1
5     2     7     ar
6     2     3     ar
7     3     4     ar
8     4     5     ar
9     4     23    1
10    5     11    1
11    5     6     ar
12    6     7     ar
13    6     9     1
14    7     8     1
15    9     10    1
16    9     24    1
17    9     25    1
18    10    11    1
19    11    12    1
20    11    13    1
21    13    19    ar
22    13    14    ar
23    14    15    ar
24    14    26    1
25    15    16    ar
26    15    27    1
27    16    17    1
28    16    18    ar
29    18    19    ar
30    18    28    1
31    19    29    1
@<TRIPOS>SUBSTRUCTURE
1   ZINC000000002277 1     RESIDUE    1   A     ZIN   1
