@<TRIPOS>MOLECULE
ZINC000013981125
50    52    1     0     0
SMALL
USER_CHARGES
@<TRIPOS>ATOM
1      C1     -0.0178    1.4648    0.0101 C.3      1 ZINC000013981125   -0.0500
2      N2      0.0021   -0.0041    0.0020 N.4      1 ZINC000013981125   -0.5100
3      H3      0.4744   -0.3295   -0.8281 H        1 ZINC000013981125    0.4300
4      H4      0.4901   -0.3383    0.8195 H        1 ZINC000013981125    0.4300
5      C5     -1.3761   -0.5125    0.0124 C.3      1 ZINC000013981125   -0.0100
6      C6     -1.3553   -2.0424    0.0040 C.3      1 ZINC000013981125   -0.1500
7      C7     -2.7907   -2.5720    0.0149 C.3      1 ZINC000013981125    0.0600
8      O8     -2.7713   -4.0008    0.0070 O.3      1 ZINC000013981125   -0.3000
9      C9     -3.9738   -4.6343    0.0151 C.ar     1 ZINC000013981125    0.2000
10     C10    -5.1467   -3.8924    0.0245 C.ar     1 ZINC000013981125   -0.2600
11     C11    -6.3712   -4.5324    0.0328 C.ar     1 ZINC000013981125    0.2000
12     F12    -7.5123   -3.8094    0.0419 F        1 ZINC000013981125   -0.1100
13     C13    -6.4275   -5.9268    0.0312 C.ar     1 ZINC000013981125   -0.1500
14     C14    -7.7398   -6.6182    0.0395 C.2      1 ZINC000013981125   -0.2400
15     C15    -8.3732   -6.9522   -1.1544 C.2      1 ZINC000013981125    0.5400
16     N16    -7.7947   -6.6483   -2.3653 N.pl3    1 ZINC000013981125   -0.6900
17     C17    -8.4746   -7.0068   -3.6125 C.3      1 ZINC000013981125    0.0900
18     H18    -9.0029   -7.9509   -3.4798 H        1 ZINC000013981125    0.1600
19     C19    -9.4753   -5.9098   -3.9813 C.3      1 ZINC000013981125   -0.1600
20     C20    -7.4423   -7.1530   -4.7323 C.3      1 ZINC000013981125    0.4500
21     F21    -6.5273   -8.1561   -4.3950 F        1 ZINC000013981125   -0.1700
22     F22    -8.0916   -7.4954   -5.9232 F        1 ZINC000013981125   -0.1600
23     F23    -6.7642   -5.9413   -4.9025 F        1 ZINC000013981125   -0.1800
24     N24    -9.5797   -7.5876   -1.0988 N.pl3    1 ZINC000013981125   -0.3600
25     N25   -10.4647   -8.0533   -2.0799 N.2      1 ZINC000013981125   -0.3500
26     C26   -11.4839   -8.5894   -1.4545 C.2      1 ZINC000013981125    0.2800
27     N27   -11.3026   -8.4940   -0.1430 N.2      1 ZINC000013981125   -0.5100
28     C28   -10.1474   -7.8863    0.1076 C.2      1 ZINC000013981125    0.5000
29     N29    -9.5315   -7.5622    1.2508 N.2      1 ZINC000013981125   -0.4800
30     C30    -8.3646   -6.9535    1.2523 C.2      1 ZINC000013981125    0.3300
31     Cl31   -7.6006   -6.5520    2.7586 Cl       1 ZINC000013981125    0.0300
32     C32    -5.2457   -6.6690    0.0212 C.ar     1 ZINC000013981125    0.2000
33     F33    -5.2948   -8.0191    0.0197 F        1 ZINC000013981125   -0.1100
34     C34    -4.0254   -6.0211    0.0082 C.ar     1 ZINC000013981125   -0.1900
35     H35     1.0047    1.8421    0.0024 H        1 ZINC000013981125    0.1300
36     H36    -0.5450    1.8259   -0.8730 H        1 ZINC000013981125    0.1200
37     H37    -0.5280    1.8163    0.9069 H        1 ZINC000013981125    0.1200
38     H38    -1.8863   -0.1610    0.9092 H        1 ZINC000013981125    0.1400
39     H39    -1.9033   -0.1515   -0.8706 H        1 ZINC000013981125    0.1400
40     H40    -0.8451   -2.3939   -0.8928 H        1 ZINC000013981125    0.1000
41     H41    -0.8281   -2.4035    0.8871 H        1 ZINC000013981125    0.1000
42     H42    -3.3009   -2.2204    0.9117 H        1 ZINC000013981125    0.0800
43     H43    -3.3179   -2.2109   -0.8682 H        1 ZINC000013981125    0.0800
44     H44    -5.1022   -2.8133    0.0257 H        1 ZINC000013981125    0.1500
45     H45    -6.9367   -6.1967   -2.3931 H        1 ZINC000013981125    0.4300
46     H46   -10.2107   -5.8056   -3.1836 H        1 ZINC000013981125    0.0800
47     H47    -8.9469   -4.9657   -4.1140 H        1 ZINC000013981125    0.0700
48     H48    -9.9811   -6.1765   -4.9093 H        1 ZINC000013981125    0.0900
49     H49   -12.3410   -9.0397   -1.9331 H        1 ZINC000013981125    0.2400
50     H50    -3.1103   -6.5947    0.0005 H        1 ZINC000013981125    0.1600
@<TRIPOS>BOND
1     1     2     1
2     1     35    1
3     1     36    1
4     1     37    1
5     2     3     1
6     2     4     1
7     2     5     1
8     5     6     1
9     5     38    1
10    5     39    1
11    6     7     1
12    6     40    1
13    6     41    1
14    7     8     1
15    7     42    1
16    7     43    1
17    8     9     1
18    9     34    ar
19    9     10    ar
20    10    11    ar
21    10    44    1
22    11    12    1
23    11    13    ar
24    13    14    1
25    13    32    ar
26    14    30    1
27    14    15    2
28    15    16    1
29    15    24    1
30    16    17    1
31    16    45    1
32    17    18    1
33    17    19    1
34    17    20    1
35    19    46    1
36    19    47    1
37    19    48    1
38    20    21    1
39    20    22    1
40    20    23    1
41    24    28    1
42    24    25    1
43    25    26    2
44    26    27    1
45    26    49    1
46    27    28    2
47    28    29    1
48    29    30    2
49    30    31    1
50    32    33    1
51    32    34    ar
52    34    50    1
@<TRIPOS>SUBSTRUCTURE
1   ZINC000013981125 1     RESIDUE    1   A     ZIN   1
