@<TRIPOS>MOLECULE
ZINC000068199983
  55   59    0    0    0
SMALL
USER_CHARGES
NO_NAME
@<TRIPOS>ATOM
    1 C1       -0.0187     1.5258     0.0104 C.3    1 <0>      -0.1600
    2 C2        0.0021    -0.0041     0.0020 C.3    1 <0>      -0.1000
    3 H3        0.4989    -0.3704    -0.8963 H      1 <0>       0.1500
    4 C4       -1.4357    -0.5603     0.0842 C.3    1 <0>       0.0000
    5 N5       -1.6546    -0.8198     1.5305 N.4    1 <0>      -0.3900
    6 H6       -1.8703     0.0389     2.0144 H      1 <0>       0.4300
    7 C7       -2.7319    -1.8005     1.7192 C.3    1 <0>       0.0800
    8 C8       -4.0387    -1.2054     1.2617 C.ar   1 <0>       0.2500
    9 N9       -4.7779    -0.5397     2.1262 N.ar   1 <0>      -0.5000
   10 C10      -5.9311    -0.0034     1.7606 C.ar   1 <0>       0.1600
   11 C11      -6.3573    -0.1497     0.4499 C.ar   1 <0>      -0.1900
   12 C12      -5.5527    -0.8565    -0.4299 C.ar   1 <0>       0.1600
   13 N13      -4.4093    -1.3601     0.0064 N.ar   1 <0>      -0.5000
   14 C14      -0.3583    -1.3707     2.0027 C.3    1 <0>       0.0100
   15 C15       0.7132    -0.5372     1.2628 C.3    1 <0>      -0.0600
   16 H16       1.0468     0.2911     1.8879 H      1 <0>       0.1400
   17 C17       1.8826    -1.4080     0.8815 C.2    1 <0>       0.4200
   18 N18       1.8957    -1.9448    -0.3032 N.2    1 <0>      -0.5100
   19 C19       2.9028    -2.7316    -0.7139 C.2    1 <0>       0.3200
   20 C20       3.9735    -2.9837     0.1581 C.2    1 <0>      -0.3300
   21 C21       4.8745    -3.8264    -0.5191 C.2    1 <0>       0.1300
   22 N22       4.3943    -4.0696    -1.7074 N.2    1 <0>      -0.2500
   23 N23       3.1710    -3.4055    -1.8623 N.pl3  1 <0>      -0.3300
   24 C24       2.3253    -3.4330    -3.0583 C.3    1 <0>       0.1600
   25 C25       3.1099    -2.8831    -4.2534 C.3    1 <0>      -0.1700
   26 C26       2.2464    -2.9888    -5.5131 C.3    1 <0>       0.0700
   27 O27       1.8661    -4.3514    -5.7154 O.3    1 <0>      -0.3700
   28 C28       1.0895    -4.9046    -4.6510 C.3    1 <0>       0.0700
   29 C29       1.9066    -4.8759    -3.3567 C.3    1 <0>      -0.1700
   30 C30       3.9399    -2.3710     1.4861 C.2    1 <0>       0.5800
   31 O31       4.8391    -2.5512     2.2881 O.2    1 <0>      -0.4900
   32 N32       2.8754    -1.5912     1.7881 N.am   1 <0>      -0.6400
   33 H33       1.0039     1.9031     0.0027 H      1 <0>       0.0800
   34 H34      -0.5459     1.8868    -0.8726 H      1 <0>       0.0800
   35 H35      -0.5289     1.8773     0.9072 H      1 <0>       0.0600
   36 H36      -2.1500     0.1770    -0.2821 H      1 <0>       0.1300
   37 H37      -1.5182    -1.4862    -0.4849 H      1 <0>       0.1500
   38 H38      -2.5155    -2.6948     1.1349 H      1 <0>       0.1500
   39 H39      -2.8024    -2.0641     2.7745 H      1 <0>       0.1600
   40 H40      -6.5323     0.5407     2.4740 H      1 <0>       0.1900
   41 H41      -7.2940     0.2764     0.1221 H      1 <0>       0.1700
   42 H42      -5.8528    -0.9910    -1.4586 H      1 <0>       0.1900
   43 H43      -0.2614    -1.2437     3.0810 H      1 <0>       0.1500
   44 H44      -0.2722    -2.4235     1.7339 H      1 <0>       0.1400
   45 H45       5.8044    -4.2068    -0.1229 H      1 <0>       0.2000
   46 H46       1.4376    -2.8229    -2.8913 H      1 <0>       0.1100
   47 H47       3.3643    -1.8387    -4.0727 H      1 <0>       0.0800
   48 H48       4.0228    -3.4633    -4.3879 H      1 <0>       0.0900
   49 H49       1.3529    -2.3760    -5.3938 H      1 <0>       0.0600
   50 H50       2.8153    -2.6385    -6.3743 H      1 <0>       0.1100
   51 H51       0.1809    -4.3169    -4.5204 H      1 <0>       0.0500
   52 H52       0.8251    -5.9344    -4.8912 H      1 <0>       0.1100
   53 H53       2.7952    -5.4964    -3.4731 H      1 <0>       0.0900
   54 H54       1.3004    -5.2567    -2.5347 H      1 <0>       0.0800
   55 H55       2.8184    -1.1678     2.6589 H      1 <0>       0.4200
@<TRIPOS>BOND
   1    1    2 1
   2    1   33 1
   3    1   34 1
   4    1   35 1
   5    2    3 1
   6    2   15 1
   7    2    4 1
   8    4    5 1
   9    4   36 1
  10    4   37 1
  11    5    6 1
  12    5    7 1
  13    5   14 1
  14    7    8 1
  15    7   38 1
  16    7   39 1
  17    8   13 ar
  18    8    9 ar
  19    9   10 ar
  20   10   11 ar
  21   10   40 1
  22   11   12 ar
  23   11   41 1
  24   12   13 ar
  25   12   42 1
  26   14   15 1
  27   14   43 1
  28   14   44 1
  29   15   16 1
  30   15   17 1
  31   17   32 1
  32   17   18 2
  33   18   19 1
  34   19   23 1
  35   19   20 2
  36   20   21 1
  37   20   30 1
  38   21   22 2
  39   21   45 1
  40   22   23 1
  41   23   24 1
  42   24   29 1
  43   24   25 1
  44   24   46 1
  45   25   26 1
  46   25   47 1
  47   25   48 1
  48   26   27 1
  49   26   49 1
  50   26   50 1
  51   27   28 1
  52   28   29 1
  53   28   51 1
  54   28   52 1
  55   29   53 1
  56   29   54 1
  57   30   31 2
  58   30   32 am
  59   32   55 1
