@<TRIPOS>MOLECULE
ZINC000030691381
  37   40    0    0    0
SMALL
USER_CHARGES
NO_NAME
@<TRIPOS>ATOM
    1 C1       -0.0167     1.3767     0.0096 C.ar   1 <0>      -0.1700
    2 C2        1.1617     2.0945     0.0022 C.ar   1 <0>      -0.0800
    3 C3        2.3831     1.4243    -0.0121 C.ar   1 <0>      -0.1900
    4 C4        2.3899     0.0568    -0.0232 C.ar   1 <0>       0.2300
    5 C5        1.2133    -0.6805    -0.0237 C.ar   1 <0>      -0.1300
    6 C6        0.0021    -0.0041     0.0020 C.ar   1 <0>      -0.0800
    7 C7        1.2028    -2.1776    -0.0823 C.3    1 <0>      -0.0400
    8 H8        0.5221    -2.5695     0.6735 H      1 <0>       0.0800
    9 C9        0.7569    -2.6518    -1.4770 C.3    1 <0>      -0.1200
   10 C10       1.5839    -3.9093    -1.7989 C.3    1 <0>      -0.1300
   11 C11       2.4854    -4.1690    -0.5748 C.3    1 <0>      -0.1200
   12 C12       2.5996    -2.7892     0.1124 C.3    1 <0>      -0.1100
   13 H13       2.8388    -2.8885     1.1711 H      1 <0>       0.0800
   14 C14       3.6648    -1.9728    -0.6268 C.3    1 <0>       0.1300
   15 N15       3.6192    -0.5979    -0.0689 N.pl3  1 <0>      -0.6400
   16 C16       4.8379    -0.0323     0.5111 C.3    1 <0>       0.1300
   17 C17       4.5049     0.8183     1.7331 C.3    1 <0>       0.0400
   18 N18       4.1981     2.2207     1.3428 N.3    1 <0>      -0.6800
   19 C19       3.6314     2.2518     0.0138 C.3    1 <0>       0.1000
   20 H20      -0.9617     1.8992     0.0260 H      1 <0>       0.1200
   21 H21       1.1374     3.1743     0.0072 H      1 <0>       0.1200
   22 H22      -0.9255    -0.5571     0.0164 H      1 <0>       0.1200
   23 H23      -0.3053    -2.8962    -1.4663 H      1 <0>       0.0700
   24 H24       0.9545    -1.8756    -2.2162 H      1 <0>       0.0600
   25 H25       0.9220    -4.7597    -1.9624 H      1 <0>       0.0700
   26 H26       2.1964    -3.7368    -2.6839 H      1 <0>       0.0600
   27 H27       2.0214    -4.8954     0.0924 H      1 <0>       0.0700
   28 H28       3.4684    -4.5165    -0.8928 H      1 <0>       0.0700
   29 H29       4.6472    -2.4179    -0.4689 H      1 <0>       0.0800
   30 H30       3.4370    -1.9465    -1.6924 H      1 <0>       0.0700
   31 H31       5.5044    -0.8422     0.8076 H      1 <0>       0.0800
   32 H32       5.3362     0.5881    -0.2338 H      1 <0>       0.0700
   33 H33       3.6403     0.3913     2.2412 H      1 <0>       0.0400
   34 H34       5.3562     0.8148     2.4139 H      1 <0>       0.0900
   35 H35       3.5838     2.6568     2.0141 H      1 <0>       0.3500
   36 H36       4.3606     1.8649    -0.6980 H      1 <0>       0.0800
   37 H37       3.3861     3.2807    -0.2494 H      1 <0>       0.0800
@<TRIPOS>BOND
   1    1    6 ar
   2    1    2 ar
   3    1   20 1
   4    2    3 ar
   5    2   21 1
   6    3   19 1
   7    3    4 ar
   8    4   15 1
   9    4    5 ar
  10    5    6 ar
  11    5    7 1
  12    6   22 1
  13    7    8 1
  14    7   12 1
  15    7    9 1
  16    9   10 1
  17    9   23 1
  18    9   24 1
  19   10   11 1
  20   10   25 1
  21   10   26 1
  22   11   12 1
  23   11   27 1
  24   11   28 1
  25   12   13 1
  26   12   14 1
  27   14   15 1
  28   14   29 1
  29   14   30 1
  30   15   16 1
  31   16   17 1
  32   16   31 1
  33   16   32 1
  34   17   18 1
  35   17   33 1
  36   17   34 1
  37   18   19 1
  38   18   35 1
  39   19   36 1
  40   19   37 1
