@<TRIPOS>MOLECULE
ZINC000003973106
26    28    1     0     0
SMALL
USER_CHARGES
@<TRIPOS>ATOM
1      Cl1     0.0021   -0.0041    0.0020 Cl       1 ZINC000003973106   -0.0300
2      C2     -0.0215    1.7317    0.0116 C.ar     1 ZINC000003973106   -0.0200
3      C3     -1.2281    2.4073    0.0325 C.ar     1 ZINC000003973106   -0.0900
4      C4     -1.2464    3.7896    0.0406 C.ar     1 ZINC000003973106   -0.0900
5      C5     -0.0592    4.4973    0.0277 C.ar     1 ZINC000003973106   -0.0500
6      C6     -0.0807    6.0042    0.0366 C.3      1 ZINC000003973106   -0.1200
7      C7      0.3309    6.7715   -1.2215 C.3      1 ZINC000003973106   -0.1200
8      C8      1.2187    6.8354    0.0228 C.3      1 ZINC000003973106   -0.1800
9      H9      2.2016    6.3643    0.0062 H        1 ZINC000003973106    0.1600
10     C10     0.9995    7.9981    1.0145 C.3      1 ZINC000003973106    0.0300
11     N11    -0.4753    8.1674    1.0726 N.4      1 ZINC000003973106   -0.5400
12     H12    -0.7435    8.6347    1.9257 H        1 ZINC000003973106    0.4400
13     H13    -0.8033    8.6831    0.2697 H        1 ZINC000003973106    0.4300
14     C14    -0.9914    6.7006    1.0704 C.3      1 ZINC000003973106    0.0600
15     C15     1.1479    3.8237    0.0073 C.ar     1 ZINC000003973106   -0.0900
16     C16     1.1681    2.4408    0.0040 C.ar     1 ZINC000003973106   -0.0300
17     Cl17    2.6835    1.5944   -0.0217 Cl       1 ZINC000003973106   -0.0300
18     H18    -2.1561    1.8549    0.0422 H        1 ZINC000003973106    0.1500
19     H19    -2.1889    4.3168    0.0566 H        1 ZINC000003973106    0.1400
20     H20     0.6942    6.1895   -2.0685 H        1 ZINC000003973106    0.1300
21     H21    -0.2422    7.6631   -1.4761 H        1 ZINC000003973106    0.1100
22     H22     1.3913    7.7381    1.9978 H        1 ZINC000003973106    0.1400
23     H23     1.4722    8.9078    0.6442 H        1 ZINC000003973106    0.1400
24     H24    -2.0263    6.6622    0.7302 H        1 ZINC000003973106    0.1400
25     H25    -0.9009    6.2642    2.0651 H        1 ZINC000003973106    0.1500
26     H26     2.0751    4.3774   -0.0028 H        1 ZINC000003973106    0.1400
@<TRIPOS>BOND
1     1     2     1
2     2     16    ar
3     2     3     ar
4     3     4     ar
5     3     18    1
6     4     5     ar
7     4     19    1
8     5     6     1
9     5     15    ar
10    6     8     1
11    6     14    1
12    6     7     1
13    7     8     1
14    7     20    1
15    7     21    1
16    8     9     1
17    8     10    1
18    10    11    1
19    10    22    1
20    10    23    1
21    11    12    1
22    11    13    1
23    11    14    1
24    14    24    1
25    14    25    1
26    15    16    ar
27    15    26    1
28    16    17    1
@<TRIPOS>SUBSTRUCTURE
1   ZINC000003973106 1     RESIDUE    1   A     ZIN   1
