@<TRIPOS>MOLECULE
ZINC000002040034
45    46    1     0     0
SMALL
USER_CHARGES
@<TRIPOS>ATOM
1      C1     -0.2581    1.4440   -0.2354 C.3      1 ZINC000002040034   -0.0800
2      N2     -0.1160   -0.0057   -0.0452 N.4      1 ZINC000002040034   -0.2400
3      C3      0.7584   -0.2651    1.1064 C.3      1 ZINC000002040034   -0.0800
4      C4     -1.4373   -0.5992    0.1998 C.3      1 ZINC000002040034   -0.0300
5      C5     -2.0287   -0.0084    1.4536 C.2      1 ZINC000002040034    0.5000
6      O6     -1.4334    0.8616    2.0534 O.2      1 ZINC000002040034   -0.5000
7      N7     -3.2192   -0.4469    1.9086 N.am     1 ZINC000002040034   -0.6400
8      C8     -3.8200    0.1752    3.0086 C.ar     1 ZINC000002040034    0.1200
9      C9     -4.5603   -0.5745    3.9133 C.ar     1 ZINC000002040034   -0.1300
10     C10    -5.1521    0.0426    4.9980 C.ar     1 ZINC000002040034   -0.1000
11     C11    -5.0084    1.4053    5.1835 C.ar     1 ZINC000002040034   -0.1100
12     C12    -4.2723    2.1547    4.2841 C.ar     1 ZINC000002040034   -0.1000
13     C13    -3.6724    1.5426    3.2011 C.ar     1 ZINC000002040034   -0.1100
14     C14     0.4728   -0.6025   -1.2514 C.3      1 ZINC000002040034   -0.0300
15     C15     1.8012    0.0494   -1.5372 C.2      1 ZINC000002040034    0.5100
16     O16     2.2703    0.8417   -0.7477 O.2      1 ZINC000002040034   -0.5000
17     N17     2.4679   -0.2479   -2.6702 N.am     1 ZINC000002040034   -0.6400
18     C18     3.7492    0.2717   -2.8848 C.ar     1 ZINC000002040034    0.1200
19     C19     4.1548    0.6154   -4.1677 C.ar     1 ZINC000002040034   -0.1300
20     C20     5.4202    1.1280   -4.3763 C.ar     1 ZINC000002040034   -0.1000
21     C21     6.2831    1.2987   -3.3093 C.ar     1 ZINC000002040034   -0.1200
22     C22     5.8825    0.9570   -2.0307 C.ar     1 ZINC000002040034   -0.1000
23     C23     4.6160    0.4501   -1.8146 C.ar     1 ZINC000002040034   -0.1100
24     H24     0.7292    1.8974   -0.3235 H        1 ZINC000002040034    0.1500
25     H25    -0.8289    1.6371   -1.1437 H        1 ZINC000002040034    0.1100
26     H26    -0.7800    1.8733    0.6199 H        1 ZINC000002040034    0.1500
27     H27     0.2772    0.0939    2.0161 H        1 ZINC000002040034    0.1500
28     H28     0.9406   -1.3365    1.1902 H        1 ZINC000002040034    0.1100
29     H29     1.7062    0.2548    0.9672 H        1 ZINC000002040034    0.1500
30     H30    -2.0926   -0.3884   -0.6453 H        1 ZINC000002040034    0.1600
31     H31    -1.3346   -1.6777    0.3197 H        1 ZINC000002040034    0.1600
32     H32    -3.6595   -1.1937    1.4736 H        1 ZINC000002040034    0.4200
33     H33    -4.6735   -1.6387    3.7687 H        1 ZINC000002040034    0.1300
34     H34    -5.7280   -0.5399    5.7020 H        1 ZINC000002040034    0.1300
35     H35    -5.4725    1.8855    6.0323 H        1 ZINC000002040034    0.1300
36     H36    -4.1625    3.2189    4.4313 H        1 ZINC000002040034    0.1300
37     H37    -3.0976    2.1283    2.4990 H        1 ZINC000002040034    0.1300
38     H38     0.6189   -1.6711   -1.0939 H        1 ZINC000002040034    0.1600
39     H39    -0.1971   -0.4481   -2.0973 H        1 ZINC000002040034    0.1600
40     H40     2.0595   -0.8222   -3.3367 H        1 ZINC000002040034    0.4200
41     H41     3.4816    0.4816   -5.0015 H        1 ZINC000002040034    0.1300
42     H42     5.7362    1.3955   -5.3738 H        1 ZINC000002040034    0.1300
43     H43     7.2722    1.6994   -3.4750 H        1 ZINC000002040034    0.1300
44     H44     6.5590    1.0909   -1.1995 H        1 ZINC000002040034    0.1300
45     H45     4.3037    0.1834   -0.8157 H        1 ZINC000002040034    0.1300
@<TRIPOS>BOND
1     1     2     1
2     1     24    1
3     1     25    1
4     1     26    1
5     2     3     1
6     2     4     1
7     2     14    1
8     3     27    1
9     3     28    1
10    3     29    1
11    4     5     1
12    4     30    1
13    4     31    1
14    5     6     2
15    5     7     am
16    7     8     1
17    7     32    1
18    8     13    ar
19    8     9     ar
20    9     10    ar
21    9     33    1
22    10    11    ar
23    10    34    1
24    11    12    ar
25    11    35    1
26    12    13    ar
27    12    36    1
28    13    37    1
29    14    15    1
30    14    38    1
31    14    39    1
32    15    16    2
33    15    17    am
34    17    18    1
35    17    40    1
36    18    23    ar
37    18    19    ar
38    19    20    ar
39    19    41    1
40    20    21    ar
41    20    42    1
42    21    22    ar
43    21    43    1
44    22    23    ar
45    22    44    1
46    23    45    1
@<TRIPOS>SUBSTRUCTURE
1   ZINC000002040034 1     RESIDUE    1   A     ZIN   1
