@<TRIPOS>MOLECULE
ZINC000000002269
43    44    1     0     0
SMALL
USER_CHARGES
@<TRIPOS>ATOM
1      C1     -0.0187    1.5258    0.0104 C.3      1 ZINC000000002269   -0.1500
2      C2      0.0021   -0.0041    0.0020 C.3      1 ZINC000000002269   -0.0800
3      C3      0.7074   -0.4901   -1.2379 C.ar     1 ZINC000000002269   -0.0700
4      C4      2.0911   -0.6095   -1.2484 C.ar     1 ZINC000000002269    0.0700
5      O5      3.0489   -0.3721   -0.3296 O.3      1 ZINC000000002269   -0.1900
6      C6      4.2681   -0.6449   -0.8262 C.2      1 ZINC000000002269   -0.0400
7      C7      5.5620   -0.4917   -0.0691 C.3      1 ZINC000000002269    0.1800
8      H8      6.3799   -0.3424   -0.7740 H        1 ZINC000000002269    0.1500
9      O9      5.4729    0.6368    0.8030 O.3      1 ZINC000000002269   -0.5400
10     C10     5.8231   -1.7539    0.7552 C.3      1 ZINC000000002269   -0.0600
11     N11     7.0844   -1.6046    1.4933 N.4      1 ZINC000000002269   -0.5000
12     H12     7.8416   -1.4664    0.8408 H        1 ZINC000000002269    0.4300
13     H13     7.0215   -0.8077    2.1090 H        1 ZINC000000002269    0.4300
14     C14     7.3351   -2.8165    2.2847 C.3      1 ZINC000000002269    0.0600
15     C15     7.4306   -4.0247    1.3510 C.3      1 ZINC000000002269   -0.1800
16     C16     8.6488   -2.6609    3.0534 C.3      1 ZINC000000002269   -0.1800
17     C17     6.1870   -3.0260    3.2741 C.3      1 ZINC000000002269   -0.1800
18     C18     4.1660   -1.0731   -2.0917 C.2      1 ZINC000000002269   -0.1500
19     C19     2.7336   -1.0646   -2.4123 C.ar     1 ZINC000000002269   -0.1400
20     C20     1.9860   -1.3923   -3.5421 C.ar     1 ZINC000000002269   -0.0700
21     C21     0.6145   -1.2673   -3.5104 C.ar     1 ZINC000000002269   -0.1200
22     C22    -0.0208   -0.8218   -2.3605 C.ar     1 ZINC000000002269   -0.0800
23     H23     1.0039    1.9031    0.0027 H        1 ZINC000000002269    0.0500
24     H24    -0.5459    1.8868   -0.8726 H        1 ZINC000000002269    0.0600
25     H25    -0.5289    1.8773    0.9072 H        1 ZINC000000002269    0.0600
26     H26     0.5293   -0.3651    0.8851 H        1 ZINC000000002269    0.0700
27     H27    -1.0205   -0.3814    0.0098 H        1 ZINC000000002269    0.0800
28     H28     4.7647    0.5725    1.4584 H        1 ZINC000000002269    0.4000
29     H29     5.0052   -1.9032    1.4601 H        1 ZINC000000002269    0.1400
30     H30     5.8911   -2.6147    0.0900 H        1 ZINC000000002269    0.1500
31     H31     8.2485   -3.8755    0.6461 H        1 ZINC000000002269    0.0800
32     H32     7.6166   -4.9240    1.9382 H        1 ZINC000000002269    0.1100
33     H33     6.4946   -4.1355    0.8033 H        1 ZINC000000002269    0.0800
34     H34     8.5808   -1.8001    3.7186 H        1 ZINC000000002269    0.0800
35     H35     8.8348   -3.5602    3.6407 H        1 ZINC000000002269    0.1100
36     H36     9.4667   -2.5117    2.3485 H        1 ZINC000000002269    0.0800
37     H37     5.2511   -3.1368    2.7265 H        1 ZINC000000002269    0.0800
38     H38     6.3730   -3.9252    3.8614 H        1 ZINC000000002269    0.1100
39     H39     6.1190   -2.1652    3.9393 H        1 ZINC000000002269    0.0800
40     H40     4.9750   -1.3654   -2.7448 H        1 ZINC000000002269    0.1600
41     H41     2.4791   -1.7418   -4.4371 H        1 ZINC000000002269    0.1300
42     H42     0.0311   -1.5201   -4.3834 H        1 ZINC000000002269    0.1400
43     H43    -1.0966   -0.7275   -2.3467 H        1 ZINC000000002269    0.1400
@<TRIPOS>BOND
1     1     2     1
2     1     23    1
3     1     24    1
4     1     25    1
5     2     3     1
6     2     26    1
7     2     27    1
8     3     22    ar
9     3     4     ar
10    4     19    ar
11    4     5     1
12    5     6     1
13    6     7     1
14    6     18    2
15    7     8     1
16    7     9     1
17    7     10    1
18    9     28    1
19    10    11    1
20    10    29    1
21    10    30    1
22    11    12    1
23    11    13    1
24    11    14    1
25    14    15    1
26    14    16    1
27    14    17    1
28    15    31    1
29    15    32    1
30    15    33    1
31    16    34    1
32    16    35    1
33    16    36    1
34    17    37    1
35    17    38    1
36    17    39    1
37    18    19    1
38    18    40    1
39    19    20    ar
40    20    21    ar
41    20    41    1
42    21    22    ar
43    21    42    1
44    22    43    1
@<TRIPOS>SUBSTRUCTURE
1   ZINC000000002269 1     RESIDUE    1   A     ZIN   1
