@<TRIPOS>MOLECULE
ZINC000006037086
46    47    1     0     0
SMALL
USER_CHARGES
@<TRIPOS>ATOM
1      C1     -0.0187    1.5258    0.0104 C.3      1 ZINC000006037086   -0.1400
2      C2      0.0021   -0.0041    0.0020 C.3      1 ZINC000006037086   -0.0400
3      H3     -1.0205   -0.3814    0.0098 H        1 ZINC000006037086    0.1200
4      C4      0.7074   -0.4901   -1.2379 C.2      1 ZINC000006037086    0.4700
5      O5      1.7002   -1.1719   -1.1401 O.2      1 ZINC000006037086   -0.4900
6      O6      0.2329   -0.1655   -2.4508 O.3      1 ZINC000006037086   -0.3500
7      C7      0.9631   -0.6685   -3.6006 C.3      1 ZINC000006037086    0.0700
8      C8      0.2776   -0.1991   -4.8854 C.3      1 ZINC000006037086   -0.1200
9      C9      1.0471   -0.7291   -6.0969 C.3      1 ZINC000006037086   -0.1100
10     C10     0.3616   -0.2598   -7.3817 C.3      1 ZINC000006037086    0.0300
11     O11     1.0802   -0.7548   -8.5133 O.3      1 ZINC000006037086   -0.2200
12     N12     0.5251   -0.3750   -9.7593 N.pl3    1 ZINC000006037086    0.1200
13     O13    -0.4784    0.3144   -9.7942 O.2      1 ZINC000006037086   -0.1300
14     O14     1.0512   -0.7376  -10.7963 O.2      1 ZINC000006037086   -0.0700
15     C15     0.7309   -0.5033    1.2229 C.ar     1 ZINC000006037086   -0.0500
16     C16     2.0508   -0.1460    1.4312 C.ar     1 ZINC000006037086   -0.0900
17     C17     2.7247   -0.6000    2.5471 C.ar     1 ZINC000006037086   -0.0800
18     C18     2.0735   -1.4197    3.4659 C.ar     1 ZINC000006037086   -0.0700
19     C19     2.7927   -1.9102    4.6673 C.ar     1 ZINC000006037086   -0.0600
20     C20     4.0470   -2.5033    4.5378 C.ar     1 ZINC000006037086   -0.1000
21     C21     4.7116   -2.9578    5.6588 C.ar     1 ZINC000006037086   -0.1200
22     C22     4.1346   -2.8259    6.9090 C.ar     1 ZINC000006037086   -0.1100
23     C23     2.8896   -2.2384    7.0433 C.ar     1 ZINC000006037086   -0.1200
24     C24     2.2190   -1.7743    5.9299 C.ar     1 ZINC000006037086   -0.1000
25     C25     0.7414   -1.7774    3.2520 C.ar     1 ZINC000006037086    0.1100
26     F26     0.1028   -2.5721    4.1385 F        1 ZINC000006037086   -0.1300
27     C27     0.0757   -1.3122    2.1334 C.ar     1 ZINC000006037086   -0.1400
28     H28     1.0039    1.9031    0.0027 H        1 ZINC000006037086    0.0700
29     H29    -0.5459    1.8868   -0.8726 H        1 ZINC000006037086    0.0800
30     H30    -0.5289    1.8773    0.9072 H        1 ZINC000006037086    0.0800
31     H31     1.9853   -0.2909   -3.5754 H        1 ZINC000006037086    0.0800
32     H32     0.9775   -1.7581   -3.5736 H        1 ZINC000006037086    0.0800
33     H33    -0.7446   -0.5767   -4.9106 H        1 ZINC000006037086    0.0800
34     H34     0.2632    0.8904   -4.9123 H        1 ZINC000006037086    0.0900
35     H35     2.0693   -0.3516   -6.0717 H        1 ZINC000006037086    0.0900
36     H36     1.0615   -1.8187   -6.0700 H        1 ZINC000006037086    0.0900
37     H37    -0.6606   -0.6374   -7.4069 H        1 ZINC000006037086    0.0900
38     H38     0.3472    0.8298   -7.4086 H        1 ZINC000006037086    0.0900
39     H39     2.5556    0.4896    0.7187 H        1 ZINC000006037086    0.1300
40     H40     3.7555   -0.3203    2.7074 H        1 ZINC000006037086    0.1400
41     H41     4.4981   -2.6074    3.5621 H        1 ZINC000006037086    0.1300
42     H42     5.6838   -3.4177    5.5596 H        1 ZINC000006037086    0.1300
43     H43     4.6580   -3.1833    7.7835 H        1 ZINC000006037086    0.1200
44     H44     2.4436   -2.1383    8.0218 H        1 ZINC000006037086    0.1300
45     H45     1.2471   -1.3154    6.0359 H        1 ZINC000006037086    0.1200
46     H46    -0.9551   -1.5877    1.9658 H        1 ZINC000006037086    0.1400
@<TRIPOS>BOND
1     1     2     1
2     1     28    1
3     1     29    1
4     1     30    1
5     2     3     1
6     2     4     1
7     2     15    1
8     4     5     2
9     4     6     1
10    6     7     1
11    7     8     1
12    7     31    1
13    7     32    1
14    8     9     1
15    8     33    1
16    8     34    1
17    9     10    1
18    9     35    1
19    9     36    1
20    10    11    1
21    10    37    1
22    10    38    1
23    11    12    1
24    12    13    2
25    12    14    2
26    15    27    ar
27    15    16    ar
28    16    17    ar
29    16    39    1
30    17    18    ar
31    17    40    1
32    18    19    1
33    18    25    ar
34    19    24    ar
35    19    20    ar
36    20    21    ar
37    20    41    1
38    21    22    ar
39    21    42    1
40    22    23    ar
41    22    43    1
42    23    24    ar
43    23    44    1
44    24    45    1
45    25    26    1
46    25    27    ar
47    27    46    1
@<TRIPOS>SUBSTRUCTURE
1   ZINC000006037086 1     RESIDUE    1   A     ZIN   1
