@<TRIPOS>MOLECULE
ZINC000001535009
59    60    1     0     0
SMALL
USER_CHARGES
@<TRIPOS>ATOM
1      C1      1.6069    1.6084    1.6631 C.3      1 ZINC000001535009   -0.1900
2      C2      1.9054    0.1267    1.4259 C.3      1 ZINC000001535009   -0.0100
3      N3      0.6425   -0.6142    1.3063 N.4      1 ZINC000001535009   -0.3900
4      H4      0.0741   -0.4439    2.1223 H        1 ZINC000001535009    0.4200
5      C5     -0.0765   -0.1657    0.1063 C.3      1 ZINC000001535009   -0.0200
6      C6     -1.4603   -0.8172    0.0676 C.3      1 ZINC000001535009   -0.1900
7      C7      0.9263   -2.0514    1.1985 C.3      1 ZINC000001535009   -0.0200
8      C8      1.5574   -2.5458    2.5016 C.3      1 ZINC000001535009   -0.1500
9      C9      1.7480   -4.0623    2.4328 C.3      1 ZINC000001535009   -0.1200
10     C10     2.3791   -4.5567    3.7360 C.3      1 ZINC000001535009   -0.1200
11     C11     2.5697   -6.0732    3.6671 C.3      1 ZINC000001535009   -0.1300
12     C12     3.2008   -6.5676    4.9703 C.3      1 ZINC000001535009    0.1200
13     N13     3.3833   -8.0197    4.9044 N.pl3    1 ZINC000001535009   -0.7300
14     C14     3.9451   -8.7013    5.9829 C.ar     1 ZINC000001535009    0.2800
15     C15     4.1279  -10.1008    5.9203 C.ar     1 ZINC000001535009    0.0500
16     N16     3.7692  -10.7920    4.8351 N.ar     1 ZINC000001535009   -0.4700
17     C17     3.9351  -12.0905    4.7675 C.ar     1 ZINC000001535009    0.1100
18     C18     4.4920  -12.8139    5.8201 C.ar     1 ZINC000001535009   -0.1600
19     C19     4.8806  -12.1688    6.9592 C.ar     1 ZINC000001535009   -0.0400
20     C20     5.4859  -12.9286    8.1113 C.3      1 ZINC000001535009   -0.1200
21     C21     4.7005  -10.7736    7.0275 C.ar     1 ZINC000001535009   -0.0200
22     C22     5.0775  -10.0463    8.1670 C.ar     1 ZINC000001535009   -0.2100
23     C23     4.8883   -8.6830    8.2015 C.ar     1 ZINC000001535009    0.1800
24     O24     5.2546   -7.9812    9.3060 O.3      1 ZINC000001535009   -0.3100
25     C25     5.0328   -6.5697    9.2809 C.3      1 ZINC000001535009    0.0300
26     C26     4.3295   -8.0129    7.1112 C.ar     1 ZINC000001535009   -0.2900
27     H27     1.0314    1.7206    2.5819 H        1 ZINC000001535009    0.0800
28     H28     2.5439    2.1582    1.7519 H        1 ZINC000001535009    0.1100
29     H29     1.0327    2.0022    0.8244 H        1 ZINC000001535009    0.0800
30     H30     2.4809    0.0145    0.5071 H        1 ZINC000001535009    0.1300
31     H31     2.4795   -0.2670    2.2646 H        1 ZINC000001535009    0.1300
32     H32    -0.1859    0.9185    0.1324 H        1 ZINC000001535009    0.1300
33     H33     0.4854   -0.4529   -0.7825 H        1 ZINC000001535009    0.1300
34     H34    -1.9784   -0.5159   -0.8428 H        1 ZINC000001535009    0.1100
35     H35    -1.3518   -1.9017    0.0819 H        1 ZINC000001535009    0.0800
36     H36    -2.0365   -0.4982    0.9361 H        1 ZINC000001535009    0.0800
37     H37    -0.0022   -2.5925    1.0163 H        1 ZINC000001535009    0.1300
38     H38     1.6159   -2.2247    0.3723 H        1 ZINC000001535009    0.1300
39     H39     2.5250   -2.0640    2.6424 H        1 ZINC000001535009    0.0900
40     H40     0.9037   -2.2994    3.3383 H        1 ZINC000001535009    0.0900
41     H41     0.7805   -4.5441    2.2920 H        1 ZINC000001535009    0.0800
42     H42     2.4018   -4.3088    1.5961 H        1 ZINC000001535009    0.0800
43     H43     3.3467   -4.0749    3.8768 H        1 ZINC000001535009    0.0700
44     H44     1.7254   -4.3103    4.5726 H        1 ZINC000001535009    0.0700
45     H45     1.6022   -6.5550    3.5263 H        1 ZINC000001535009    0.0700
46     H46     3.2235   -6.3196    2.8305 H        1 ZINC000001535009    0.0700
47     H47     4.1684   -6.0858    5.1111 H        1 ZINC000001535009    0.0600
48     H48     2.5470   -6.3212    5.8069 H        1 ZINC000001535009    0.0600
49     H49     3.1132   -8.5069    4.1103 H        1 ZINC000001535009    0.4100
50     H50     3.6318  -12.6135    3.8725 H        1 ZINC000001535009    0.1600
51     H51     4.6158  -13.8834    5.7353 H        1 ZINC000001535009    0.1400
52     H52     6.5683  -12.9711    7.9899 H        1 ZINC000001535009    0.0800
53     H53     5.2448  -12.4234    9.0465 H        1 ZINC000001535009    0.0800
54     H54     5.0825  -13.9410    8.1308 H        1 ZINC000001535009    0.0700
55     H55     5.5143  -10.5543    9.0141 H        1 ZINC000001535009    0.1400
56     H56     5.3686   -6.1324   10.2211 H        1 ZINC000001535009    0.1000
57     H57     5.5911   -6.1288    8.4551 H        1 ZINC000001535009    0.0500
58     H58     3.9693   -6.3714    9.1473 H        1 ZINC000001535009    0.0500
59     H59     4.1890   -6.9431    7.1573 H        1 ZINC000001535009    0.1300
@<TRIPOS>BOND
1     1     2     1
2     1     27    1
3     1     28    1
4     1     29    1
5     2     3     1
6     2     30    1
7     2     31    1
8     3     4     1
9     3     5     1
10    3     7     1
11    5     6     1
12    5     32    1
13    5     33    1
14    6     34    1
15    6     35    1
16    6     36    1
17    7     8     1
18    7     37    1
19    7     38    1
20    8     9     1
21    8     39    1
22    8     40    1
23    9     10    1
24    9     41    1
25    9     42    1
26    10    11    1
27    10    43    1
28    10    44    1
29    11    12    1
30    11    45    1
31    11    46    1
32    12    13    1
33    12    47    1
34    12    48    1
35    13    14    1
36    13    49    1
37    14    26    ar
38    14    15    ar
39    15    21    ar
40    15    16    ar
41    16    17    ar
42    17    18    ar
43    17    50    1
44    18    19    ar
45    18    51    1
46    19    20    1
47    19    21    ar
48    20    52    1
49    20    53    1
50    20    54    1
51    21    22    ar
52    22    23    ar
53    22    55    1
54    23    24    1
55    23    26    ar
56    24    25    1
57    25    56    1
58    25    57    1
59    25    58    1
60    26    59    1
@<TRIPOS>SUBSTRUCTURE
1   ZINC000001535009 1     RESIDUE    1   A     ZIN   1
