@<TRIPOS>MOLECULE
ZINC000012404521
40    42    1     0     0
SMALL
USER_CHARGES
@<TRIPOS>ATOM
1      C1      0.7087    1.4735    0.0586 C.3      1 ZINC000012404521   -0.0900
2      C2      0.3890    0.0009    0.0487 C.2      1 ZINC000012404521    0.0500
3      C3     -0.0284   -0.7075   -1.0300 C.2      1 ZINC000012404521   -0.1500
4      C4     -0.2511   -0.1613   -2.4168 C.3      1 ZINC000012404521   -0.0300
5      C5      1.0449   -0.2714   -3.2225 C.3      1 ZINC000012404521   -0.1700
6      C6      0.8222    0.2748   -4.6093 C.2      1 ZINC000012404521    0.4900
7      O7     -0.2717    0.7116   -4.9240 O.co2    1 ZINC000012404521   -0.7000
8      O8      1.7359    0.2800   -5.4165 O.co2    1 ZINC000012404521   -0.7100
9      C9     -0.2149   -2.0319   -0.6296 C.2      1 ZINC000012404521   -0.0800
10     C10    -0.6734   -3.1745   -1.4986 C.3      1 ZINC000012404521   -0.0900
11     C11     0.1022   -2.0975    0.7185 C.2      1 ZINC000012404521   -0.0300
12     C12     0.0552   -3.2484    1.5320 C.2      1 ZINC000012404521    0.1000
13     C13    -0.4396   -3.1647    2.8195 C.2      1 ZINC000012404521   -0.2100
14     C14    -0.4021   -4.2005    3.8598 C.2      1 ZINC000012404521    0.5600
15     O15     0.0797   -5.3135    3.7447 O.2      1 ZINC000012404521   -0.5100
16     N16    -0.9921   -3.7056    4.9611 N.am     1 ZINC000012404521   -0.6600
17     C17    -1.4342   -2.4043    4.7575 C.ar     1 ZINC000012404521    0.1400
18     C18    -2.0887   -1.5071    5.5938 C.ar     1 ZINC000012404521   -0.1400
19     C19    -2.4222   -0.2488    5.1343 C.ar     1 ZINC000012404521   -0.0900
20     C20    -2.1116    0.1352    3.8406 C.ar     1 ZINC000012404521   -0.1400
21     C21    -1.4619   -0.7418    2.9952 C.ar     1 ZINC000012404521   -0.0900
22     C22    -1.1161   -2.0098    3.4504 C.ar     1 ZINC000012404521   -0.0900
23     N23     0.4777   -0.8321    1.1160 N.pl3    1 ZINC000012404521   -0.5400
24     H24     1.7615    1.6184   -0.1837 H        1 ZINC000012404521    0.0800
25     H25     0.0921    1.9842   -0.6810 H        1 ZINC000012404521    0.0900
26     H26     0.5038    1.8832    1.0477 H        1 ZINC000012404521    0.0600
27     H27    -1.0359   -0.7339   -2.9111 H        1 ZINC000012404521    0.0700
28     H28    -0.5507    0.8847   -2.3515 H        1 ZINC000012404521    0.0700
29     H29     1.8297    0.3012   -2.7282 H        1 ZINC000012404521    0.0500
30     H30     1.3445   -1.3173   -3.2878 H        1 ZINC000012404521    0.0500
31     H31     0.1931   -3.6600   -1.9476 H        1 ZINC000012404521    0.0700
32     H32    -1.2202   -3.8960   -0.8916 H        1 ZINC000012404521    0.0600
33     H33    -1.3248   -2.7939   -2.2854 H        1 ZINC000012404521    0.0700
34     H34     0.4059   -4.1952    1.1488 H        1 ZINC000012404521    0.1500
35     H35    -1.0964   -4.1948    5.7923 H        1 ZINC000012404521    0.4100
36     H36    -2.3369   -1.7951    6.6046 H        1 ZINC000012404521    0.1200
37     H37    -2.9305    0.4426    5.7899 H        1 ZINC000012404521    0.1300
38     H38    -2.3783    1.1221    3.4923 H        1 ZINC000012404521    0.1300
39     H39    -1.2197   -0.4432    1.9860 H        1 ZINC000012404521    0.1400
40     H40     0.7537   -0.5784    2.0106 H        1 ZINC000012404521    0.4100
@<TRIPOS>BOND
1     1     2     1
2     1     24    1
3     1     25    1
4     1     26    1
5     2     23    1
6     2     3     2
7     3     4     1
8     3     9     1
9     4     5     1
10    4     27    1
11    4     28    1
12    5     6     1
13    5     29    1
14    5     30    1
15    6     7     ar
16    6     8     ar
17    9     10    1
18    9     11    2
19    10    31    1
20    10    32    1
21    10    33    1
22    11    12    1
23    11    23    1
24    12    13    2
25    12    34    1
26    13    22    1
27    13    14    1
28    14    15    2
29    14    16    am
30    16    17    1
31    16    35    1
32    17    22    ar
33    17    18    ar
34    18    19    ar
35    18    36    1
36    19    20    ar
37    19    37    1
38    20    21    ar
39    20    38    1
40    21    22    ar
41    21    39    1
42    23    40    1
@<TRIPOS>SUBSTRUCTURE
1   ZINC000012404521 1     RESIDUE    1   A     ZIN   1
