@<TRIPOS>MOLECULE
ZINC000003810825
  44   46    0    0    0
SMALL
USER_CHARGES
NO_NAME
@<TRIPOS>ATOM
    1 C1       -0.0184     1.5028     0.0103 C.3    1 <0>      -0.1700
    2 C2        0.0021    -0.0041     0.0020 C.2    1 <0>       0.5100
    3 O3        0.0203    -0.6160     1.0489 O.2    1 <0>      -0.5400
    4 N4        0.0001    -0.6716    -1.1688 N.am   1 <0>      -0.7300
    5 C5        0.0199    -2.1365    -1.1769 C.3    1 <0>       0.1100
    6 C6        0.0131    -2.6387    -2.6221 C.3    1 <0>       0.0600
    7 H7        0.8810    -2.2594    -3.1615 H      1 <0>       0.1300
    8 C8       -0.0149    -4.1789    -2.6586 C.3    1 <0>       0.0700
    9 N9       -1.2736    -4.4901    -3.3532 N.am   1 <0>      -0.5700
   10 C10      -1.7533    -5.7771    -3.6336 C.ar   1 <0>       0.2100
   11 C11      -1.0232    -6.8904    -3.2414 C.ar   1 <0>      -0.1600
   12 C12      -1.4948    -8.1593    -3.5175 C.ar   1 <0>      -0.0700
   13 C13      -2.6993    -8.3218    -4.1870 C.ar   1 <0>       0.1100
   14 N14      -3.1775    -9.6084    -4.4665 N.pl3  1 <0>      -0.6700
   15 C15      -2.8031   -10.2634    -5.7209 C.3    1 <0>       0.1400
   16 C16      -1.9475   -11.4979    -5.4174 C.3    1 <0>      -0.1000
   17 S17      -2.8896   -12.6111    -4.3328 S.3    1 <0>      -0.2600
   18 C18      -3.3304   -11.5206    -2.9474 C.3    1 <0>      -0.1000
   19 C19      -4.0414   -10.2859    -3.4984 C.3    1 <0>       0.1400
   20 C20      -3.4319    -7.2066    -4.5800 C.ar   1 <0>       0.1300
   21 F21      -4.6050    -7.3638    -5.2315 F      1 <0>      -0.1200
   22 C22      -2.9618    -5.9378    -4.2987 C.ar   1 <0>      -0.1900
   23 C23      -1.8871    -3.3427    -3.6740 C.2    1 <0>       0.6500
   24 O24      -2.9521    -3.3008    -4.2576 O.2    1 <0>      -0.4900
   25 O25      -1.2182    -2.2444    -3.2940 O.3    1 <0>      -0.3100
   26 H26       1.0042     1.8801     0.0026 H      1 <0>       0.1000
   27 H27      -0.5455     1.8639    -0.8728 H      1 <0>       0.0800
   28 H28      -0.5286     1.8543     0.9071 H      1 <0>       0.1000
   29 H29      -0.0145    -0.1822    -2.0061 H      1 <0>       0.4100
   30 H30       0.9196    -2.4904    -0.6735 H      1 <0>       0.1000
   31 H31      -0.8601    -2.5146    -0.6566 H      1 <0>       0.0800
   32 H32       0.8370    -4.5641    -3.2189 H      1 <0>       0.1100
   33 H33      -0.0249    -4.5857    -1.6474 H      1 <0>       0.1100
   34 H34      -0.0856    -6.7646    -2.7203 H      1 <0>       0.1400
   35 H35      -0.9256    -9.0250    -3.2126 H      1 <0>       0.1400
   36 H36      -3.7034   -10.5676    -6.2547 H      1 <0>       0.0700
   37 H37      -2.2326    -9.5686    -6.3373 H      1 <0>       0.0800
   38 H38      -1.7057   -12.0124    -6.3475 H      1 <0>       0.1100
   39 H39      -1.0287   -11.1917    -4.9173 H      1 <0>       0.0800
   40 H40      -3.9927   -12.0498    -2.2622 H      1 <0>       0.1100
   41 H41      -2.4261   -11.2146    -2.4212 H      1 <0>       0.0800
   42 H42      -4.2737    -9.6048    -2.6797 H      1 <0>       0.0800
   43 H43      -4.9648   -10.5886    -3.9921 H      1 <0>       0.0700
   44 H44      -3.5300    -5.0714    -4.6035 H      1 <0>       0.1700
@<TRIPOS>BOND
   1    1    2 1
   2    1   26 1
   3    1   27 1
   4    1   28 1
   5    2    3 2
   6    2    4 am
   7    4    5 1
   8    4   29 1
   9    5    6 1
  10    5   30 1
  11    5   31 1
  12    6    7 1
  13    6   25 1
  14    6    8 1
  15    8    9 1
  16    8   32 1
  17    8   33 1
  18    9   10 1
  19    9   23 am
  20   10   22 ar
  21   10   11 ar
  22   11   12 ar
  23   11   34 1
  24   12   13 ar
  25   12   35 1
  26   13   14 1
  27   13   20 ar
  28   14   19 1
  29   14   15 1
  30   15   16 1
  31   15   36 1
  32   15   37 1
  33   16   17 1
  34   16   38 1
  35   16   39 1
  36   17   18 1
  37   18   19 1
  38   18   40 1
  39   18   41 1
  40   19   42 1
  41   19   43 1
  42   20   21 1
  43   20   22 ar
  44   22   44 1
  45   23   24 2
  46   23   25 1
