@<TRIPOS>MOLECULE
ZINC000001533058
62    65    1     0     0
SMALL
USER_CHARGES
@<TRIPOS>ATOM
1      C1      0.8257   -1.1883    0.5457 C.3      1 ZINC000001533058   -0.1500
2      C2      0.0043   -0.0155    0.0066 C.3      1 ZINC000001533058   -0.0900
3      C3     -1.4368   -0.4336   -0.1331 C.2      1 ZINC000001533058   -0.0300
4      C4     -1.8944   -0.9031   -1.3199 C.2      1 ZINC000001533058   -0.0600
5      C5     -1.0203   -0.8744   -2.5136 C.ar     1 ZINC000001533058   -0.0200
6      C6     -0.5918    0.3454   -3.0390 C.ar     1 ZINC000001533058   -0.1000
7      C7      0.2233    0.3656   -4.1517 C.ar     1 ZINC000001533058   -0.0800
8      C8      0.6158   -0.8207   -4.7472 C.ar     1 ZINC000001533058   -0.1000
9      I9      1.8539   -0.7802   -6.4367 I        1 ZINC000001533058   -0.0400
10     C10     0.1941   -2.0338   -4.2307 C.ar     1 ZINC000001533058   -0.0800
11     C11    -0.6165   -2.0672   -3.1150 C.ar     1 ZINC000001533058   -0.1000
12     C12    -3.2676   -1.4440   -1.4214 C.ar     1 ZINC000001533058   -0.0500
13     C13    -3.6188   -2.5980   -0.7189 C.ar     1 ZINC000001533058   -0.0600
14     C14    -4.8993   -3.0990   -0.8161 C.ar     1 ZINC000001533058   -0.1400
15     C15    -5.8393   -2.4574   -1.6120 C.ar     1 ZINC000001533058    0.1100
16     O16    -7.1003   -2.9544   -1.7056 O.3      1 ZINC000001533058   -0.3300
17     C17    -8.0168   -2.2451   -2.5416 C.3      1 ZINC000001533058    0.0300
18     C18    -9.3751   -2.9491   -2.5216 C.3      1 ZINC000001533058    0.0000
19     N19    -9.9450   -2.8751   -1.1697 N.4      1 ZINC000001533058   -0.4000
20     H20    -9.2891   -3.2387   -0.4947 H        1 ZINC000001533058    0.4300
21     C21   -10.2956   -1.4704   -0.8379 C.3      1 ZINC000001533058   -0.0100
22     C22   -11.3479   -1.6243    0.2889 C.3      1 ZINC000001533058   -0.1400
23     C23   -12.1512   -2.8681   -0.1558 C.3      1 ZINC000001533058   -0.1400
24     C24   -11.2131   -3.6339   -1.1086 C.3      1 ZINC000001533058   -0.0100
25     C25    -5.4939   -1.3088   -2.3120 C.ar     1 ZINC000001533058   -0.2000
26     C26    -4.2171   -0.7984   -2.2154 C.ar     1 ZINC000001533058   -0.0600
27     C27    -2.3467   -0.3325    1.0177 C.ar     1 ZINC000001533058   -0.0500
28     C28    -3.4335    0.5474    0.9796 C.ar     1 ZINC000001533058   -0.1000
29     C29    -4.2819    0.6364    2.0628 C.ar     1 ZINC000001533058   -0.1200
30     C30    -4.0603   -0.1415    3.1859 C.ar     1 ZINC000001533058   -0.1200
31     C31    -2.9872   -1.0144    3.2315 C.ar     1 ZINC000001533058   -0.1200
32     C32    -2.1332   -1.1198    2.1542 C.ar     1 ZINC000001533058   -0.1100
33     H33     1.8837   -0.9265    0.5345 H        1 ZINC000001533058    0.0600
34     H34     0.5168   -1.4090    1.5674 H        1 ZINC000001533058    0.0600
35     H35     0.6617   -2.0651   -0.0808 H        1 ZINC000001533058    0.0600
36     H36     0.0735    0.8246    0.6976 H        1 ZINC000001533058    0.0800
37     H37     0.3922    0.2824   -0.9675 H        1 ZINC000001533058    0.0800
38     H38    -0.8980    1.2716   -2.5756 H        1 ZINC000001533058    0.1300
39     H39     0.5556    1.3089   -4.5592 H        1 ZINC000001533058    0.1300
40     H40     0.5034   -2.9560   -4.6999 H        1 ZINC000001533058    0.1300
41     H41    -0.9446   -3.0142   -2.7127 H        1 ZINC000001533058    0.1300
42     H42    -2.8882   -3.0979   -0.1004 H        1 ZINC000001533058    0.1300
43     H43    -5.1718   -3.9918   -0.2729 H        1 ZINC000001533058    0.1300
44     H44    -8.1305   -1.2256   -2.1731 H        1 ZINC000001533058    0.0800
45     H45    -7.6345   -2.2221   -3.5621 H        1 ZINC000001533058    0.1100
46     H46   -10.0478   -2.4609   -3.2267 H        1 ZINC000001533058    0.1500
47     H47    -9.2471   -3.9937   -2.8052 H        1 ZINC000001533058    0.1400
48     H48    -9.4205   -0.9307   -0.4759 H        1 ZINC000001533058    0.1300
49     H49   -10.7287   -0.9674   -1.7025 H        1 ZINC000001533058    0.1300
50     H50   -10.8622   -1.8016    1.2486 H        1 ZINC000001533058    0.1000
51     H51   -11.9920   -0.7463    0.3378 H        1 ZINC000001533058    0.1200
52     H52   -12.3996   -3.4863    0.7069 H        1 ZINC000001533058    0.1100
53     H53   -13.0582   -2.5654   -0.6791 H        1 ZINC000001533058    0.1000
54     H54   -11.6587   -3.6913   -2.1017 H        1 ZINC000001533058    0.1300
55     H55   -11.0296   -4.6366   -0.7225 H        1 ZINC000001533058    0.1300
56     H56    -6.2277   -0.8126   -2.9299 H        1 ZINC000001533058    0.1300
57     H57    -3.9492    0.0948   -2.7601 H        1 ZINC000001533058    0.1300
58     H58    -3.6074    1.1556    0.1042 H        1 ZINC000001533058    0.1200
59     H59    -5.1215    1.3152    2.0350 H        1 ZINC000001533058    0.1200
60     H60    -4.7281   -0.0666    4.0314 H        1 ZINC000001533058    0.1200
61     H61    -2.8210   -1.6180    4.1115 H        1 ZINC000001533058    0.1200
62     H62    -1.2963   -1.8014    2.1913 H        1 ZINC000001533058    0.1300
@<TRIPOS>BOND
1     1     2     1
2     1     33    1
3     1     34    1
4     1     35    1
5     2     3     1
6     2     36    1
7     2     37    1
8     3     4     2
9     3     27    1
10    4     5     1
11    4     12    1
12    5     11    ar
13    5     6     ar
14    6     7     ar
15    6     38    1
16    7     8     ar
17    7     39    1
18    8     9     1
19    8     10    ar
20    10    11    ar
21    10    40    1
22    11    41    1
23    12    26    ar
24    12    13    ar
25    13    14    ar
26    13    42    1
27    14    15    ar
28    14    43    1
29    15    16    1
30    15    25    ar
31    16    17    1
32    17    18    1
33    17    44    1
34    17    45    1
35    18    19    1
36    18    46    1
37    18    47    1
38    19    20    1
39    19    24    1
40    19    21    1
41    21    22    1
42    21    48    1
43    21    49    1
44    22    23    1
45    22    50    1
46    22    51    1
47    23    24    1
48    23    52    1
49    23    53    1
50    24    54    1
51    24    55    1
52    25    26    ar
53    25    56    1
54    26    57    1
55    27    32    ar
56    27    28    ar
57    28    29    ar
58    28    58    1
59    29    30    ar
60    29    59    1
61    30    31    ar
62    30    60    1
63    31    32    ar
64    31    61    1
65    32    62    1
@<TRIPOS>SUBSTRUCTURE
1   ZINC000001533058 1     RESIDUE    1   A     ZIN   1
