@<TRIPOS>MOLECULE
ZINC000013671573
58    60    1     0     0
SMALL
USER_CHARGES
@<TRIPOS>ATOM
1      C1     -0.0179    1.4678    0.0101 C.3      1 ZINC000013671573   -0.0400
2      C2      0.0021   -0.0041    0.0020 C.1      1 ZINC000013671573   -0.2000
3      C3      0.0180   -1.1779   -0.0044 C.1      1 ZINC000013671573   -0.1800
4      C4      0.0380   -2.6498   -0.0125 C.3      1 ZINC000013671573    0.0000
5      C5     -1.3974   -3.1794   -0.0017 C.3      1 ZINC000013671573   -0.1100
6      H6     -1.9503   -2.7476   -0.8359 H        1 ZINC000013671573    0.0800
7      C7     -2.0744   -2.7910    1.3143 C.3      1 ZINC000013671573   -0.1500
8      C8     -1.3798   -4.7034   -0.1358 C.3      1 ZINC000013671573    0.1400
9      H9     -0.8269   -5.1351    0.6985 H        1 ZINC000013671573    0.1100
10     O10    -0.7475   -5.0661   -1.3649 O.3      1 ZINC000013671573   -0.5600
11     C11    -2.7936   -5.2250   -0.1251 C.2      1 ZINC000013671573   -0.1900
12     C12    -3.2211   -5.9786   -1.1076 C.2      1 ZINC000013671573   -0.1300
13     C13    -4.6350   -6.5002   -1.0969 C.3      1 ZINC000013671573   -0.0400
14     H14    -5.1587   -6.1442   -0.2097 H        1 ZINC000013671573    0.0900
15     C15    -5.3746   -6.0472   -2.3641 C.3      1 ZINC000013671573    0.1100
16     H16    -4.6556   -5.7360   -3.1220 H        1 ZINC000013671573    0.0600
17     O17    -6.2528   -4.9636   -2.0534 O.3      1 ZINC000013671573   -0.5600
18     C18    -6.1821   -7.2494   -2.8726 C.3      1 ZINC000013671573   -0.1600
19     C19    -5.9179   -8.4182   -1.9155 C.3      1 ZINC000013671573    0.0800
20     H20    -5.8231   -9.3693   -2.4395 H        1 ZINC000013671573    0.1000
21     O21    -6.9261   -8.4543   -0.8939 O.3      1 ZINC000013671573   -0.2900
22     C22    -6.3471   -8.7860    0.2930 C.ar     1 ZINC000013671573    0.1100
23     C23    -6.9208   -9.2940    1.4555 C.ar     1 ZINC000013671573   -0.0800
24     C24    -8.4031   -9.5610    1.5066 C.3      1 ZINC000013671573   -0.0800
25     C25    -8.6914  -10.9491    0.9314 C.3      1 ZINC000013671573   -0.0800
26     C26   -10.1964  -11.2202    0.9834 C.3      1 ZINC000013671573   -0.1800
27     C27   -10.4804  -12.5874    0.4168 C.2      1 ZINC000013671573    0.4900
28     O28    -9.5641  -13.2808    0.0093 O.co2    1 ZINC000013671573   -0.7000
29     O29   -11.6265  -13.0002    0.3660 O.co2    1 ZINC000013671573   -0.7100
30     C30    -6.1368   -9.5544    2.5607 C.ar     1 ZINC000013671573   -0.0800
31     C31    -4.7760   -9.3138    2.5241 C.ar     1 ZINC000013671573   -0.1500
32     C32    -4.1974   -8.8127    1.3710 C.ar     1 ZINC000013671573   -0.0800
33     C33    -4.9775   -8.5556    0.2658 C.ar     1 ZINC000013671573   -0.1700
34     C34    -4.6316   -8.0397   -1.1277 C.3      1 ZINC000013671573   -0.0600
35     H35    -3.7190   -8.4744   -1.5356 H        1 ZINC000013671573    0.1100
36     H36     1.0047    1.8451    0.0024 H        1 ZINC000013671573    0.0800
37     H37    -0.5451    1.8289   -0.8729 H        1 ZINC000013671573    0.0800
38     H38    -0.5281    1.8193    0.9069 H        1 ZINC000013671573    0.0800
39     H39     0.5481   -3.0013   -0.9093 H        1 ZINC000013671573    0.0900
40     H40     0.5651   -3.0109    0.8705 H        1 ZINC000013671573    0.0900
41     H41    -2.0870   -1.7052    1.4098 H        1 ZINC000013671573    0.0600
42     H42    -3.0970   -3.1683    1.3220 H        1 ZINC000013671573    0.0600
43     H43    -1.5215   -3.2227    2.1486 H        1 ZINC000013671573    0.0600
44     H44    -1.1870   -4.7155   -2.1517 H        1 ZINC000013671573    0.3700
45     H45    -3.4543   -4.9775    0.6926 H        1 ZINC000013671573    0.1200
46     H46    -2.5604   -6.2261   -1.9253 H        1 ZINC000013671573    0.1200
47     H47    -6.7505   -4.6306   -2.8126 H        1 ZINC000013671573    0.3800
48     H48    -7.2448   -7.0068   -2.8762 H        1 ZINC000013671573    0.0900
49     H49    -5.8577   -7.5143   -3.8789 H        1 ZINC000013671573    0.0900
50     H50    -8.7445   -9.5182    2.5409 H        1 ZINC000013671573    0.0700
51     H51    -8.9284   -8.8080    0.9191 H        1 ZINC000013671573    0.0700
52     H52    -8.3500  -10.9919   -0.1028 H        1 ZINC000013671573    0.0600
53     H53    -8.1662  -11.7021    1.5189 H        1 ZINC000013671573    0.0600
54     H54   -10.5378  -11.1773    2.0176 H        1 ZINC000013671573    0.0600
55     H55   -10.7216  -10.4671    0.3959 H        1 ZINC000013671573    0.0600
56     H56    -6.5888   -9.9479    3.4592 H        1 ZINC000013671573    0.1300
57     H57    -4.1664   -9.5165    3.3922 H        1 ZINC000013671573    0.1200
58     H58    -3.1347   -8.6234    1.3380 H        1 ZINC000013671573    0.1200
@<TRIPOS>BOND
1     1     2     1
2     1     36    1
3     1     37    1
4     1     38    1
5     2     3     3
6     3     4     1
7     4     5     1
8     4     39    1
9     4     40    1
10    5     6     1
11    5     7     1
12    5     8     1
13    7     41    1
14    7     42    1
15    7     43    1
16    8     9     1
17    8     10    1
18    8     11    1
19    10    44    1
20    11    12    2
21    11    45    1
22    12    13    1
23    12    46    1
24    13    14    1
25    13    34    1
26    13    15    1
27    15    16    1
28    15    17    1
29    15    18    1
30    17    47    1
31    18    19    1
32    18    48    1
33    18    49    1
34    19    20    1
35    19    34    1
36    19    21    1
37    21    22    1
38    22    33    ar
39    22    23    ar
40    23    24    1
41    23    30    ar
42    24    25    1
43    24    50    1
44    24    51    1
45    25    26    1
46    25    52    1
47    25    53    1
48    26    27    1
49    26    54    1
50    26    55    1
51    27    28    ar
52    27    29    ar
53    30    31    ar
54    30    56    1
55    31    32    ar
56    31    57    1
57    32    33    ar
58    32    58    1
59    33    34    1
60    34    35    1
@<TRIPOS>SUBSTRUCTURE
1   ZINC000013671573 1     RESIDUE    1   A     ZIN   1
