@<TRIPOS>MOLECULE
ZINC000000006737
  23   24    0    0    0
SMALL
USER_CHARGES
NO_NAME
@<TRIPOS>ATOM
    1 C1       -0.0184     1.5028     0.0103 C.3    1 <0>      -0.1400
    2 C2        0.0021    -0.0041     0.0020 C.ar   1 <0>      -0.0100
    3 C3        0.0057    -0.6878    -1.2031 C.ar   1 <0>      -0.0200
    4 Cl4      -0.0138     0.1941    -2.6983 Cl     1 <0>      -0.0100
    5 C5        0.0254    -2.0687    -1.2188 C.ar   1 <0>      -0.0700
    6 C6        0.0410    -2.7777    -0.0231 C.ar   1 <0>       0.1400
    7 N7        0.0608    -4.1694    -0.0470 N.am   1 <0>      -0.6300
    8 C8        0.0756    -4.8654     1.1078 C.2    1 <0>       0.5100
    9 O9        0.0929    -6.0798     1.0919 O.2    1 <0>      -0.4400
   10 C10       0.0712    -4.1291     2.4048 C.2    1 <0>       0.5100
   11 O11       0.0847    -4.7378     3.4559 O.2    1 <0>      -0.4400
   12 N12       0.0523    -2.7808     2.3988 N.am   1 <0>      -0.6400
   13 C13       0.0373    -2.0882     1.1910 C.ar   1 <0>       0.1800
   14 C14       0.0228    -0.6980     1.1947 C.ar   1 <0>      -0.0300
   15 N15       0.0239     0.0383     2.4788 N.pl3  1 <0>       0.0100
   16 O16       1.0791     0.3522     2.9998 O.2    1 <0>      -0.1100
   17 O17      -1.0303     0.3302     3.0143 O.2    1 <0>      -0.1200
   18 H18       1.0042     1.8801     0.0026 H      1 <0>       0.1000
   19 H19      -0.5455     1.8639    -0.8728 H      1 <0>       0.1000
   20 H20      -0.5286     1.8543     0.9071 H      1 <0>       0.0800
   21 H21       0.0282    -2.5979    -2.1602 H      1 <0>       0.1700
   22 H22       0.0636    -4.6392    -0.8956 H      1 <0>       0.4300
   23 H23       0.0490    -2.2927     3.2371 H      1 <0>       0.4200
@<TRIPOS>BOND
   1    1    2 1
   2    1   18 1
   3    1   19 1
   4    1   20 1
   5    2   14 ar
   6    2    3 ar
   7    3    4 1
   8    3    5 ar
   9    5    6 ar
  10    5   21 1
  11    6   13 ar
  12    6    7 1
  13    7    8 am
  14    7   22 1
  15    8    9 2
  16    8   10 1
  17   10   11 2
  18   10   12 am
  19   12   13 1
  20   12   23 1
  21   13   14 ar
  22   14   15 1
  23   15   16 2
  24   15   17 2
