@<TRIPOS>MOLECULE
ZINC000004426028
91    93    1     0     0
SMALL
USER_CHARGES
@<TRIPOS>ATOM
1      C1     -0.9873    0.8022    3.6747 C.3      1 ZINC000004426028   -0.1600
2      C2     -0.5921   -0.5394    3.0546 C.3      1 ZINC000004426028    0.0800
3      O3      0.0884   -1.3503    4.0485 O.3      1 ZINC000004426028   -0.3700
4      C4      0.5047   -2.5706    3.6609 C.2      1 ZINC000004426028    0.6500
5      O5      0.3050   -2.9477    2.5231 O.2      1 ZINC000004426028   -0.5700
6      N6      1.1431   -3.3739    4.5347 N.am     1 ZINC000004426028   -0.6000
7      C7      1.3862   -2.9335    5.9156 C.3      1 ZINC000004426028    0.1000
8      C8      0.7957   -3.9756    6.8735 C.3      1 ZINC000004426028    0.1000
9      N9      1.2607   -5.3078    6.4627 N.am     1 ZINC000004426028   -0.6100
10     C10     1.8983   -6.1114    7.3369 C.2      1 ZINC000004426028    0.5100
11     O11     2.1102   -5.7296    8.4683 O.2      1 ZINC000004426028   -0.5100
12     C12     2.3479   -7.4845    6.9084 C.3      1 ZINC000004426028    0.1400
13     H13     2.8811   -7.4129    5.9604 H        1 ZINC000004426028    0.1200
14     C14     1.1272   -8.3913    6.7396 C.3      1 ZINC000004426028   -0.1000
15     C15     1.5602   -9.7145    6.1629 C.ar     1 ZINC000004426028   -0.0700
16     C16     1.5988   -9.8902    4.7914 C.ar     1 ZINC000004426028   -0.0400
17     C17     1.9948  -11.1023    4.2541 C.ar     1 ZINC000004426028   -0.1000
18     C18     2.3540  -12.1438    5.0844 C.ar     1 ZINC000004426028   -0.0500
19     C19     2.3176  -11.9728    6.4688 C.ar     1 ZINC000004426028   -0.1400
20     C20     2.7015  -13.0857    7.3652 C.cat    1 ZINC000004426028    0.6000
21     N21     3.0826  -14.2534    6.8512 N.pl3    1 ZINC000004426028   -0.7600
22     N22     2.6658  -12.9195    8.6857 N.pl3    1 ZINC000004426028   -0.7600
23     H23     2.9175  -13.6491    9.2734 H        1 ZINC000004426028    0.4300
24     H24     2.3882  -12.0689    9.0602 H        1 ZINC000004426028    0.4400
25     C25     1.9228  -10.7466    7.0041 C.ar     1 ZINC000004426028   -0.0500
26     N26     3.2371   -8.0474    7.9275 N.am     1 ZINC000004426028   -1.1000
27     S27     4.7181   -8.6480    7.4938 S.o2     1 ZINC000004426028    2.6800
28     O28     5.3626   -9.0358    8.6994 O.2      1 ZINC000004426028   -0.9500
29     O29     4.4879   -9.5418    6.4134 O.2      1 ZINC000004426028   -0.9400
30     C30     5.6537   -7.3063    6.8388 C.ar     1 ZINC000004426028   -0.6900
31     C31     5.6776   -7.0810    5.4752 C.ar     1 ZINC000004426028    0.0300
32     C32     4.9035   -7.9829    4.5487 C.3      1 ZINC000004426028   -0.0800
33     C33     4.4541   -7.1883    3.3210 C.3      1 ZINC000004426028   -0.1600
34     C34     5.7947   -9.1450    4.1059 C.3      1 ZINC000004426028   -0.1300
35     C35     6.4112   -6.0280    4.9614 C.ar     1 ZINC000004426028   -0.1500
36     C36     7.1213   -5.2006    5.8111 C.ar     1 ZINC000004426028    0.0000
37     C37     7.9214   -4.0531    5.2510 C.3      1 ZINC000004426028   -0.0700
38     C38     7.4027   -2.7370    5.8340 C.3      1 ZINC000004426028   -0.1500
39     C39     9.3952   -4.2296    5.6223 C.3      1 ZINC000004426028   -0.1500
40     C40     7.0970   -5.4257    7.1748 C.ar     1 ZINC000004426028   -0.1400
41     C41     6.3592   -6.4755    7.6891 C.ar     1 ZINC000004426028    0.0400
42     C42     6.3327   -6.7208    9.1758 C.3      1 ZINC000004426028   -0.0900
43     C43     7.6521   -7.3620    9.6104 C.3      1 ZINC000004426028   -0.1300
44     C44     6.1461   -5.3909    9.9089 C.3      1 ZINC000004426028   -0.1500
45     C45     1.0177   -5.7482    5.0819 C.3      1 ZINC000004426028    0.0800
46     C46     1.6032   -4.7083    4.1256 C.3      1 ZINC000004426028    0.1100
47     H47    -0.0924    1.3220    4.0169 H        1 ZINC000004426028    0.0700
48     H48    -1.4981    1.4109    2.9287 H        1 ZINC000004426028    0.0900
49     H49    -1.6530    0.6296    4.5204 H        1 ZINC000004426028    0.0700
50     H50    -1.4870   -1.0592    2.7124 H        1 ZINC000004426028    0.0700
51     H51     0.0736   -0.3668    2.2089 H        1 ZINC000004426028    0.0700
52     H52     2.4588   -2.8446    6.0878 H        1 ZINC000004426028    0.0800
53     H53     0.9054   -1.9695    6.0821 H        1 ZINC000004426028    0.1100
54     H54     1.1299   -3.7688    7.8902 H        1 ZINC000004426028    0.1100
55     H55    -0.2928   -3.9382    6.8289 H        1 ZINC000004426028    0.0800
56     H56     0.6583   -8.5539    7.7101 H        1 ZINC000004426028    0.1000
57     H57     0.4131   -7.9176    6.0659 H        1 ZINC000004426028    0.1100
58     H58     1.3182   -9.0780    4.1371 H        1 ZINC000004426028    0.1400
59     H59     2.0225  -11.2334    3.1824 H        1 ZINC000004426028    0.1500
60     H60     2.6622  -13.0896    4.6639 H        1 ZINC000004426028    0.1400
61     H61     3.1086  -14.3744    5.8891 H        1 ZINC000004426028    0.4400
62     H62     3.3342  -14.9829    7.4388 H        1 ZINC000004426028    0.4300
63     H63     1.8930  -10.6079    8.0748 H        1 ZINC000004426028    0.1300
64     H64     2.9584   -8.0682    8.8564 H        1 ZINC000004426028    0.4300
65     H65     4.0289   -8.3736    5.0689 H        1 ZINC000004426028    0.1000
66     H66     5.3281   -6.8840    2.7452 H        1 ZINC000004426028    0.0600
67     H67     3.8095   -7.8113    2.7009 H        1 ZINC000004426028    0.0700
68     H68     3.9045   -6.3035    3.6421 H        1 ZINC000004426028    0.0600
69     H69     6.1149   -9.7112    4.9806 H        1 ZINC000004426028    0.0600
70     H70     5.2349   -9.7974    3.4358 H        1 ZINC000004426028    0.0600
71     H71     6.6694   -8.7544    3.5858 H        1 ZINC000004426028    0.0500
72     H72     6.4299   -5.8520    3.8960 H        1 ZINC000004426028    0.1300
73     H73     7.8199   -4.0348    4.1658 H        1 ZINC000004426028    0.0800
74     H74     7.5043   -2.7553    6.9191 H        1 ZINC000004426028    0.0600
75     H75     7.9815   -1.9070    5.4288 H        1 ZINC000004426028    0.0700
76     H76     6.3528   -2.6113    5.5694 H        1 ZINC000004426028    0.0600
77     H77     9.7647   -5.1672    5.2070 H        1 ZINC000004426028    0.0600
78     H78     9.9739   -3.3996    5.2171 H        1 ZINC000004426028    0.0700
79     H79     9.4967   -4.2479    6.7074 H        1 ZINC000004426028    0.0600
80     H80     7.6515   -4.7790    7.8388 H        1 ZINC000004426028    0.1300
81     H81     5.5065   -7.3888    9.4191 H        1 ZINC000004426028    0.1000
82     H82     7.6329   -7.5395   10.6857 H        1 ZINC000004426028    0.0700
83     H83     7.7850   -8.3095    9.0882 H        1 ZINC000004426028    0.0600
84     H84     8.4783   -6.6940    9.3671 H        1 ZINC000004426028    0.0500
85     H85     5.2062   -4.9341    9.5992 H        1 ZINC000004426028    0.0600
86     H86     6.1270   -5.5683   10.9842 H        1 ZINC000004426028    0.0700
87     H87     6.9723   -4.7228    9.6655 H        1 ZINC000004426028    0.0600
88     H88     1.4985   -6.7122    4.9153 H        1 ZINC000004426028    0.1000
89     H89    -0.0550   -5.8371    4.9097 H        1 ZINC000004426028    0.0900
90     H90     1.2683   -4.9163    3.1093 H        1 ZINC000004426028    0.1200
91     H91     2.6918   -4.7434    4.1690 H        1 ZINC000004426028    0.0800
@<TRIPOS>BOND
1     1     2     1
2     1     47    1
3     1     48    1
4     1     49    1
5     2     3     1
6     2     50    1
7     2     51    1
8     3     4     1
9     4     5     2
10    4     6     am
11    6     46    1
12    6     7     1
13    7     8     1
14    7     52    1
15    7     53    1
16    8     9     1
17    8     54    1
18    8     55    1
19    9     10    am
20    9     45    1
21    10    11    2
22    10    12    1
23    12    13    1
24    12    14    1
25    12    26    1
26    14    15    1
27    14    56    1
28    14    57    1
29    15    25    ar
30    15    16    ar
31    16    17    ar
32    16    58    1
33    17    18    ar
34    17    59    1
35    18    19    ar
36    18    60    1
37    19    20    1
38    19    25    ar
39    20    21    ar
40    20    22    ar
41    21    61    1
42    21    62    1
43    22    23    1
44    22    24    1
45    25    63    1
46    26    27    am
47    26    64    1
48    27    28    2
49    27    29    2
50    27    30    1
51    30    41    ar
52    30    31    ar
53    31    32    1
54    31    35    ar
55    32    33    1
56    32    34    1
57    32    65    1
58    33    66    1
59    33    67    1
60    33    68    1
61    34    69    1
62    34    70    1
63    34    71    1
64    35    36    ar
65    35    72    1
66    36    37    1
67    36    40    ar
68    37    38    1
69    37    39    1
70    37    73    1
71    38    74    1
72    38    75    1
73    38    76    1
74    39    77    1
75    39    78    1
76    39    79    1
77    40    41    ar
78    40    80    1
79    41    42    1
80    42    43    1
81    42    44    1
82    42    81    1
83    43    82    1
84    43    83    1
85    43    84    1
86    44    85    1
87    44    86    1
88    44    87    1
89    45    46    1
90    45    88    1
91    45    89    1
92    46    90    1
93    46    91    1
@<TRIPOS>SUBSTRUCTURE
1   ZINC000004426028 1     RESIDUE    1   A     ZIN   1
