@<TRIPOS>MOLECULE
ZINC000034962220
  53   56    0    0    0
SMALL
USER_CHARGES
NO_NAME
@<TRIPOS>ATOM
    1 O1       -0.0399     0.2209     0.7129 O.2    1 <0>      -0.4900
    2 C2       -0.0144     1.2113     0.0087 C.2    1 <0>       0.5700
    3 C3        1.1857     2.0746    -0.0096 C.ar   1 <0>      -0.1100
    4 C4        1.0505     3.4612    -0.0949 C.ar   1 <0>      -0.0900
    5 C5        2.1744     4.2610    -0.1116 C.ar   1 <0>      -0.0900
    6 C6        3.4336     3.6915    -0.0446 C.ar   1 <0>      -0.1300
    7 C7        4.6569     4.5714    -0.0633 C.3    1 <0>       0.0400
    8 N8        5.0173     4.9383     1.3127 N.4    1 <0>      -0.3800
    9 H9        4.2228     5.3635     1.7667 H      1 <0>       0.4200
   10 C10       6.1358     5.8909     1.2889 C.3    1 <0>      -0.0400
   11 C11       6.5093     6.2717     2.7236 C.3    1 <0>       0.0300
   12 O12       6.8429     5.0880     3.4540 O.3    1 <0>      -0.3500
   13 C13       5.7922     4.1180     3.4856 C.3    1 <0>       0.0400
   14 C14       5.4172     3.7332     2.0523 C.3    1 <0>      -0.0500
   15 C15       3.5746     2.3177     0.0401 C.ar   1 <0>      -0.0900
   16 C16       2.4587     1.5069     0.0640 C.ar   1 <0>      -0.0600
   17 N17      -1.0780     1.5195    -0.7596 N.am   1 <0>      -0.6300
   18 C18      -1.0212     2.6341    -1.7180 C.3    1 <0>       0.0700
   19 C19      -1.5060     2.1282    -3.0806 C.3    1 <0>      -0.0200
   20 N20      -2.8358     1.5235    -2.9324 N.4    1 <0>      -0.3600
   21 H21      -3.4638     2.1934    -2.5140 H      1 <0>       0.4200
   22 C22      -3.3458     1.1362    -4.2544 C.3    1 <0>      -0.0900
   23 C23      -4.7474     1.6144    -4.6388 C.3    1 <0>      -0.1500
   24 C24      -3.5174     2.2424    -5.2973 C.3    1 <0>      -0.1500
   25 C25      -2.7515     0.3335    -2.0763 C.3    1 <0>      -0.0100
   26 C26      -2.3266     0.7470    -0.6679 C.3    1 <0>       0.0900
   27 H27       0.0682     3.9069    -0.1480 H      1 <0>       0.1400
   28 H28       2.0712     5.3340    -0.1776 H      1 <0>       0.1400
   29 H29       5.4848     4.0329    -0.5245 H      1 <0>       0.1400
   30 H30       4.4463     5.4742    -0.6367 H      1 <0>       0.1400
   31 H31       6.9945     5.4313     0.7994 H      1 <0>       0.1400
   32 H32       5.8401     6.7853     0.7405 H      1 <0>       0.1400
   33 H33       7.3665     6.9448     2.7102 H      1 <0>       0.1500
   34 H34       5.6638     6.7675     3.2005 H      1 <0>       0.0800
   35 H35       6.1304     3.2324     4.0236 H      1 <0>       0.1400
   36 H36       4.9221     4.5401     3.9886 H      1 <0>       0.0800
   37 H37       4.5880     3.0259     2.0709 H      1 <0>       0.1400
   38 H38       6.2760     3.2744     1.5625 H      1 <0>       0.1400
   39 H39       4.5603     1.8794     0.0918 H      1 <0>       0.1500
   40 H40       2.5701     0.4347     0.1301 H      1 <0>       0.1500
   41 H41      -1.6667     3.4436    -1.3770 H      1 <0>       0.1000
   42 H42       0.0049     2.9915    -1.8038 H      1 <0>       0.1300
   43 H43      -1.5621     2.9630    -3.7793 H      1 <0>       0.1400
   44 H44      -0.8079     1.3823    -3.4607 H      1 <0>       0.1400
   45 H45      -3.0338     0.1539    -4.6093 H      1 <0>       0.1800
   46 H46      -5.3579     0.9466    -5.2467 H      1 <0>       0.1400
   47 H47      -5.2911     2.2164    -3.9108 H      1 <0>       0.1200
   48 H48      -3.2519     3.2577    -5.0024 H      1 <0>       0.1200
   49 H49      -3.3187     1.9879    -6.3384 H      1 <0>       0.1400
   50 H50      -3.7254    -0.1542    -2.0349 H      1 <0>       0.1500
   51 H51      -2.0157    -0.3581    -2.4868 H      1 <0>       0.1400
   52 H52      -2.1651    -0.1420    -0.0582 H      1 <0>       0.1400
   53 H53      -3.1023     1.3670    -0.2185 H      1 <0>       0.1000
@<TRIPOS>BOND
   1    1    2 2
   2    2    3 1
   3    2   17 am
   4    3   16 ar
   5    3    4 ar
   6    4    5 ar
   7    4   27 1
   8    5    6 ar
   9    5   28 1
  10    6    7 1
  11    6   15 ar
  12    7    8 1
  13    7   29 1
  14    7   30 1
  15    8    9 1
  16    8   14 1
  17    8   10 1
  18   10   11 1
  19   10   31 1
  20   10   32 1
  21   11   12 1
  22   11   33 1
  23   11   34 1
  24   12   13 1
  25   13   14 1
  26   13   35 1
  27   13   36 1
  28   14   37 1
  29   14   38 1
  30   15   16 ar
  31   15   39 1
  32   16   40 1
  33   17   26 1
  34   17   18 1
  35   18   19 1
  36   18   41 1
  37   18   42 1
  38   19   20 1
  39   19   43 1
  40   19   44 1
  41   20   21 1
  42   20   22 1
  43   20   25 1
  44   22   24 1
  45   22   23 1
  46   22   45 1
  47   23   24 1
  48   23   46 1
  49   23   47 1
  50   24   48 1
  51   24   49 1
  52   25   26 1
  53   25   50 1
  54   25   51 1
  55   26   52 1
  56   26   53 1
