@<TRIPOS>MOLECULE
ZINC000003826691
60    64    1     0     0
SMALL
USER_CHARGES
@<TRIPOS>ATOM
1      C1     -0.0187    1.5258    0.0104 C.3      1 ZINC000003826691   -0.1700
2      C2      0.0021   -0.0041    0.0020 C.3      1 ZINC000003826691   -0.1400
3      C3      0.7182   -0.4975   -1.2568 C.3      1 ZINC000003826691    0.1300
4      O4      0.0304   -0.0217   -2.4155 O.3      1 ZINC000003826691   -0.5200
5      C5      2.1394    0.0165   -1.2640 C.2      1 ZINC000003826691    0.4700
6      O6      2.4669    0.9660   -1.9357 O.2      1 ZINC000003826691   -0.4200
7      O7      3.0266   -0.6390   -0.4810 O.3      1 ZINC000003826691   -0.3600
8      C8      3.2108   -2.0400   -0.8132 C.3      1 ZINC000003826691    0.1400
9      C9      1.8828   -2.7086   -1.0509 C.2      1 ZINC000003826691   -0.2200
10     C10     0.7395   -2.0053   -1.2666 C.2      1 ZINC000003826691    0.0400
11     C11    -0.4589   -2.6931   -1.5008 C.2      1 ZINC000003826691   -0.1300
12     C12    -0.4795   -4.0713   -1.5034 C.2      1 ZINC000003826691    0.1700
13     C13    -1.6010   -5.0147   -1.7236 C.ar     1 ZINC000003826691    0.1800
14     C14    -1.0991   -6.3234   -1.6225 C.ar     1 ZINC000003826691   -0.1400
15     C15     0.3745   -6.2042   -1.3303 C.3      1 ZINC000003826691    0.1500
16     N16     0.6737   -4.7671   -1.2751 N.am     1 ZINC000003826691   -0.5000
17     C17     1.8321   -4.1181   -1.0505 C.2      1 ZINC000003826691    0.5500
18     O18     2.8508   -4.7576   -0.8438 O.2      1 ZINC000003826691   -0.5300
19     C19    -1.9228   -7.3931   -1.7851 C.ar     1 ZINC000003826691   -0.0100
20     C20    -1.3946   -8.8006   -1.6790 C.3      1 ZINC000003826691   -0.1100
21     C21    -1.4967   -9.2757   -0.2283 C.3      1 ZINC000003826691   -0.0100
22     N22    -0.9818  -10.6476   -0.1249 N.4      1 ZINC000003826691   -0.5100
23     H23    -1.5261  -11.2566   -0.7173 H        1 ZINC000003826691    0.4300
24     H24    -0.0166  -10.6676   -0.4182 H        1 ZINC000003826691    0.4300
25     C25    -1.0799  -11.1037    1.2681 C.3      1 ZINC000003826691    0.0200
26     C26    -2.5526  -11.1925    1.6732 C.3      1 ZINC000003826691   -0.1900
27     C27    -0.4306  -12.4829    1.4000 C.3      1 ZINC000003826691   -0.1800
28     C28    -3.2841   -7.1488   -2.0550 C.ar     1 ZINC000003826691   -0.0800
29     C29    -4.1923   -8.2034   -2.2346 C.ar     1 ZINC000003826691   -0.1200
30     C30    -5.5010   -7.9285   -2.4925 C.ar     1 ZINC000003826691   -0.0800
31     C31    -5.9510   -6.6123   -2.5813 C.ar     1 ZINC000003826691   -0.0900
32     C32    -5.0987   -5.5654   -2.4135 C.ar     1 ZINC000003826691   -0.0700
33     C33    -3.7380   -5.8078   -2.1451 C.ar     1 ZINC000003826691    0.1400
34     N34    -2.8825   -4.7991   -1.9767 N.ar     1 ZINC000003826691   -0.4200
35     H35     1.0039    1.9031    0.0027 H        1 ZINC000003826691    0.0600
36     H36    -0.5459    1.8868   -0.8726 H        1 ZINC000003826691    0.0700
37     H37    -0.5289    1.8773    0.9072 H        1 ZINC000003826691    0.0800
38     H38     0.5293   -0.3651    0.8851 H        1 ZINC000003826691    0.0900
39     H39    -1.0205   -0.3814    0.0098 H        1 ZINC000003826691    0.1000
40     H40    -0.0191    0.9422   -2.4754 H        1 ZINC000003826691    0.4000
41     H41     3.8189   -2.1185   -1.7144 H        1 ZINC000003826691    0.1000
42     H42     3.7224   -2.5399    0.0093 H        1 ZINC000003826691    0.1400
43     H43    -1.3699   -2.1412   -1.6796 H        1 ZINC000003826691    0.1700
44     H44     0.6045   -6.6709   -0.3725 H        1 ZINC000003826691    0.1100
45     H45     0.9525   -6.6761   -2.1249 H        1 ZINC000003826691    0.1200
46     H46    -1.9825   -9.4585   -2.3190 H        1 ZINC000003826691    0.1100
47     H47    -0.3519   -8.8222   -1.9959 H        1 ZINC000003826691    0.1100
48     H48    -0.9088   -8.6178    0.4117 H        1 ZINC000003826691    0.1400
49     H49    -2.5394   -9.2540    0.0886 H        1 ZINC000003826691    0.1400
50     H50    -0.5660  -10.3965    1.9190 H        1 ZINC000003826691    0.1400
51     H51    -2.6253  -11.5310    2.7067 H        1 ZINC000003826691    0.1100
52     H52    -3.0151  -10.2100    1.5792 H        1 ZINC000003826691    0.0800
53     H53    -3.0665  -11.8998    1.0222 H        1 ZINC000003826691    0.0800
54     H54     0.6185  -12.4196    1.1114 H        1 ZINC000003826691    0.0800
55     H55    -0.5034  -12.8213    2.4335 H        1 ZINC000003826691    0.1100
56     H56    -0.9446  -13.1901    0.7490 H        1 ZINC000003826691    0.0800
57     H57    -3.8553   -9.2274   -2.1690 H        1 ZINC000003826691    0.1300
58     H58    -6.1991   -8.7409   -2.6303 H        1 ZINC000003826691    0.1400
59     H59    -6.9937   -6.4204   -2.7872 H        1 ZINC000003826691    0.1400
60     H60    -5.4645   -4.5518   -2.4862 H        1 ZINC000003826691    0.1500
@<TRIPOS>BOND
1     1     2     1
2     1     35    1
3     1     36    1
4     1     37    1
5     2     3     1
6     2     38    1
7     2     39    1
8     3     10    1
9     3     4     1
10    3     5     1
11    4     40    1
12    5     6     2
13    5     7     1
14    7     8     1
15    8     9     1
16    8     41    1
17    8     42    1
18    9     17    1
19    9     10    2
20    10    11    1
21    11    12    2
22    11    43    1
23    12    16    1
24    12    13    1
25    13    34    ar
26    13    14    ar
27    14    15    1
28    14    19    ar
29    15    16    1
30    15    44    1
31    15    45    1
32    16    17    am
33    17    18    2
34    19    20    1
35    19    28    ar
36    20    21    1
37    20    46    1
38    20    47    1
39    21    22    1
40    21    48    1
41    21    49    1
42    22    23    1
43    22    24    1
44    22    25    1
45    25    26    1
46    25    27    1
47    25    50    1
48    26    51    1
49    26    52    1
50    26    53    1
51    27    54    1
52    27    55    1
53    27    56    1
54    28    33    ar
55    28    29    ar
56    29    30    ar
57    29    57    1
58    30    31    ar
59    30    58    1
60    31    32    ar
61    31    59    1
62    32    33    ar
63    32    60    1
64    33    34    ar
@<TRIPOS>SUBSTRUCTURE
1   ZINC000003826691 1     RESIDUE    1   A     ZIN   1
