@<TRIPOS>MOLECULE
ZINC000072318114
  28   30    0    0    0
SMALL
USER_CHARGES
NO_NAME
@<TRIPOS>ATOM
    1 N1        0.0175    -1.1399    -0.0042 N.1    1 <0>      -0.3600
    2 C2        0.0021    -0.0041     0.0020 C.1    1 <0>       0.2300
    3 C3       -0.0173     1.4278     0.0099 C.ar   1 <0>       0.0400
    4 C4       -1.2340     2.1122     0.0310 C.ar   1 <0>      -0.0800
    5 C5       -1.2469     3.4919     0.0390 C.ar   1 <0>      -0.0700
    6 C6       -0.0581     4.1984     0.0261 C.ar   1 <0>      -0.1500
    7 C7       -0.0806     5.7052     0.0350 C.3    1 <0>       0.1800
    8 H8        0.9368     6.0965     0.0353 H      1 <0>       0.1400
    9 C9       -0.8550     6.2341    -1.1912 C.3    1 <0>      -0.1200
   10 C10      -1.5437     7.4936    -0.6184 C.3    1 <0>      -0.0700
   11 C11      -1.6528     7.2177     0.8647 C.2    1 <0>       0.0400
   12 C12      -2.2786     7.6119     1.9901 C.2    1 <0>       0.0200
   13 N13      -1.8369     6.8460     2.9985 N.pl3  1 <0>      -0.4700
   14 H14      -2.1235     6.9142     3.9227 H      1 <0>       0.4700
   15 C15      -0.9612     5.9945     2.5404 C.cat  1 <0>       0.3100
   16 N16      -0.8133     6.1951     1.2111 N.pl3  1 <0>      -0.4300
   17 C17       1.1540     3.5265     0.0056 C.ar   1 <0>       0.1300
   18 F18       2.3114     4.2233    -0.0064 F      1 <0>      -0.1200
   19 C19       1.1805     2.1452     0.0023 C.ar   1 <0>      -0.1000
   20 H20      -2.1637     1.5626     0.0408 H      1 <0>       0.1500
   21 H21      -2.1880     4.0216     0.0550 H      1 <0>       0.1400
   22 H22      -0.1721     6.4973    -1.9989 H      1 <0>       0.1300
   23 H23      -1.5930     5.5066    -1.5289 H      1 <0>       0.1100
   24 H24      -0.9316     8.3775    -0.7976 H      1 <0>       0.1200
   25 H25      -2.5338     7.6192    -1.0566 H      1 <0>       0.1200
   26 H26      -3.0075     8.4051     2.0670 H      1 <0>       0.2200
   27 H27      -0.4393     5.2522     3.1259 H      1 <0>       0.2600
   28 H28       2.1250     1.6217    -0.0134 H      1 <0>       0.1600
@<TRIPOS>BOND
   1    1    2 3
   2    2    3 1
   3    3   19 ar
   4    3    4 ar
   5    4    5 ar
   6    4   20 1
   7    5    6 ar
   8    5   21 1
   9    6    7 1
  10    6   17 ar
  11    7    8 1
  12    7   16 1
  13    7    9 1
  14    9   10 1
  15    9   22 1
  16    9   23 1
  17   10   11 1
  18   10   24 1
  19   10   25 1
  20   11   16 1
  21   11   12 2
  22   12   13 1
  23   12   26 1
  24   13   14 1
  25   13   15 ar
  26   15   16 ar
  27   15   27 1
  28   17   18 1
  29   17   19 ar
  30   19   28 1
