@<TRIPOS>MOLECULE
ZINC000003830404
  49   52    0    0    0
SMALL
USER_CHARGES
NO_NAME
@<TRIPOS>ATOM
    1 N1       -0.0525     1.7501    -0.3478 N.4    1 <0>      -0.6200
    2 H2        0.0785     0.7501    -0.3769 H      1 <0>       0.4400
    3 H3        0.8449     2.2086    -0.3988 H      1 <0>       0.4400
    4 H4       -0.6220     2.0376    -1.1296 H      1 <0>       0.4500
    5 C5       -0.7208     2.1201     0.9070 C.3    1 <0>       0.0700
    6 H6       -0.8623     3.2004     0.9385 H      1 <0>       0.1700
    7 C7       -2.0611     1.4354     0.9832 C.2    1 <0>       0.5100
    8 O8       -2.2818     0.4570     0.3013 O.2    1 <0>      -0.5100
    9 N9       -3.0144     1.9103     1.8090 N.am   1 <0>      -0.6700
   10 C10      -4.3174     1.2447     1.8831 C.3    1 <0>       0.1200
   11 H11      -4.2721     0.1920     1.6037 H      1 <0>       0.1600
   12 C12      -5.4335     2.0109     1.1936 C.2    1 <0>       0.5300
   13 O13      -5.7480     2.1916     0.0361 O.2    1 <0>      -0.4400
   14 N14      -5.9343     2.4085     2.3759 N.am   1 <0>      -0.5600
   15 C15      -6.7954     3.4028     2.8714 C.2    1 <0>       0.1500
   16 C16      -7.8888     3.9164     2.0304 C.2    1 <0>       0.5300
   17 O17      -7.6835     4.8437     1.2592 O.co2  1 <0>      -0.6600
   18 O18      -9.0029     3.4159     2.1026 O.co2  1 <0>      -0.6400
   19 C19      -6.6222     3.8774     4.0977 C.2    1 <0>      -0.2000
   20 C20      -7.5609     4.9805     4.5137 C.3    1 <0>      -0.0400
   21 S21      -8.8531     4.3009     5.5903 S.3    1 <0>      -0.0300
   22 C22      -9.8374     5.7127     5.9679 C.2    1 <0>      -0.0300
   23 C23     -10.9445     5.7462     6.7559 C.2    1 <0>      -0.0300
   24 N24     -11.3654     7.0422     6.7555 N.pl3  1 <0>      -0.3900
   25 N25     -10.5615     7.7251     6.0180 N.2    1 <0>      -0.0700
   26 N26      -9.6394     6.9674     5.5396 N.2    1 <0>      -0.2600
   27 C27      -5.6161     3.4595     5.1191 C.3    1 <0>      -0.0100
   28 S28      -4.2038     2.5860     4.3773 S.3    1 <0>      -0.2400
   29 C29      -5.0616     1.4996     3.1898 C.3    1 <0>       0.1300
   30 H30      -5.5525     0.6365     3.6392 H      1 <0>       0.1500
   31 C31       0.1298     1.6907     2.0746 C.ar   1 <0>      -0.1600
   32 C32       0.7916     0.4773     2.0370 C.ar   1 <0>      -0.0900
   33 C33       1.5719     0.0814     3.1060 C.ar   1 <0>      -0.1400
   34 C34       1.6914     0.9026     4.2178 C.ar   1 <0>       0.1500
   35 O35       2.4588     0.5156     5.2705 O.3    1 <0>      -0.4900
   36 C36       1.0267     2.1198     4.2528 C.ar   1 <0>      -0.1300
   37 C37       0.2515     2.5133     3.1792 C.ar   1 <0>      -0.0600
   38 H38      -2.8379     2.6928     2.3543 H      1 <0>       0.4200
   39 H39      -7.0045     5.7470     5.0531 H      1 <0>       0.0900
   40 H40      -8.0199     5.4202     3.6281 H      1 <0>       0.1100
   41 H41     -11.3982     4.9153     7.2756 H      1 <0>       0.2000
   42 H42     -12.1375     7.3898     7.2287 H      1 <0>       0.4500
   43 H43      -5.2506     4.3454     5.6384 H      1 <0>       0.1200
   44 H44      -6.0985     2.8018     5.8421 H      1 <0>       0.1000
   45 H45       0.6982    -0.1616     1.1713 H      1 <0>       0.1300
   46 H46       2.0881    -0.8668     3.0765 H      1 <0>       0.1400
   47 H47       3.3818     0.7973     5.2090 H      1 <0>       0.4000
   48 H48       1.1179     2.7607     5.1173 H      1 <0>       0.1500
   49 H49      -0.2659     3.4609     3.2059 H      1 <0>       0.1400
@<TRIPOS>BOND
   1    1    2 1
   2    1    3 1
   3    1    4 1
   4    1    5 1
   5    5    6 1
   6    5    7 1
   7    5   31 1
   8    7    8 2
   9    7    9 am
  10    9   10 1
  11    9   38 1
  12   10   11 1
  13   10   29 1
  14   10   12 1
  15   12   13 2
  16   12   14 am
  17   14   29 1
  18   14   15 1
  19   15   16 1
  20   15   19 2
  21   16   17 ar
  22   16   18 ar
  23   19   20 1
  24   19   27 1
  25   20   21 1
  26   20   39 1
  27   20   40 1
  28   21   22 1
  29   22   26 1
  30   22   23 2
  31   23   24 1
  32   23   41 1
  33   24   25 1
  34   24   42 1
  35   25   26 2
  36   27   28 1
  37   27   43 1
  38   27   44 1
  39   28   29 1
  40   29   30 1
  41   31   37 ar
  42   31   32 ar
  43   32   33 ar
  44   32   45 1
  45   33   34 ar
  46   33   46 1
  47   34   35 1
  48   34   36 ar
  49   35   47 1
  50   36   37 ar
  51   36   48 1
  52   37   49 1
