@<TRIPOS>MOLECULE
ZINC000013541362
  58   58    0    0    0
SMALL
USER_CHARGES
NO_NAME
@<TRIPOS>ATOM
    1 C1        2.6018    -2.7924     2.1987 C.3    1 <0>      -0.1500
    2 C2        1.6058    -2.6982     1.0411 C.3    1 <0>      -0.1300
    3 C3        0.2717    -3.3162     1.4645 C.3    1 <0>      -0.1200
    4 C4       -0.7242    -3.2220     0.3069 C.3    1 <0>      -0.1200
    5 C5       -2.0583    -3.8400     0.7302 C.3    1 <0>      -0.1500
    6 C6       -3.0542    -3.7458    -0.4274 C.3    1 <0>       0.1300
    7 H7       -2.6236    -4.2079    -1.3157 H      1 <0>       0.1100
    8 O8       -3.3426    -2.3724    -0.6971 O.3    1 <0>      -0.5500
    9 C9       -4.3266    -4.4624    -0.0550 C.2    1 <0>      -0.1900
   10 C10      -4.6765    -5.5508    -0.6945 C.2    1 <0>      -0.1300
   11 C11      -3.7467    -6.1582    -1.7131 C.3    1 <0>      -0.0600
   12 H12      -2.7691    -5.6779    -1.6702 H      1 <0>       0.1000
   13 C13      -3.6117    -7.6838    -1.4823 C.3    1 <0>       0.1100
   14 H14      -4.5684    -8.1163    -1.1893 H      1 <0>       0.0700
   15 O15      -2.6109    -7.9609    -0.5006 O.3    1 <0>      -0.5600
   16 C16      -3.1782    -8.2032    -2.8757 C.3    1 <0>      -0.1900
   17 C17      -3.9856    -7.3417    -3.8686 C.3    1 <0>       0.1100
   18 H18      -4.8933    -7.8667    -4.1661 H      1 <0>       0.0600
   19 O19      -3.1913    -7.0472    -5.0194 O.3    1 <0>      -0.5500
   20 C20      -4.3454    -6.0383    -3.1298 C.3    1 <0>      -0.0700
   21 H21      -5.4283    -5.9309    -3.0679 H      1 <0>       0.0900
   22 C22      -3.7411    -4.8377    -3.8608 C.3    1 <0>      -0.0700
   23 C23      -4.4017    -4.6843    -5.2065 C.2    1 <0>      -0.1600
   24 C24      -4.9582    -3.5454    -5.5370 C.2    1 <0>      -0.1500
   25 C25      -5.6189    -3.3920    -6.8828 C.3    1 <0>      -0.0900
   26 C26      -7.0632    -2.9248    -6.6916 C.3    1 <0>      -0.0900
   27 C27      -7.7339    -2.7691    -8.0579 C.3    1 <0>      -0.1800
   28 C28      -9.1565    -2.3089    -7.8696 C.2    1 <0>       0.4900
   29 O29      -9.5934    -2.1227    -6.7467 O.co2  1 <0>      -0.7000
   30 O30      -9.8705    -2.1227    -8.8402 O.co2  1 <0>      -0.7100
   31 H31       3.5521    -2.3521     1.8971 H      1 <0>       0.0500
   32 H32       2.2089    -2.2534     3.0608 H      1 <0>       0.0500
   33 H33       2.7538    -3.8390     2.4629 H      1 <0>       0.0500
   34 H34       1.4538    -1.6517     0.7768 H      1 <0>       0.0600
   35 H35       1.9986    -3.2372     0.1790 H      1 <0>       0.0600
   36 H36       0.4237    -4.3628     1.7287 H      1 <0>       0.0600
   37 H37      -0.1211    -2.7772     2.3266 H      1 <0>       0.0600
   38 H38      -0.8762    -2.1755     0.0426 H      1 <0>       0.0700
   39 H39      -0.3314    -3.7610    -0.5552 H      1 <0>       0.0600
   40 H40      -1.9063    -4.8865     0.9945 H      1 <0>       0.0700
   41 H41      -2.4511    -3.3010     1.5923 H      1 <0>       0.0600
   42 H42      -3.7973    -1.9169     0.0246 H      1 <0>       0.3700
   43 H43      -4.9499    -4.0787     0.7391 H      1 <0>       0.1100
   44 H44      -5.6313    -6.0129    -0.4917 H      1 <0>       0.1100
   45 H45      -2.4876    -8.9028    -0.3196 H      1 <0>       0.3800
   46 H46      -2.1086    -8.0536    -3.0228 H      1 <0>       0.0900
   47 H47      -3.4359    -9.2565    -2.9873 H      1 <0>       0.0700
   48 H48      -2.9138    -7.8289    -5.5164 H      1 <0>       0.3700
   49 H49      -3.9025    -3.9348    -3.2718 H      1 <0>       0.0600
   50 H50      -2.6713    -4.9961    -3.9971 H      1 <0>       0.0700
   51 H51      -4.4164    -5.5134    -5.8985 H      1 <0>       0.1200
   52 H52      -4.9435    -2.7163    -4.8451 H      1 <0>       0.1000
   53 H53      -5.0739    -2.6555    -7.4733 H      1 <0>       0.0600
   54 H54      -5.6127    -4.3504    -7.4019 H      1 <0>       0.0600
   55 H55      -7.6082    -3.6613    -6.1012 H      1 <0>       0.0600
   56 H56      -7.0693    -1.9663    -6.1725 H      1 <0>       0.0600
   57 H57      -7.1889    -2.0326    -8.6484 H      1 <0>       0.0500
   58 H58      -7.7278    -3.7275    -8.5770 H      1 <0>       0.0500
@<TRIPOS>BOND
   1    1    2 1
   2    1   31 1
   3    1   32 1
   4    1   33 1
   5    2    3 1
   6    2   34 1
   7    2   35 1
   8    3    4 1
   9    3   36 1
  10    3   37 1
  11    4    5 1
  12    4   38 1
  13    4   39 1
  14    5    6 1
  15    5   40 1
  16    5   41 1
  17    6    7 1
  18    6    8 1
  19    6    9 1
  20    8   42 1
  21    9   10 2
  22    9   43 1
  23   10   11 1
  24   10   44 1
  25   11   12 1
  26   11   20 1
  27   11   13 1
  28   13   14 1
  29   13   15 1
  30   13   16 1
  31   15   45 1
  32   16   17 1
  33   16   46 1
  34   16   47 1
  35   17   18 1
  36   17   19 1
  37   17   20 1
  38   19   48 1
  39   20   21 1
  40   20   22 1
  41   22   23 1
  42   22   49 1
  43   22   50 1
  44   23   24 2
  45   23   51 1
  46   24   25 1
  47   24   52 1
  48   25   26 1
  49   25   53 1
  50   25   54 1
  51   26   27 1
  52   26   55 1
  53   26   56 1
  54   27   28 1
  55   27   57 1
  56   27   58 1
  57   28   29 ar
  58   28   30 ar
