@<TRIPOS>MOLECULE
ZINC000140358266
39    41    1     0     0
SMALL
USER_CHARGES
@<TRIPOS>ATOM
1      C1     -0.0173    1.4248    0.0099 C.3      1 ZINC000140358266    0.0300
2      O2      0.0021   -0.0041    0.0020 O.3      1 ZINC000140358266   -0.3200
3      C3      0.6062   -0.6075   -1.0564 C.ar     1 ZINC000140358266    0.1000
4      C4      1.1741    0.1668   -2.0645 C.ar     1 ZINC000140358266   -0.1800
5      C5      1.7902   -0.4280   -3.1431 C.ar     1 ZINC000140358266   -0.0900
6      C6      1.8491   -1.8145   -3.2325 C.ar     1 ZINC000140358266    0.0600
7      N7      2.3826   -2.6815   -4.1628 N.pl3    1 ZINC000140358266   -0.5900
8      C8      2.1672   -3.9742   -3.7702 C.2      1 ZINC000140358266    0.0700
9      C9      1.5044   -3.9938   -2.6030 C.2      1 ZINC000140358266   -0.1800
10     C10     1.0768   -5.2184   -1.8358 C.3      1 ZINC000140358266   -0.0500
11     C11    -0.3685   -5.5674   -2.1968 C.3      1 ZINC000140358266    0.1200
12     N12    -0.7842   -6.7579   -1.4510 N.am     1 ZINC000140358266   -0.7100
13     C13    -2.0278   -7.2526   -1.6101 C.2      1 ZINC000140358266    0.5800
14     O14    -2.8041   -6.7112   -2.3720 O.2      1 ZINC000140358266   -0.5000
15     C15    -2.4482   -8.4563   -0.8560 C.2      1 ZINC000140358266    0.0700
16     C16    -3.7008   -8.9521   -1.0257 C.2      1 ZINC000140358266   -0.2100
17     C17    -4.0847  -10.1472   -0.2628 C.2      1 ZINC000140358266    0.4000
18     O18    -5.1968  -10.6379   -0.3746 O.2      1 ZINC000140358266   -0.4700
19     C19    -3.1176  -10.7111    0.6078 C.2      1 ZINC000140358266   -0.3100
20     C20    -1.9013  -10.1331    0.6972 C.2      1 ZINC000140358266    0.1300
21     O21    -1.5847   -9.0493   -0.0156 O.3      1 ZINC000140358266   -0.2200
22     C22     1.2763   -2.5995   -2.2157 C.ar     1 ZINC000140358266   -0.0600
23     C23     0.6588   -1.9856   -1.1241 C.ar     1 ZINC000140358266   -0.1100
24     H24     1.0053    1.8021    0.0021 H        1 ZINC000140358266    0.0500
25     H25    -0.5445    1.7859   -0.8732 H        1 ZINC000140358266    0.0500
26     H26    -0.5275    1.7763    0.9067 H        1 ZINC000140358266    0.1000
27     H27     1.1309    1.2440   -2.0002 H        1 ZINC000140358266    0.1300
28     H28     2.2272    0.1823   -3.9196 H        1 ZINC000140358266    0.1200
29     H29     2.8417   -2.4146   -4.9745 H        1 ZINC000140358266    0.4200
30     H30     2.4836   -4.8493   -4.3183 H        1 ZINC000140358266    0.1700
31     H31     1.7275   -6.0541   -2.0933 H        1 ZINC000140358266    0.0800
32     H32     1.1464   -5.0199   -0.7663 H        1 ZINC000140358266    0.0800
33     H33    -1.0193   -4.7318   -1.9393 H        1 ZINC000140358266    0.0800
34     H34    -0.4381   -5.7660   -3.2663 H        1 ZINC000140358266    0.0800
35     H35    -0.1645   -7.1901   -0.8427 H        1 ZINC000140358266    0.4100
36     H36    -4.3966   -8.4800   -1.7034 H        1 ZINC000140358266    0.1700
37     H37    -3.3511  -11.5897    1.1908 H        1 ZINC000140358266    0.1600
38     H38    -1.1633  -10.5609    1.3596 H        1 ZINC000140358266    0.2100
39     H39     0.2227   -2.5852   -0.3388 H        1 ZINC000140358266    0.1300
@<TRIPOS>BOND
1     1     2     1
2     1     24    1
3     1     25    1
4     1     26    1
5     2     3     1
6     3     23    ar
7     3     4     ar
8     4     5     ar
9     4     27    1
10    5     6     ar
11    5     28    1
12    6     22    ar
13    6     7     1
14    7     8     1
15    7     29    1
16    8     9     2
17    8     30    1
18    9     10    1
19    9     22    1
20    10    11    1
21    10    31    1
22    10    32    1
23    11    12    1
24    11    33    1
25    11    34    1
26    12    13    am
27    12    35    1
28    13    14    2
29    13    15    1
30    15    21    1
31    15    16    2
32    16    17    1
33    16    36    1
34    17    18    2
35    17    19    1
36    19    20    2
37    19    37    1
38    20    21    1
39    20    38    1
40    22    23    ar
41    23    39    1
@<TRIPOS>SUBSTRUCTURE
1   ZINC000140358266 1     RESIDUE    1   A     ZIN   1
