@<TRIPOS>MOLECULE
ZINC000003801505
57    61    1     0     0
SMALL
USER_CHARGES
@<TRIPOS>ATOM
1      C1     -0.0173    1.4248    0.0099 C.3      1 ZINC000003801505    0.0300
2      O2      0.0021   -0.0041    0.0020 O.3      1 ZINC000003801505   -0.3200
3      C3     -1.2009   -0.6378    0.0101 C.ar     1 ZINC000003801505    0.1100
4      C4     -2.3743    0.1021    0.0195 C.ar     1 ZINC000003801505   -0.1800
5      C5     -3.5963   -0.5409    0.0272 C.ar     1 ZINC000003801505   -0.1100
6      C6     -3.6505   -1.9282    0.0256 C.ar     1 ZINC000003801505    0.1400
7      N7     -4.8905   -2.5814    0.0330 N.am     1 ZINC000003801505   -0.5700
8      C8     -5.0896   -4.0388    0.0382 C.3      1 ZINC000003801505    0.0700
9      C9     -6.6220   -4.1999    0.0454 C.3      1 ZINC000003801505    0.0700
10     H10    -6.9469   -4.7237    0.9444 H        1 ZINC000003801505    0.1200
11     C11    -7.0888   -4.9455   -1.2064 C.3      1 ZINC000003801505    0.0500
12     N12    -8.5508   -5.0861   -1.1759 N.3      1 ZINC000003801505   -0.5300
13     C13    -9.0093   -5.5299    0.1467 C.3      1 ZINC000003801505    0.0500
14     C14   -10.5392   -5.5253    0.1857 C.3      1 ZINC000003801505   -0.1000
15     C15   -11.0755   -6.4607   -0.9016 C.3      1 ZINC000003801505    0.1800
16     O16   -10.6385   -7.7960   -0.6408 O.3      1 ZINC000003801505   -0.5500
17     C17   -12.5818   -6.4156   -0.9066 C.ar     1 ZINC000003801505   -0.1000
18     C18   -13.2384   -5.2597   -0.5287 C.ar     1 ZINC000003801505   -0.1000
19     C19   -14.6204   -5.2134   -0.5316 C.ar     1 ZINC000003801505   -0.1000
20     C20   -15.3504   -6.3268   -0.9132 C.ar     1 ZINC000003801505    0.0300
21     O21   -16.6956   -6.5407   -1.0017 O.3      1 ZINC000003801505   -0.3100
22     C22   -16.8456   -7.7097   -1.8287 C.3      1 ZINC000003801505    0.2100
23     O23   -15.6194   -8.4354   -1.6210 O.3      1 ZINC000003801505   -0.3100
24     C24   -14.6886   -7.4920   -1.2941 C.ar     1 ZINC000003801505    0.0400
25     C25   -13.3040   -7.5292   -1.2946 C.ar     1 ZINC000003801505   -0.0900
26     C26   -10.5441   -6.0051   -2.2634 C.3      1 ZINC000003801505   -0.1400
27     C27    -9.0141   -5.9959   -2.2314 C.3      1 ZINC000003801505    0.0600
28     O28    -7.1206   -2.8308    0.0436 O.3      1 ZINC000003801505   -0.3000
29     C29    -6.0880   -1.9801    0.0424 C.2      1 ZINC000003801505    0.6400
30     O30    -6.2237   -0.7725    0.0408 O.2      1 ZINC000003801505   -0.5000
31     C31    -2.4758   -2.6682    0.0162 C.ar     1 ZINC000003801505   -0.1100
32     C32    -1.2544   -2.0239    0.0032 C.ar     1 ZINC000003801505   -0.1200
33     H33     1.0053    1.8021    0.0021 H        1 ZINC000003801505    0.1000
34     H34    -0.5445    1.7859   -0.8732 H        1 ZINC000003801505    0.0600
35     H35    -0.5275    1.7763    0.9067 H        1 ZINC000003801505    0.0600
36     H36    -2.3320    1.1813    0.0211 H        1 ZINC000003801505    0.1400
37     H37    -4.5098    0.0352    0.0349 H        1 ZINC000003801505    0.1600
38     H38    -4.6617   -4.4868   -0.8586 H        1 ZINC000003801505    0.1000
39     H39    -4.6538   -4.4816    0.9338 H        1 ZINC000003801505    0.1000
40     H40    -6.7962   -4.3844   -2.0938 H        1 ZINC000003801505    0.0900
41     H41    -6.6293   -5.9335   -1.2333 H        1 ZINC000003801505    0.0600
42     H42    -8.6442   -6.5390    0.3378 H        1 ZINC000003801505    0.0500
43     H43    -8.6245   -4.8539    0.9102 H        1 ZINC000003801505    0.0800
44     H44   -10.8794   -5.8697    1.1623 H        1 ZINC000003801505    0.0800
45     H45   -10.9047   -4.5138    0.0082 H        1 ZINC000003801505    0.0900
46     H46   -10.9423   -8.4434   -1.2917 H        1 ZINC000003801505    0.3800
47     H47   -12.6708   -4.3907   -0.2300 H        1 ZINC000003801505    0.1400
48     H48   -15.1308   -4.3087   -0.2359 H        1 ZINC000003801505    0.1400
49     H49   -17.7009   -8.3019   -1.5033 H        1 ZINC000003801505    0.1300
50     H50   -16.9506   -7.4270   -2.8761 H        1 ZINC000003801505    0.0900
51     H51   -12.7883   -8.4292   -1.5952 H        1 ZINC000003801505    0.1300
52     H52   -10.8878   -6.6923   -3.0365 H        1 ZINC000003801505    0.0700
53     H53   -10.9096   -5.0012   -2.4794 H        1 ZINC000003801505    0.0900
54     H54    -8.6327   -5.6582   -3.1951 H        1 ZINC000003801505    0.0800
55     H55    -8.6490   -7.0028   -2.0291 H        1 ZINC000003801505    0.0400
56     H56    -2.5173   -3.7474    0.0153 H        1 ZINC000003801505    0.1300
57     H57    -0.3405   -2.5994   -0.0041 H        1 ZINC000003801505    0.1400
@<TRIPOS>BOND
1     1     2     1
2     1     33    1
3     1     34    1
4     1     35    1
5     2     3     1
6     3     32    ar
7     3     4     ar
8     4     5     ar
9     4     36    1
10    5     6     ar
11    5     37    1
12    6     7     1
13    6     31    ar
14    7     29    am
15    7     8     1
16    8     9     1
17    8     38    1
18    8     39    1
19    9     10    1
20    9     11    1
21    9     28    1
22    11    12    1
23    11    40    1
24    11    41    1
25    12    27    1
26    12    13    1
27    13    14    1
28    13    42    1
29    13    43    1
30    14    15    1
31    14    44    1
32    14    45    1
33    15    16    1
34    15    17    1
35    15    26    1
36    16    46    1
37    17    25    ar
38    17    18    ar
39    18    19    ar
40    18    47    1
41    19    20    ar
42    19    48    1
43    20    24    ar
44    20    21    1
45    21    22    1
46    22    23    1
47    22    49    1
48    22    50    1
49    23    24    1
50    24    25    ar
51    25    51    1
52    26    27    1
53    26    52    1
54    26    53    1
55    27    54    1
56    27    55    1
57    28    29    1
58    29    30    2
59    31    32    ar
60    31    56    1
61    32    57    1
@<TRIPOS>SUBSTRUCTURE
1   ZINC000003801505 1     RESIDUE    1   A     ZIN   1
