@<TRIPOS>MOLECULE
ZINC000003801027
  59   59    0    0    0
SMALL
USER_CHARGES
NO_NAME
@<TRIPOS>ATOM
    1 C1        2.8908     1.5194     0.9042 C.3    1 <0>      -0.1500
    2 C2        2.2529     0.1299     0.8459 C.3    1 <0>      -0.1200
    3 C3        2.5648    -0.5183    -0.5044 C.3    1 <0>      -0.1200
    4 C4        1.9269    -1.9077    -0.5627 C.3    1 <0>      -0.1300
    5 C5        2.2388    -2.5559    -1.9131 C.3    1 <0>       0.1100
    6 N6        1.7287    -3.9291    -1.9251 N.am   1 <0>      -0.6100
    7 C7        0.4048    -4.2139    -2.4842 C.3    1 <0>       0.1100
    8 C8        0.5102    -4.3410    -4.0053 C.3    1 <0>      -0.1400
    9 C9       -0.8399    -4.7809    -4.5750 C.3    1 <0>       0.0600
   10 O10      -0.7414    -4.8996    -5.9957 O.3    1 <0>      -0.3900
   11 C11      -1.9550    -5.3076    -6.6303 C.3    1 <0>       0.0300
   12 C12       2.4772    -4.9305    -1.4217 C.2    1 <0>       0.5200
   13 O13       3.6186    -4.7174    -1.0715 O.2    1 <0>      -0.5400
   14 C14       1.8959    -6.3150    -1.2941 C.3    1 <0>       0.1200
   15 H15       0.8244    -6.2434    -1.1072 H      1 <0>       0.1100
   16 C16       2.1366    -7.0907    -2.5908 C.3    1 <0>      -0.1000
   17 C17       1.5027    -8.4788    -2.4799 C.3    1 <0>      -0.1700
   18 C18       1.7398    -9.2428    -3.7570 C.2    1 <0>       0.4900
   19 O19       2.3585    -8.7251    -4.6712 O.co2  1 <0>      -0.7000
   20 O20       1.3129   -10.3787    -3.8761 O.co2  1 <0>      -0.7100
   21 N21       2.5403    -7.0145    -0.1798 N.am   1 <0>      -0.7000
   22 C22       1.8950    -8.0155     0.4511 C.2    1 <0>       0.5600
   23 O23       0.7782    -8.3379     0.0955 O.2    1 <0>      -0.5100
   24 C24       2.5451    -8.7210     1.5752 C.ar   1 <0>      -0.1100
   25 C25       3.8252    -8.3491     1.9894 C.ar   1 <0>      -0.0700
   26 C26       4.4275    -9.0109     3.0390 C.ar   1 <0>      -0.1000
   27 C27       3.7651   -10.0428     3.6821 C.ar   1 <0>      -0.0100
   28 Cl28      4.5295   -10.8706     5.0028 Cl     1 <0>      -0.0500
   29 C29       2.4936   -10.4172     3.2758 C.ar   1 <0>      -0.0400
   30 Cl30      1.6704   -11.7121     4.0878 Cl     1 <0>      -0.0400
   31 C31       1.8789    -9.7584     2.2306 C.ar   1 <0>      -0.0400
   32 H32       3.9705     1.4288     0.7854 H      1 <0>       0.0500
   33 H33       2.4877     2.1381     0.1025 H      1 <0>       0.0500
   34 H34       2.6686     1.9811     1.8662 H      1 <0>       0.0500
   35 H35       2.6560    -0.4889     1.6477 H      1 <0>       0.0600
   36 H36       1.1732     0.2205     0.9647 H      1 <0>       0.0600
   37 H37       2.1617     0.1005    -1.3062 H      1 <0>       0.0600
   38 H38       3.6445    -0.6089    -0.6232 H      1 <0>       0.0600
   39 H39       2.3300    -2.5265     0.2391 H      1 <0>       0.0700
   40 H40       0.8472    -1.8171    -0.4439 H      1 <0>       0.0600
   41 H41       1.7621    -1.9842    -2.7093 H      1 <0>       0.0800
   42 H42       3.3174    -2.5676    -2.0700 H      1 <0>       0.0800
   43 H43       0.0272    -5.1473    -2.0669 H      1 <0>       0.0900
   44 H44      -0.2776    -3.4016    -2.2339 H      1 <0>       0.0800
   45 H45       0.7881    -3.3773    -4.4320 H      1 <0>       0.0700
   46 H46       1.2693    -5.0820    -4.2562 H      1 <0>       0.0900
   47 H47      -1.1178    -5.7446    -4.1483 H      1 <0>       0.0600
   48 H48      -1.5989    -4.0399    -4.3241 H      1 <0>       0.0500
   49 H49      -1.7975    -5.3742    -7.7068 H      1 <0>       0.0800
   50 H50      -2.2561    -6.2823    -6.2462 H      1 <0>       0.0400
   51 H51      -2.7372    -4.5776    -6.4220 H      1 <0>       0.0400
   52 H52       1.6877    -6.5519    -3.4252 H      1 <0>       0.0800
   53 H53       3.2086    -7.1933    -2.7591 H      1 <0>       0.0700
   54 H54       1.9516    -9.0176    -1.6454 H      1 <0>       0.0600
   55 H55       0.4306    -8.3762    -2.3115 H      1 <0>       0.0600
   56 H56       3.4315    -6.7572     0.1039 H      1 <0>       0.4100
   57 H57       4.3433    -7.5447     1.4885 H      1 <0>       0.1400
   58 H58       5.4180    -8.7239     3.3597 H      1 <0>       0.1500
   59 H59       0.8884   -10.0505     1.9145 H      1 <0>       0.1600
@<TRIPOS>BOND
   1    1    2 1
   2    1   32 1
   3    1   33 1
   4    1   34 1
   5    2    3 1
   6    2   35 1
   7    2   36 1
   8    3    4 1
   9    3   37 1
  10    3   38 1
  11    4    5 1
  12    4   39 1
  13    4   40 1
  14    5    6 1
  15    5   41 1
  16    5   42 1
  17    6    7 1
  18    6   12 am
  19    7    8 1
  20    7   43 1
  21    7   44 1
  22    8    9 1
  23    8   45 1
  24    8   46 1
  25    9   10 1
  26    9   47 1
  27    9   48 1
  28   10   11 1
  29   11   49 1
  30   11   50 1
  31   11   51 1
  32   12   13 2
  33   12   14 1
  34   14   15 1
  35   14   16 1
  36   14   21 1
  37   16   17 1
  38   16   52 1
  39   16   53 1
  40   17   18 1
  41   17   54 1
  42   17   55 1
  43   18   19 ar
  44   18   20 ar
  45   21   22 am
  46   21   56 1
  47   22   23 2
  48   22   24 1
  49   24   31 ar
  50   24   25 ar
  51   25   26 ar
  52   25   57 1
  53   26   27 ar
  54   26   58 1
  55   27   28 1
  56   27   29 ar
  57   29   30 1
  58   29   31 ar
  59   31   59 1
