@<TRIPOS>MOLECULE
ZINC000095929260
68    71    1     0     0
SMALL
USER_CHARGES
@<TRIPOS>ATOM
1      C1     -1.4458    2.2546   -2.7094 C.3      1 ZINC000095929260    0.0300
2      N2     -0.9599    1.0116   -2.0956 N.3      1 ZINC000095929260   -0.6700
3      C3     -0.3422    0.1351   -3.0997 C.3      1 ZINC000095929260    0.0700
4      H4     -0.8744    0.2348   -4.0457 H        1 ZINC000095929260    0.1100
5      C5      1.1220    0.5344   -3.2936 C.3      1 ZINC000095929260   -0.1800
6      C6     -0.4149   -1.2953   -2.6307 C.2      1 ZINC000095929260    0.5200
7      O7     -0.9305   -1.5586   -1.5650 O.2      1 ZINC000095929260   -0.5100
8      N8      0.0931   -2.2818   -3.3956 N.am     1 ZINC000095929260   -0.7200
9      C9      0.0224   -3.6723   -2.9398 C.3      1 ZINC000095929260    0.1400
10     H10     0.1368   -3.7057   -1.8563 H        1 ZINC000095929260    0.1100
11     C11     1.1259   -4.4696   -3.5861 C.2      1 ZINC000095929260    0.5300
12     O12     1.4908   -4.1991   -4.7107 O.2      1 ZINC000095929260   -0.5200
13     N13     1.7073   -5.4832   -2.9145 N.am     1 ZINC000095929260   -0.6100
14     C14     1.2969   -5.9833   -1.5898 C.3      1 ZINC000095929260    0.0800
15     C15     2.5664   -6.6545   -1.0086 C.3      1 ZINC000095929260   -0.1300
16     C16     3.1865   -7.2986   -2.2767 C.3      1 ZINC000095929260   -0.1200
17     C17     2.8518   -6.2774   -3.3845 C.3      1 ZINC000095929260    0.2100
18     H18     3.7061   -5.6224   -3.5553 H        1 ZINC000095929260    0.1100
19     C19     2.4981   -7.0008   -4.6584 C.2      1 ZINC000095929260    0.0200
20     N20     3.2594   -7.0777   -5.6923 N.2      1 ZINC000095929260   -0.4200
21     C21     2.7669   -7.7649   -6.7266 C.2      1 ZINC000095929260   -0.0100
22     C22     3.4993   -7.9552   -7.9886 C.2      1 ZINC000095929260    0.4800
23     O23     3.0386   -8.6717   -8.8572 O.2      1 ZINC000095929260   -0.4400
24     C24     4.7938   -7.2763   -8.2009 C.ar     1 ZINC000095929260   -0.1800
25     C25     5.4009   -6.5807   -7.1524 C.ar     1 ZINC000095929260   -0.0400
26     C26     6.6091   -5.9495   -7.3560 C.ar     1 ZINC000095929260   -0.1700
27     C27     7.2218   -6.0035   -8.5988 C.ar     1 ZINC000095929260    0.1300
28     F28     8.4058   -5.3826   -8.7930 F        1 ZINC000095929260   -0.1300
29     C29     6.6239   -6.6929   -9.6430 C.ar     1 ZINC000095929260   -0.1700
30     C30     5.4184   -7.3322   -9.4493 C.ar     1 ZINC000095929260   -0.0300
31     C31     1.5304   -8.2702   -6.5041 C.2      1 ZINC000095929260   -0.2300
32     S32     1.0340   -7.8379   -4.9265 S.3      1 ZINC000095929260    0.2400
33     C33    -1.3321   -4.2682   -3.3283 C.3      1 ZINC000095929260   -0.0900
34     C34    -1.4160   -5.7122   -2.8297 C.3      1 ZINC000095929260   -0.1200
35     C35    -2.7706   -6.3081   -3.2182 C.3      1 ZINC000095929260   -0.1200
36     C36    -3.8917   -5.4833   -2.5828 C.3      1 ZINC000095929260   -0.1200
37     C37    -3.8078   -4.0392   -3.0814 C.3      1 ZINC000095929260   -0.1200
38     C38    -2.4532   -3.4434   -2.6929 C.3      1 ZINC000095929260   -0.1000
39     H39    -0.6108    2.7836   -3.1688 H        1 ZINC000095929260    0.0200
40     H40    -2.1888    2.0175   -3.4709 H        1 ZINC000095929260    0.0700
41     H41    -1.8984    2.8850   -1.9440 H        1 ZINC000095929260    0.0700
42     H42    -0.3177    1.2073   -1.3423 H        1 ZINC000095929260    0.3500
43     H43     1.5803   -0.1159   -4.0387 H        1 ZINC000095929260    0.0700
44     H44     1.1746    1.5690   -3.6328 H        1 ZINC000095929260    0.0700
45     H45     1.6542    0.4347   -2.3476 H        1 ZINC000095929260    0.0700
46     H46     0.5055   -2.0712   -4.2480 H        1 ZINC000095929260    0.4100
47     H47     0.9799   -5.1567   -0.9539 H        1 ZINC000095929260    0.0900
48     H48     0.4945   -6.7138   -1.6920 H        1 ZINC000095929260    0.0800
49     H49     3.2389   -5.9121   -0.5788 H        1 ZINC000095929260    0.0900
50     H50     2.3043   -7.4146   -0.2727 H        1 ZINC000095929260    0.1000
51     H51     4.2650   -7.4099   -2.1646 H        1 ZINC000095929260    0.1000
52     H52     2.7185   -8.2598   -2.4892 H        1 ZINC000095929260    0.0800
53     H53     4.9243   -6.5374   -6.1843 H        1 ZINC000095929260    0.1800
54     H54     7.0793   -5.4115   -6.5461 H        1 ZINC000095929260    0.1400
55     H55     7.1055   -6.7317  -10.6089 H        1 ZINC000095929260    0.1400
56     H56     4.9537   -7.8689  -10.2632 H        1 ZINC000095929260    0.1400
57     H57     0.9541   -8.8539   -7.2067 H        1 ZINC000095929260    0.1900
58     H58    -1.4388   -4.2515   -4.4129 H        1 ZINC000095929260    0.0800
59     H59    -0.6173   -6.2998   -3.2823 H        1 ZINC000095929260    0.0600
60     H60    -1.3093   -5.7289   -1.7450 H        1 ZINC000095929260    0.0700
61     H61    -2.8772   -6.2915   -4.3028 H        1 ZINC000095929260    0.0600
62     H62    -2.8303   -7.3369   -2.8630 H        1 ZINC000095929260    0.0700
63     H63    -4.8567   -5.9078   -2.8596 H        1 ZINC000095929260    0.0600
64     H64    -3.7850   -5.4999   -1.4981 H        1 ZINC000095929260    0.0600
65     H65    -3.9144   -4.0226   -4.1660 H        1 ZINC000095929260    0.0600
66     H66    -4.6065   -3.4516   -2.6287 H        1 ZINC000095929260    0.0600
67     H67    -2.3466   -3.4600   -1.6082 H        1 ZINC000095929260    0.0700
68     H68    -2.3935   -2.4146   -3.0481 H        1 ZINC000095929260    0.0600
@<TRIPOS>BOND
1     1     2     1
2     1     39    1
3     1     40    1
4     1     41    1
5     2     3     1
6     2     42    1
7     3     4     1
8     3     5     1
9     3     6     1
10    5     43    1
11    5     44    1
12    5     45    1
13    6     7     2
14    6     8     am
15    8     9     1
16    8     46    1
17    9     10    1
18    9     11    1
19    9     33    1
20    11    12    2
21    11    13    am
22    13    17    1
23    13    14    1
24    14    15    1
25    14    47    1
26    14    48    1
27    15    16    1
28    15    49    1
29    15    50    1
30    16    17    1
31    16    51    1
32    16    52    1
33    17    18    1
34    17    19    1
35    19    32    1
36    19    20    2
37    20    21    1
38    21    22    1
39    21    31    2
40    22    23    2
41    22    24    1
42    24    30    ar
43    24    25    ar
44    25    26    ar
45    25    53    1
46    26    27    ar
47    26    54    1
48    27    28    1
49    27    29    ar
50    29    30    ar
51    29    55    1
52    30    56    1
53    31    32    1
54    31    57    1
55    33    38    1
56    33    34    1
57    33    58    1
58    34    35    1
59    34    59    1
60    34    60    1
61    35    36    1
62    35    61    1
63    35    62    1
64    36    37    1
65    36    63    1
66    36    64    1
67    37    38    1
68    37    65    1
69    37    66    1
70    38    67    1
71    38    68    1
@<TRIPOS>SUBSTRUCTURE
1   ZINC000095929260 1     RESIDUE    1   A     ZIN   1
