@<TRIPOS>MOLECULE
ZINC000000391883
15    15    1     0     0
SMALL
USER_CHARGES
@<TRIPOS>ATOM
1      O1     -0.0164    1.3547    0.0095 O.3      1 ZINC000000391883   -0.4900
2      C2      0.0021   -0.0041    0.0020 C.ar     1 ZINC000000391883    0.1400
3      C3      0.0057   -0.6908   -1.2027 C.ar     1 ZINC000000391883   -0.1800
4      C4      0.0245   -2.0774   -1.2104 C.ar     1 ZINC000000391883    0.1400
5      O5      0.0277   -2.7504   -2.3910 O.3      1 ZINC000000391883   -0.4900
6      C6      0.0406   -2.7773   -0.0133 C.ar     1 ZINC000000391883   -0.1800
7      C7      0.0374   -2.0905    1.1915 C.ar     1 ZINC000000391883    0.1400
8      O8      0.0527   -2.7763    2.3646 O.3      1 ZINC000000391883   -0.4900
9      C9      0.0229   -0.7038    1.1991 C.ar     1 ZINC000000391883   -0.1800
10     H10     0.8616    1.7600    0.0033 H        1 ZINC000000391883    0.4000
11     H11    -0.0064   -0.1458   -2.1350 H        1 ZINC000000391883    0.1400
12     H12     0.9119   -2.9332   -2.7371 H        1 ZINC000000391883    0.4000
13     H13     0.0553   -3.8572   -0.0192 H        1 ZINC000000391883    0.1400
14     H14     0.9404   -2.9628    2.6996 H        1 ZINC000000391883    0.4000
15     H15     0.0204   -0.1690    2.1373 H        1 ZINC000000391883    0.1400
@<TRIPOS>BOND
1     1     2     1
2     1     10    1
3     2     9     ar
4     2     3     ar
5     3     4     ar
6     3     11    1
7     4     5     1
8     4     6     ar
9     5     12    1
10    6     7     ar
11    6     13    1
12    7     8     1
13    7     9     ar
14    8     14    1
15    9     15    1
@<TRIPOS>SUBSTRUCTURE
1   ZINC000000391883 1     RESIDUE    1   A     ZIN   1
