@<TRIPOS>MOLECULE
ZINC000056875015
  54   53    0    0    0
SMALL
USER_CHARGES
NO_NAME
@<TRIPOS>ATOM
    1 C1       -0.2883     1.6744    -0.1289 C.3    1 <0>      -0.1500
    2 C2       -0.2127     0.1462    -0.1269 C.3    1 <0>      -0.1500
    3 C3       -1.6264    -0.4342    -0.0527 C.3    1 <0>       0.1300
    4 H4       -2.1427    -0.0235     0.8150 H      1 <0>       0.1000
    5 O5       -2.3445    -0.0928    -1.2400 O.3    1 <0>      -0.5500
    6 C6       -1.5477    -1.9339     0.0730 C.2    1 <0>      -0.1900
    7 C7       -2.0699    -2.5400     1.1339 C.2    1 <0>      -0.1100
    8 C8       -1.9930    -4.0040     1.2566 C.2    1 <0>      -0.1400
    9 C9       -2.4304    -4.6021     2.3595 C.2    1 <0>      -0.1300
   10 C10      -3.1309    -3.7990     3.4250 C.3    1 <0>      -0.1300
   11 C11      -4.4881    -4.4346     3.7331 C.3    1 <0>       0.1400
   12 H12      -5.0627    -4.5289     2.8117 H      1 <0>       0.1000
   13 O13      -4.2891    -5.7290     4.3049 O.3    1 <0>      -0.5600
   14 C14      -5.2403    -3.5652     4.7075 C.2    1 <0>      -0.2000
   15 C15      -6.4221    -3.0512     4.3673 C.2    1 <0>      -0.1000
   16 C16      -7.1533    -2.2062     5.3143 C.2    1 <0>      -0.1300
   17 C17      -8.3494    -1.6860     4.9700 C.2    1 <0>      -0.1100
   18 C18      -9.0805    -0.8410     5.9170 C.2    1 <0>      -0.1300
   19 C19     -10.2148    -0.2489     5.5438 C.2    1 <0>      -0.1600
   20 C20     -10.8176    -0.5564     4.1972 C.3    1 <0>       0.1200
   21 H21     -10.2403    -1.3432     3.7118 H      1 <0>       0.1100
   22 O22     -12.1677    -0.9926     4.3681 O.3    1 <0>      -0.5500
   23 C23     -10.7946     0.7030     3.3286 C.3    1 <0>      -0.1500
   24 C24     -11.2907     0.3616     1.9222 C.3    1 <0>      -0.0900
   25 C25     -11.2677     1.6209     1.0536 C.3    1 <0>      -0.1800
   26 C26     -11.7564     1.2846    -0.3318 C.2    1 <0>       0.4900
   27 O27     -12.0920     0.1435    -0.5996 O.co2  1 <0>      -0.7000
   28 O28     -11.8162     2.1537    -1.1848 O.co2  1 <0>      -0.7100
   29 H29       0.7188     2.0879    -0.1817 H      1 <0>       0.0500
   30 H30      -0.8641     2.0085    -0.9920 H      1 <0>       0.0600
   31 H31      -0.7736     2.0153     0.7857 H      1 <0>       0.0500
   32 H32       0.2725    -0.1947    -1.0415 H      1 <0>       0.0700
   33 H33       0.3630    -0.1880     0.7362 H      1 <0>       0.0700
   34 H34      -1.9413    -0.4265    -2.0532 H      1 <0>       0.3700
   35 H35      -1.0668    -2.5160    -0.6992 H      1 <0>       0.1100
   36 H36      -2.5507    -1.9579     1.9061 H      1 <0>       0.1200
   37 H37      -1.5811    -4.5926     0.4502 H      1 <0>       0.1100
   38 H38      -2.2838    -5.6639     2.4924 H      1 <0>       0.1200
   39 H39      -2.5222    -3.7858     4.3291 H      1 <0>       0.0800
   40 H40      -3.2793    -2.7785     3.0721 H      1 <0>       0.0900
   41 H41      -3.7839    -5.7213     5.1294 H      1 <0>       0.3700
   42 H42      -4.8218    -3.3587     5.6815 H      1 <0>       0.1100
   43 H43      -6.8406    -3.2578     3.3933 H      1 <0>       0.1200
   44 H44      -6.7348    -1.9997     6.2883 H      1 <0>       0.1100
   45 H45      -8.7678    -1.8926     3.9960 H      1 <0>       0.1200
   46 H46      -8.7004    -0.6977     6.9177 H      1 <0>       0.1200
   47 H47     -10.7020     0.4511     6.2064 H      1 <0>       0.1200
   48 H48     -12.7578    -0.3148     4.7252 H      1 <0>       0.3700
   49 H49     -11.4435     1.4600     3.7690 H      1 <0>       0.0600
   50 H50      -9.7759     1.0863     3.2715 H      1 <0>       0.0700
   51 H51     -10.6418    -0.3955     1.4818 H      1 <0>       0.0600
   52 H52     -12.3095    -0.0218     1.9793 H      1 <0>       0.0700
   53 H53     -11.9166     2.3779     1.4939 H      1 <0>       0.0500
   54 H54     -10.2490     2.0043     0.9964 H      1 <0>       0.0500
@<TRIPOS>BOND
   1    1    2 1
   2    1   29 1
   3    1   30 1
   4    1   31 1
   5    2    3 1
   6    2   32 1
   7    2   33 1
   8    3    4 1
   9    3    5 1
  10    3    6 1
  11    5   34 1
  12    6    7 2
  13    6   35 1
  14    7    8 1
  15    7   36 1
  16    8    9 2
  17    8   37 1
  18    9   10 1
  19    9   38 1
  20   10   11 1
  21   10   39 1
  22   10   40 1
  23   11   12 1
  24   11   13 1
  25   11   14 1
  26   13   41 1
  27   14   15 2
  28   14   42 1
  29   15   16 1
  30   15   43 1
  31   16   17 2
  32   16   44 1
  33   17   18 1
  34   17   45 1
  35   18   19 2
  36   18   46 1
  37   19   20 1
  38   19   47 1
  39   20   21 1
  40   20   22 1
  41   20   23 1
  42   22   48 1
  43   23   24 1
  44   23   49 1
  45   23   50 1
  46   24   25 1
  47   24   51 1
  48   24   52 1
  49   25   26 1
  50   25   53 1
  51   25   54 1
  52   26   27 ar
  53   26   28 ar
