@<TRIPOS>MOLECULE
ZINC000001554037
21    22    1     0     0
SMALL
USER_CHARGES
@<TRIPOS>ATOM
1      O1      0.0021   -0.0041    0.0020 O.co2    1 ZINC000001554037   -1.0600
2      S2     -0.0177    1.4504    0.0100 S.o2     1 ZINC000001554037    2.7000
3      O3      1.3231    2.0147    0.0002 O.co2    1 ZINC000001554037   -1.0600
4      O4     -0.8452    1.9911   -1.0572 O.co2    1 ZINC000001554037   -1.0600
5      C5     -0.7639    1.9401    1.5293 C.ar     1 ZINC000001554037   -0.6500
6      C6     -0.3946    3.1481    2.1172 C.ar     1 ZINC000001554037   -0.0300
7      C7     -0.9518    3.5559    3.2904 C.ar     1 ZINC000001554037   -0.1400
8      C8     -1.9138    2.7489    3.9205 C.ar     1 ZINC000001554037   -0.0300
9      C9     -2.5115    3.1365    5.1321 C.ar     1 ZINC000001554037   -0.1200
10     C10    -3.4402    2.3292    5.7133 C.ar     1 ZINC000001554037   -0.1100
11     C11    -3.8094    1.1207    5.1253 C.ar     1 ZINC000001554037   -0.1400
12     C12    -3.2521    0.7128    3.9527 C.ar     1 ZINC000001554037   -0.0900
13     C13    -2.2894    1.5198    3.3225 C.ar     1 ZINC000001554037   -0.0800
14     C14    -1.6965    1.1351    2.1082 C.ar     1 ZINC000001554037   -0.0100
15     H15     0.3450    3.7702    1.6350 H        1 ZINC000001554037    0.1300
16     H16    -0.6555    4.4947    3.7346 H        1 ZINC000001554037    0.1300
17     H17    -2.2351    4.0701    5.5995 H        1 ZINC000001554037    0.1200
18     H18    -3.8976    2.6293    6.6445 H        1 ZINC000001554037    0.1200
19     H19    -4.5487    0.4984    5.6077 H        1 ZINC000001554037    0.1200
20     H20    -3.5478   -0.2264    3.5089 H        1 ZINC000001554037    0.1300
21     H21    -1.9764    0.2037    1.6386 H        1 ZINC000001554037    0.1400
@<TRIPOS>BOND
1     1     2     ar
2     2     3     ar
3     2     4     ar
4     2     5     1
5     5     14    ar
6     5     6     ar
7     6     7     ar
8     6     15    1
9     7     8     ar
10    7     16    1
11    8     13    ar
12    8     9     ar
13    9     10    ar
14    9     17    1
15    10    11    ar
16    10    18    1
17    11    12    ar
18    11    19    1
19    12    13    ar
20    12    20    1
21    13    14    ar
22    14    21    1
@<TRIPOS>SUBSTRUCTURE
1   ZINC000001554037 1     RESIDUE    1   A     ZIN   1
