@<TRIPOS>MOLECULE
ZINC000039949190
49    52    1     0     0
SMALL
USER_CHARGES
@<TRIPOS>ATOM
1      C1     -0.0187    1.5258    0.0104 C.3      1 ZINC000039949190   -0.1500
2      C2      0.0021   -0.0041    0.0020 C.3      1 ZINC000039949190   -0.0600
3      C3      0.7760   -0.5049   -1.2045 C.3      1 ZINC000039949190   -0.0900
4      C4      2.1434    0.1903   -1.1732 C.3      1 ZINC000039949190   -0.1300
5      C5      2.9005   -0.0692    0.1280 C.3      1 ZINC000039949190   -0.0600
6      H6      3.2021   -1.1161    0.1607 H        1 ZINC000039949190    0.0800
7      C7      2.0631    0.2473    1.3677 C.3      1 ZINC000039949190   -0.0700
8      H8      1.8630    1.3182    1.4050 H        1 ZINC000039949190    0.0800
9      C9      2.7604   -0.1822    2.6545 C.3      1 ZINC000039949190   -0.1100
10     C10     4.2735   -0.0265    2.5688 C.3      1 ZINC000039949190   -0.0900
11     C11     4.6041    1.0309    1.5438 C.2      1 ZINC000039949190   -0.0100
12     C12     5.2590    2.1324    1.8945 C.2      1 ZINC000039949190   -0.2400
13     C13     5.5724    3.1678    0.9115 C.2      1 ZINC000039949190    0.3900
14     O14     6.1887    4.1575    1.2472 O.2      1 ZINC000039949190   -0.4600
15     C15     5.1282    3.0046   -0.5207 C.3      1 ZINC000039949190   -0.1700
16     C16     3.8670    2.1348   -0.5534 C.3      1 ZINC000039949190   -0.1100
17     C17     4.1568    0.8130    0.1225 C.3      1 ZINC000039949190   -0.0400
18     C18     5.2728    0.0864   -0.6307 C.3      1 ZINC000039949190   -0.1400
19     C19     0.7500   -0.5310    1.2545 C.3      1 ZINC000039949190   -0.0800
20     H20     0.9507   -1.5987    1.1664 H        1 ZINC000039949190    0.0800
21     C21    -0.2703   -0.2720    2.3688 C.3      1 ZINC000039949190   -0.1200
22     C22    -1.6144   -0.6917    1.7137 C.3      1 ZINC000039949190   -0.1600
23     C23    -1.4128   -0.5451    0.1855 C.3      1 ZINC000039949190    0.1100
24     H24    -2.1541    0.1380   -0.2293 H        1 ZINC000039949190    0.0600
25     O25    -1.5058   -1.8212   -0.4508 O.3      1 ZINC000039949190   -0.5600
26     H26     1.0039    1.9031    0.0027 H        1 ZINC000039949190    0.0700
27     H27    -0.5459    1.8868   -0.8726 H        1 ZINC000039949190    0.0600
28     H28    -0.5289    1.8773    0.9072 H        1 ZINC000039949190    0.0600
29     H29     0.9057   -1.5854   -1.1418 H        1 ZINC000039949190    0.0700
30     H30     0.2465   -0.2447   -2.1211 H        1 ZINC000039949190    0.0600
31     H31     2.7427   -0.1724   -2.0083 H        1 ZINC000039949190    0.0600
32     H32     1.9959    1.2642   -1.2874 H        1 ZINC000039949190    0.0700
33     H33     2.3882    0.4264    3.4786 H        1 ZINC000039949190    0.0700
34     H34     2.5231   -1.2273    2.8535 H        1 ZINC000039949190    0.0700
35     H35     4.6646    0.2735    3.5410 H        1 ZINC000039949190    0.0800
36     H36     4.7212   -0.9748    2.2716 H        1 ZINC000039949190    0.0800
37     H37     5.5642    2.2651    2.9219 H        1 ZINC000039949190    0.1300
38     H38     4.9082    3.9827   -0.9484 H        1 ZINC000039949190    0.1000
39     H39     5.9190    2.5225   -1.0955 H        1 ZINC000039949190    0.1000
40     H40     3.0621    2.6391   -0.0187 H        1 ZINC000039949190    0.0700
41     H41     3.5687    1.9634   -1.5877 H        1 ZINC000039949190    0.0900
42     H42     6.1733    0.7006   -0.6270 H        1 ZINC000039949190    0.0600
43     H43     5.4805   -0.8658   -0.1425 H        1 ZINC000039949190    0.0600
44     H44     4.9598   -0.0933   -1.6592 H        1 ZINC000039949190    0.0700
45     H45    -0.0557   -0.8913    3.2397 H        1 ZINC000039949190    0.0700
46     H46    -0.2862    0.7837    2.6395 H        1 ZINC000039949190    0.0700
47     H47    -1.8537   -1.7218    1.9777 H        1 ZINC000039949190    0.0700
48     H48    -2.4135   -0.0261    2.0399 H        1 ZINC000039949190    0.0700
49     H49    -2.3641   -2.2532   -0.3422 H        1 ZINC000039949190    0.3700
@<TRIPOS>BOND
1     1     2     1
2     1     26    1
3     1     27    1
4     1     28    1
5     2     19    1
6     2     23    1
7     2     3     1
8     3     4     1
9     3     29    1
10    3     30    1
11    4     5     1
12    4     31    1
13    4     32    1
14    5     6     1
15    5     17    1
16    5     7     1
17    7     8     1
18    7     9     1
19    7     19    1
20    9     10    1
21    9     33    1
22    9     34    1
23    10    11    1
24    10    35    1
25    10    36    1
26    11    17    1
27    11    12    2
28    12    13    1
29    12    37    1
30    13    14    2
31    13    15    1
32    15    16    1
33    15    38    1
34    15    39    1
35    16    17    1
36    16    40    1
37    16    41    1
38    17    18    1
39    18    42    1
40    18    43    1
41    18    44    1
42    19    20    1
43    19    21    1
44    21    22    1
45    21    45    1
46    21    46    1
47    22    23    1
48    22    47    1
49    22    48    1
50    23    24    1
51    23    25    1
52    25    49    1
@<TRIPOS>SUBSTRUCTURE
1   ZINC000039949190 1     RESIDUE    1   A     ZIN   1
