@<TRIPOS>MOLECULE
ZINC000013492899
33    35    1     0     0
SMALL
USER_CHARGES
@<TRIPOS>ATOM
1      O1      0.0021   -0.0041    0.0020 O.2      1 ZINC000013492899   -0.5400
2      C2     -0.0145    1.2154    0.0087 C.2      1 ZINC000013492899    0.5600
3      N3     -1.1841    1.8913    0.0292 N.am     1 ZINC000013492899   -0.6400
4      C4     -1.1972    3.2495    0.0361 C.2      1 ZINC000013492899    0.3500
5      N5     -0.1017    3.9522    0.0235 N.2      1 ZINC000013492899   -0.4800
6      C6      1.1120    3.3511    0.0032 C.2      1 ZINC000013492899    0.1200
7      C7      1.1868    1.9539    0.0012 C.2      1 ZINC000013492899   -0.1000
8      N8      2.5196    1.6150   -0.0209 N.pl3    1 ZINC000013492899   -0.5100
9      C9      3.2618    2.7561   -0.0324 C.2      1 ZINC000013492899    0.0700
10     C10     2.4408    3.8260   -0.0137 C.2      1 ZINC000013492899   -0.1600
11     C11     2.8666    5.2716   -0.0184 C.3      1 ZINC000013492899    0.1600
12     H12     2.1619    5.8642   -0.6017 H        1 ZINC000013492899    0.1200
13     N13     4.2243    5.3951   -0.5917 N.3      1 ZINC000013492899   -0.6400
14     C14     4.8852    6.4895    0.1643 C.3      1 ZINC000013492899    0.0900
15     H15     4.5568    7.4625   -0.2013 H        1 ZINC000013492899    0.1100
16     C16     6.4075    6.3662    0.0732 C.3      1 ZINC000013492899    0.0800
17     O17     6.8237    6.5910   -1.2752 O.3      1 ZINC000013492899   -0.5600
18     C18     4.4003    6.2594    1.6178 C.3      1 ZINC000013492899    0.0400
19     H19     4.9875    5.4787    2.1012 H        1 ZINC000013492899    0.0700
20     O20     4.4606    7.4734    2.3692 O.3      1 ZINC000013492899   -0.5400
21     C21     2.9310    5.8041    1.4251 C.3      1 ZINC000013492899    0.0600
22     H22     2.6848    5.0114    2.1316 H        1 ZINC000013492899    0.0700
23     O23     2.0427    6.9108    1.5934 O.3      1 ZINC000013492899   -0.5400
24     H24    -2.0219    1.4024    0.0387 H        1 ZINC000013492899    0.4200
25     H25    -2.1472    3.7629    0.0522 H        1 ZINC000013492899    0.2100
26     H26     2.8726    0.7116   -0.0269 H        1 ZINC000013492899    0.4300
27     H27     4.3408    2.7981   -0.0501 H        1 ZINC000013492899    0.1800
28     H28     4.7363    4.5306   -0.4982 H        1 ZINC000013492899    0.3300
29     H29     6.8717    7.1063    0.7250 H        1 ZINC000013492899    0.0600
30     H30     6.7103    5.3666    0.3851 H        1 ZINC000013492899    0.0400
31     H31     7.7796    6.5282   -1.4074 H        1 ZINC000013492899    0.3800
32     H32     4.1675    7.3833    3.2863 H        1 ZINC000013492899    0.3800
33     H33     2.0767    7.3123    2.4724 H        1 ZINC000013492899    0.3800
@<TRIPOS>BOND
1     1     2     2
2     2     7     1
3     2     3     am
4     3     4     1
5     3     24    1
6     4     5     2
7     4     25    1
8     5     6     1
9     6     10    1
10    6     7     2
11    7     8     1
12    8     9     1
13    8     26    1
14    9     10    2
15    9     27    1
16    10    11    1
17    11    12    1
18    11    21    1
19    11    13    1
20    13    14    1
21    13    28    1
22    14    15    1
23    14    16    1
24    14    18    1
25    16    17    1
26    16    29    1
27    16    30    1
28    17    31    1
29    18    19    1
30    18    20    1
31    18    21    1
32    20    32    1
33    21    22    1
34    21    23    1
35    23    33    1
@<TRIPOS>SUBSTRUCTURE
1   ZINC000013492899 1     RESIDUE    1   A     ZIN   1
