@<TRIPOS>MOLECULE
ZINC000148274595
54    57    1     0     0
SMALL
USER_CHARGES
@<TRIPOS>ATOM
1      C1      0.8558   -0.3497    1.2305 C.3      1 ZINC000148274595   -0.1800
2      C2      0.0274    0.0375    0.0039 C.3      1 ZINC000148274595    0.0800
3      H3     -0.1247    1.1168   -0.0059 H        1 ZINC000148274595    0.1500
4      N4      0.7391   -0.3679   -1.2155 N.4      1 ZINC000148274595   -0.5000
5      H5      1.6703    0.0204   -1.2063 H        1 ZINC000148274595    0.4300
6      H6      0.7948   -1.3747   -1.2534 H        1 ZINC000148274595    0.4300
7      C7      0.0138    0.1270   -2.3932 C.3      1 ZINC000148274595   -0.0100
8      H8     -1.0378   -0.1552   -2.3432 H        1 ZINC000148274595    0.1500
9      C9      0.1633    1.6658   -2.5228 C.3      1 ZINC000148274595   -0.1400
10     C10    -0.0315    1.8719   -4.0457 C.3      1 ZINC000148274595    0.0500
11     N11     0.6273    0.7058   -4.6719 N.3      1 ZINC000148274595   -0.4700
12     C12    -0.0400    0.3196   -5.8365 C.ar     1 ZINC000148274595    0.0200
13     C13     0.6297    0.3151   -7.0535 C.ar     1 ZINC000148274595   -0.0800
14     C14    -0.0330   -0.0678   -8.2031 C.ar     1 ZINC000148274595   -0.1100
15     C15    -1.3618   -0.4461   -8.1437 C.ar     1 ZINC000148274595    0.0000
16     C16    -2.0816   -0.8633   -9.4002 C.3      1 ZINC000148274595   -0.1700
17     C17    -1.9282   -2.3495   -9.5971 C.2      1 ZINC000148274595    0.5000
18     O18    -1.2932   -3.0088   -8.7917 O.co2    1 ZINC000148274595   -0.6900
19     O19    -2.4391   -2.8926  -10.5617 O.co2    1 ZINC000148274595   -0.6900
20     C20    -2.0314   -0.4427   -6.9338 C.ar     1 ZINC000148274595   -0.1100
21     C21    -1.3732   -0.0664   -5.7795 C.ar     1 ZINC000148274595   -0.1400
22     C22     0.6589   -0.3997   -3.6924 C.3      1 ZINC000148274595    0.0300
23     C23    -1.3087   -0.6575    0.0603 C.ar     1 ZINC000148274595   -0.1300
24     C24    -2.3711   -0.0877    0.7819 C.ar     1 ZINC000148274595   -0.0300
25     C25    -2.2196    1.1324    1.4628 C.ar     1 ZINC000148274595   -0.1300
26     C26    -3.2712    1.6544    2.1512 C.ar     1 ZINC000148274595   -0.0900
27     C27    -4.4994    0.9968    2.1925 C.ar     1 ZINC000148274595   -0.1100
28     C28    -4.6829   -0.1864    1.5458 C.ar     1 ZINC000148274595   -0.0900
29     C29    -3.6203   -0.7562    0.8235 C.ar     1 ZINC000148274595   -0.0500
30     C30    -3.7719   -1.9759    0.1427 C.ar     1 ZINC000148274595   -0.0700
31     C31    -2.7205   -2.4974   -0.5469 C.ar     1 ZINC000148274595   -0.1200
32     C32    -1.4940   -1.8377   -0.5921 C.ar     1 ZINC000148274595   -0.1000
33     H33     0.9332   -1.4354    1.2888 H        1 ZINC000148274595    0.0800
34     H34     1.8533    0.0816    1.1462 H        1 ZINC000148274595    0.0900
35     H35     0.3712    0.0289    2.1305 H        1 ZINC000148274595    0.1100
36     H36    -0.6117    2.1824   -1.9566 H        1 ZINC000148274595    0.1000
37     H37     1.1556    1.9895   -2.2088 H        1 ZINC000148274595    0.1000
38     H38    -1.0928    1.8867   -4.2939 H        1 ZINC000148274595    0.0700
39     H39     0.4474    2.7966   -4.3678 H        1 ZINC000148274595    0.1000
40     H40     1.6673    0.6110   -7.1008 H        1 ZINC000148274595    0.1200
41     H41     0.4871   -0.0716   -9.1497 H        1 ZINC000148274595    0.1200
42     H42    -3.1395   -0.6158   -9.3121 H        1 ZINC000148274595    0.0700
43     H43    -1.6554   -0.3377  -10.2547 H        1 ZINC000148274595    0.0700
44     H44    -3.0692   -0.7387   -6.8908 H        1 ZINC000148274595    0.1200
45     H45    -1.8967   -0.0643   -4.8348 H        1 ZINC000148274595    0.1100
46     H46     1.6903   -0.6941   -3.4987 H        1 ZINC000148274595    0.1000
47     H47     0.0938   -1.2499   -4.0745 H        1 ZINC000148274595    0.1000
48     H48    -1.2736    1.6529    1.4402 H        1 ZINC000148274595    0.1300
49     H49    -3.1521    2.5921    2.6735 H        1 ZINC000148274595    0.1300
50     H50    -5.3177    1.4326    2.7465 H        1 ZINC000148274595    0.1300
51     H51    -5.6401   -0.6850    1.5873 H        1 ZINC000148274595    0.1400
52     H52    -4.7175   -2.4971    0.1668 H        1 ZINC000148274595    0.1400
53     H53    -2.8395   -3.4353   -1.0691 H        1 ZINC000148274595    0.1400
54     H54    -0.6760   -2.2730   -1.1468 H        1 ZINC000148274595    0.1200
@<TRIPOS>BOND
1     1     2     1
2     1     33    1
3     1     34    1
4     1     35    1
5     2     3     1
6     2     4     1
7     2     23    1
8     4     5     1
9     4     6     1
10    4     7     1
11    7     8     1
12    7     22    1
13    7     9     1
14    9     10    1
15    9     36    1
16    9     37    1
17    10    11    1
18    10    38    1
19    10    39    1
20    11    12    1
21    11    22    1
22    12    21    ar
23    12    13    ar
24    13    14    ar
25    13    40    1
26    14    15    ar
27    14    41    1
28    15    16    1
29    15    20    ar
30    16    17    1
31    16    42    1
32    16    43    1
33    17    18    ar
34    17    19    ar
35    20    21    ar
36    20    44    1
37    21    45    1
38    22    46    1
39    22    47    1
40    23    32    ar
41    23    24    ar
42    24    29    ar
43    24    25    ar
44    25    26    ar
45    25    48    1
46    26    27    ar
47    26    49    1
48    27    28    ar
49    27    50    1
50    28    29    ar
51    28    51    1
52    29    30    ar
53    30    31    ar
54    30    52    1
55    31    32    ar
56    31    53    1
57    32    54    1
@<TRIPOS>SUBSTRUCTURE
1   ZINC000148274595 1     RESIDUE    1   A     ZIN   1
