@<TRIPOS>MOLECULE
ZINC000004474609
  81   83    0    0    0
SMALL
USER_CHARGES
NO_NAME
@<TRIPOS>ATOM
    1 C1       -2.4067     1.1567    -0.9359 C.2    1 <0>      -0.1700
    2 C2       -2.5246    -0.1709    -0.9568 C.2    1 <0>      -0.1300
    3 C3       -3.8156    -0.8382    -0.6888 C.2    1 <0>      -0.0800
    4 C4       -4.6245    -0.4367     0.3134 C.2    1 <0>      -0.1100
    5 C5       -4.2305     0.6861     1.1674 C.2    1 <0>      -0.1500
    6 C6       -5.0297     1.0828     2.1577 C.2    1 <0>      -0.0800
    7 C7       -6.3597     0.4045     2.4534 C.3    1 <0>      -0.0900
    8 C8       -6.4684     0.0513     3.9355 C.3    1 <0>      -0.1200
    9 C9       -6.0956     1.2419     4.8347 C.3    1 <0>      -0.1000
   10 C10      -4.6773     1.6400     4.4990 C.3    1 <0>      -0.0400
   11 C11      -3.7860     0.3965     4.5147 C.3    1 <0>      -0.1500
   12 C12      -4.6796     2.2253     3.0640 C.3    1 <0>      -0.0600
   13 H13      -5.4099     3.0293     2.9730 H      1 <0>       0.0900
   14 C14      -3.2545     2.7739     2.9630 C.3    1 <0>      -0.1200
   15 C15      -3.0445     3.4421     4.3512 C.3    1 <0>      -0.1200
   16 C16      -4.0217     2.7381     5.3220 C.3    1 <0>      -0.0700
   17 H17      -4.7737     3.4419     5.6787 H      1 <0>       0.0800
   18 C18      -3.2566     2.1358     6.5022 C.3    1 <0>       0.0900
   19 H19      -2.5171     1.4260     6.1316 H      1 <0>       0.0600
   20 C20      -2.5500     3.2516     7.2747 C.3    1 <0>      -0.1800
   21 O21      -4.1713     1.4619     7.3688 O.3    1 <0>      -0.3700
   22 C22      -3.6013     0.3525     8.0662 C.3    1 <0>       0.0600
   23 C23      -4.6648    -0.2896     8.9593 C.3    1 <0>      -0.1200
   24 C24      -4.0545    -1.4774     9.7058 C.3    1 <0>      -0.1400
   25 C25      -5.1180    -2.1194    10.5989 C.3    1 <0>       0.1400
   26 O26      -6.1517    -2.6758     9.7841 O.3    1 <0>      -0.5500
   27 C27      -4.4782    -3.2273    11.4381 C.3    1 <0>      -0.1500
   28 C28      -3.7923    -4.2355    10.5140 C.3    1 <0>      -0.1600
   29 C29      -5.7146    -1.0579    11.5253 C.3    1 <0>      -0.1100
   30 C30      -6.7765    -1.7004    12.4200 C.3    1 <0>      -0.1500
   31 C31      -4.1873    -1.9951    -1.5948 C.3    1 <0>      -0.1100
   32 C32      -2.9684    -2.9135    -1.7295 C.3    1 <0>       0.1100
   33 H33      -2.7110    -3.3198    -0.7514 H      1 <0>       0.0700
   34 O34      -3.2777    -3.9852    -2.6227 O.3    1 <0>      -0.5700
   35 C35      -1.7814    -2.1218    -2.2795 C.3    1 <0>      -0.1100
   36 C36      -1.3425    -1.0688    -1.2629 C.3    1 <0>       0.1500
   37 H37      -0.5265    -0.4764    -1.6769 H      1 <0>       0.0700
   38 O38      -0.9102    -1.7104    -0.0614 O.3    1 <0>      -0.5600
   39 H39      -1.4514     1.6172    -1.1402 H      1 <0>       0.1100
   40 H40      -3.2674     1.7719    -0.7191 H      1 <0>       0.1100
   41 H41      -5.5626    -0.9433     0.4860 H      1 <0>       0.1200
   42 H42      -3.2924     1.1927     0.9948 H      1 <0>       0.1300
   43 H43      -7.1737     1.0776     2.1842 H      1 <0>       0.0700
   44 H44      -6.4376    -0.5069     1.8606 H      1 <0>       0.0700
   45 H45      -7.4922    -0.2521     4.1542 H      1 <0>       0.0600
   46 H46      -5.7987    -0.7810     4.1523 H      1 <0>       0.0700
   47 H47      -6.7696     2.0765     4.6418 H      1 <0>       0.0600
   48 H48      -6.1593     0.9484     5.8825 H      1 <0>       0.0800
   49 H49      -4.1557    -0.3247     3.7859 H      1 <0>       0.0600
   50 H50      -2.7642     0.6786     4.2607 H      1 <0>       0.0500
   51 H51      -3.8031    -0.0503     5.5088 H      1 <0>       0.0600
   52 H52      -2.5393     1.9655     2.8112 H      1 <0>       0.0700
   53 H53      -3.1804     3.5116     2.1640 H      1 <0>       0.0700
   54 H54      -2.0164     3.2989     4.6838 H      1 <0>       0.0700
   55 H55      -3.2751     4.5058     4.2933 H      1 <0>       0.0700
   56 H56      -3.2895     3.9615     7.6453 H      1 <0>       0.0600
   57 H57      -2.0049     2.8225     8.1155 H      1 <0>       0.0500
   58 H58      -1.8523     3.7657     6.6136 H      1 <0>       0.0700
   59 H59      -3.2395    -0.3820     7.3465 H      1 <0>       0.0500
   60 H60      -2.7705     0.6980     8.6814 H      1 <0>       0.0400
   61 H61      -5.0265     0.4449     9.6789 H      1 <0>       0.0700
   62 H62      -5.4955    -0.6351     8.3440 H      1 <0>       0.0800
   63 H63      -3.6927    -2.2118     8.9862 H      1 <0>       0.0700
   64 H64      -3.2237    -1.1318    10.3211 H      1 <0>       0.0700
   65 H65      -5.8449    -3.3574     9.1706 H      1 <0>       0.3700
   66 H66      -3.7406    -2.7923    12.1125 H      1 <0>       0.0700
   67 H67      -5.2486    -3.7333    12.0199 H      1 <0>       0.0700
   68 H68      -2.9485    -3.7571    10.0168 H      1 <0>       0.0600
   69 H69      -3.4359    -5.0822    11.1007 H      1 <0>       0.0600
   70 H70      -4.5038    -4.5855     9.7662 H      1 <0>       0.0500
   71 H71      -4.9258    -0.6324    12.1457 H      1 <0>       0.0700
   72 H72      -6.1718    -0.2695    10.9275 H      1 <0>       0.0700
   73 H73      -6.3011    -2.4138    13.0933 H      1 <0>       0.0500
   74 H74      -7.2760    -0.9272    13.0037 H      1 <0>       0.0500
   75 H75      -7.5088    -2.2180    11.8004 H      1 <0>       0.0600
   76 H76      -5.0187    -2.5497    -1.1597 H      1 <0>       0.0700
   77 H77      -4.4718    -1.6161    -2.5764 H      1 <0>       0.0800
   78 H78      -4.0195    -4.5350    -2.3354 H      1 <0>       0.3800
   79 H79      -0.9533    -2.8019    -2.4786 H      1 <0>       0.0800
   80 H80      -2.0736    -1.6273    -3.2058 H      1 <0>       0.0800
   81 H81      -0.6173    -1.0985     0.6277 H      1 <0>       0.3800
@<TRIPOS>BOND
   1    1    2 2
   2    1   39 1
   3    1   40 1
   4    2   36 1
   5    2    3 1
   6    3    4 2
   7    3   31 1
   8    4    5 1
   9    4   41 1
  10    5    6 2
  11    5   42 1
  12    6   12 1
  13    6    7 1
  14    7    8 1
  15    7   43 1
  16    7   44 1
  17    8    9 1
  18    8   45 1
  19    8   46 1
  20    9   10 1
  21    9   47 1
  22    9   48 1
  23   10   16 1
  24   10   11 1
  25   10   12 1
  26   11   49 1
  27   11   50 1
  28   11   51 1
  29   12   13 1
  30   12   14 1
  31   14   15 1
  32   14   52 1
  33   14   53 1
  34   15   16 1
  35   15   54 1
  36   15   55 1
  37   16   17 1
  38   16   18 1
  39   18   19 1
  40   18   20 1
  41   18   21 1
  42   20   56 1
  43   20   57 1
  44   20   58 1
  45   21   22 1
  46   22   23 1
  47   22   59 1
  48   22   60 1
  49   23   24 1
  50   23   61 1
  51   23   62 1
  52   24   25 1
  53   24   63 1
  54   24   64 1
  55   25   26 1
  56   25   27 1
  57   25   29 1
  58   26   65 1
  59   27   28 1
  60   27   66 1
  61   27   67 1
  62   28   68 1
  63   28   69 1
  64   28   70 1
  65   29   30 1
  66   29   71 1
  67   29   72 1
  68   30   73 1
  69   30   74 1
  70   30   75 1
  71   31   32 1
  72   31   76 1
  73   31   77 1
  74   32   33 1
  75   32   34 1
  76   32   35 1
  77   34   78 1
  78   35   36 1
  79   35   79 1
  80   35   80 1
  81   36   37 1
  82   36   38 1
  83   38   81 1
