@<TRIPOS>MOLECULE
ZINC000000527387
45    48    1     0     0
SMALL
USER_CHARGES
@<TRIPOS>ATOM
1      F1      0.1716    0.2245   -0.8304 F        1 ZINC000000527387   -0.1300
2      C2      0.1308    1.5619   -0.6441 C.ar     1 ZINC000000527387    0.1200
3      C3     -1.0591    2.1765   -0.2927 C.ar     1 ZINC000000527387   -0.1500
4      C4     -1.0996    3.5448   -0.1025 C.ar     1 ZINC000000527387   -0.0700
5      C5      0.0473    4.2998   -0.2630 C.ar     1 ZINC000000527387   -0.1100
6      C6      0.0018    5.7916   -0.0548 C.3      1 ZINC000000527387   -0.0400
7      H7     -1.0281    6.1396   -0.1345 H        1 ZINC000000527387    0.1100
8      C8      0.8598    6.4834   -1.1180 C.3      1 ZINC000000527387   -0.1500
9      C9      0.8735    7.9905   -0.8532 C.3      1 ZINC000000527387   -0.0100
10     N10     1.4355    8.2520    0.4773 N.4      1 ZINC000000527387   -0.5100
11     H11     2.3598    7.8516    0.5356 H        1 ZINC000000527387    0.4200
12     H12     1.4915    9.2482    0.6278 H        1 ZINC000000527387    0.4400
13     C13     0.5782    7.6521    1.5068 C.3      1 ZINC000000527387    0.0000
14     C14     0.5513    6.1319    1.3336 C.3      1 ZINC000000527387   -0.1000
15     H15    -0.0873    5.6897    2.0982 H        1 ZINC000000527387    0.1300
16     C16     1.9706    5.5770    1.4698 C.3      1 ZINC000000527387    0.0400
17     O17     2.4711    5.8646    2.7770 O.3      1 ZINC000000527387   -0.3100
18     C18     3.7294    5.4365    3.0642 C.ar     1 ZINC000000527387    0.1300
19     C19     4.4669    4.7594    2.1050 C.ar     1 ZINC000000527387   -0.2000
20     C20     5.7463    4.3228    2.3950 C.ar     1 ZINC000000527387   -0.0600
21     C21     6.2949    4.5609    3.6441 C.ar     1 ZINC000000527387    0.0100
22     O22     7.5130    4.2409    4.1732 O.3      1 ZINC000000527387   -0.3000
23     C23     7.6647    5.0875    5.3279 C.3      1 ZINC000000527387    0.2100
24     O24     6.3104    5.3474    5.7419 O.3      1 ZINC000000527387   -0.3000
25     C25     5.5560    5.2413    4.6093 C.ar     1 ZINC000000527387    0.0800
26     C26     4.2766    5.6823    4.3147 C.ar     1 ZINC000000527387   -0.1300
27     C27     1.2359    3.6872   -0.6138 C.ar     1 ZINC000000527387   -0.0900
28     C28     1.2801    2.3184   -0.7989 C.ar     1 ZINC000000527387   -0.1500
29     H29    -1.9553    1.5869   -0.1677 H        1 ZINC000000527387    0.1400
30     H30    -2.0278    4.0244    0.1712 H        1 ZINC000000527387    0.1400
31     H31     1.8778    6.0966   -1.0725 H        1 ZINC000000527387    0.0900
32     H32     0.4406    6.2912   -2.1056 H        1 ZINC000000527387    0.1200
33     H33     1.4834    8.4861   -1.6085 H        1 ZINC000000527387    0.1400
34     H34    -0.1449    8.3763   -0.8992 H        1 ZINC000000527387    0.1400
35     H35     0.9701    7.8980    2.4938 H        1 ZINC000000527387    0.1400
36     H36    -0.4339    8.0452    1.4104 H        1 ZINC000000527387    0.1400
37     H37     1.9552    4.4980    1.3159 H        1 ZINC000000527387    0.1000
38     H38     2.6154    6.0412    0.7236 H        1 ZINC000000527387    0.0600
39     H39     4.0413    4.5724    1.1302 H        1 ZINC000000527387    0.1400
40     H40     6.3187    3.7951    1.6465 H        1 ZINC000000527387    0.1400
41     H41     8.2125    4.5682    6.1142 H        1 ZINC000000527387    0.1400
42     H42     8.1677    6.0162    5.0585 H        1 ZINC000000527387    0.0900
43     H43     3.7042    6.2152    5.0595 H        1 ZINC000000527387    0.1500
44     H44     2.1312    4.2781   -0.7392 H        1 ZINC000000527387    0.1300
45     H45     2.2088    1.8401   -1.0730 H        1 ZINC000000527387    0.1400
@<TRIPOS>BOND
1     1     2     1
2     2     28    ar
3     2     3     ar
4     3     4     ar
5     3     29    1
6     4     5     ar
7     4     30    1
8     5     6     1
9     5     27    ar
10    6     7     1
11    6     14    1
12    6     8     1
13    8     9     1
14    8     31    1
15    8     32    1
16    9     10    1
17    9     33    1
18    9     34    1
19    10    11    1
20    10    12    1
21    10    13    1
22    13    14    1
23    13    35    1
24    13    36    1
25    14    15    1
26    14    16    1
27    16    17    1
28    16    37    1
29    16    38    1
30    17    18    1
31    18    26    ar
32    18    19    ar
33    19    20    ar
34    19    39    1
35    20    21    ar
36    20    40    1
37    21    25    ar
38    21    22    1
39    22    23    1
40    23    24    1
41    23    41    1
42    23    42    1
43    24    25    1
44    25    26    ar
45    26    43    1
46    27    28    ar
47    27    44    1
48    28    45    1
@<TRIPOS>SUBSTRUCTURE
1   ZINC000000527387 1     RESIDUE    1   A     ZIN   1
