@<TRIPOS>MOLECULE
ZINC000003872668
73    72    1     0     0
SMALL
USER_CHARGES
@<TRIPOS>ATOM
1      C1     -1.7605    2.7891    1.3115 C.3      1 ZINC000003872668   -0.1200
2      C2     -2.0762    1.3173    1.3831 C.2      1 ZINC000003872668   -0.1300
3      C3     -2.1123    0.6184    2.7177 C.3      1 ZINC000003872668   -0.1200
4      C4     -2.3191    0.6454    0.2851 C.2      1 ZINC000003872668   -0.1700
5      C5     -2.1686    1.3146   -1.0568 C.3      1 ZINC000003872668   -0.0900
6      C6     -1.2164    0.4961   -1.9310 C.3      1 ZINC000003872668   -0.0800
7      C7     -1.0659    1.1653   -3.2728 C.2      1 ZINC000003872668   -0.1300
8      C8     -2.0685    0.8969   -4.3654 C.3      1 ZINC000003872668   -0.1200
9      C9     -0.0635    1.9804   -3.4895 C.2      1 ZINC000003872668   -0.1600
10     C10     0.0232    2.7395   -4.7884 C.3      1 ZINC000003872668   -0.0900
11     C11     0.1443    4.2366   -4.4971 C.3      1 ZINC000003872668   -0.0800
12     C12     0.2310    4.9958   -5.7960 C.2      1 ZINC000003872668   -0.1200
13     C13     1.5624    5.1684   -6.4805 C.3      1 ZINC000003872668   -0.1200
14     C14    -0.8511    5.5057   -6.3302 C.2      1 ZINC000003872668   -0.1700
15     C15    -0.7843    6.1660   -7.6831 C.3      1 ZINC000003872668   -0.0800
16     C16    -1.8085    5.5190   -8.6176 C.3      1 ZINC000003872668   -0.1100
17     C17    -1.7417    6.1794   -9.9705 C.2      1 ZINC000003872668    0.4600
18     O18    -0.9555    7.0755  -10.1672 O.2      1 ZINC000003872668   -0.5100
19     O19    -2.5556    5.7720  -10.9571 O.3      1 ZINC000003872668   -0.3500
20     C20    -2.4361    6.4532  -12.2338 C.3      1 ZINC000003872668    0.0900
21     C21    -3.4213    5.8653  -13.2110 C.2      1 ZINC000003872668   -0.1700
22     C22    -3.0283    5.5280  -14.4143 C.2      1 ZINC000003872668   -0.1000
23     C23    -1.5735    5.6407  -14.7912 C.3      1 ZINC000003872668   -0.1300
24     C24    -4.0310    5.0272  -15.4217 C.3      1 ZINC000003872668   -0.0800
25     C25    -4.4994    6.1913  -16.2971 C.3      1 ZINC000003872668   -0.0900
26     C26    -5.5021    5.6905  -17.3045 C.2      1 ZINC000003872668   -0.1700
27     C27    -6.6852    6.2473  -17.3835 C.2      1 ZINC000003872668   -0.1300
28     C28    -7.0923    7.2973  -16.3820 C.3      1 ZINC000003872668   -0.1200
29     C29    -7.6392    5.8380  -18.4759 C.3      1 ZINC000003872668   -0.1200
30     H30    -1.6769    3.1923    2.3208 H        1 ZINC000003872668    0.0600
31     H31    -0.8180    2.9333    0.7834 H        1 ZINC000003872668    0.0700
32     H32    -2.5584    3.3063    0.7786 H        1 ZINC000003872668    0.0700
33     H33    -3.1213    0.6687    3.1270 H        1 ZINC000003872668    0.0700
34     H34    -1.8238   -0.4249    2.5895 H        1 ZINC000003872668    0.0600
35     H35    -1.4180    1.1059    3.4020 H        1 ZINC000003872668    0.0600
36     H36    -2.6273   -0.3882    0.3415 H        1 ZINC000003872668    0.1100
37     H37    -3.1425    1.3790   -1.5420 H        1 ZINC000003872668    0.0700
38     H38    -1.7642    2.3174   -0.9193 H        1 ZINC000003872668    0.0700
39     H39    -0.2425    0.4317   -1.4458 H        1 ZINC000003872668    0.0700
40     H40    -1.6209   -0.5067   -2.0685 H        1 ZINC000003872668    0.0700
41     H41    -2.7715    0.1327   -4.0338 H        1 ZINC000003872668    0.0600
42     H42    -2.6107    1.8144   -4.5945 H        1 ZINC000003872668    0.0700
43     H43    -1.5487    0.5495   -5.2583 H        1 ZINC000003872668    0.0700
44     H44     0.7007    2.1083   -2.7372 H        1 ZINC000003872668    0.1100
45     H45     0.8981    2.4060   -5.3465 H        1 ZINC000003872668    0.0700
46     H46    -0.8753    2.5555   -5.3775 H        1 ZINC000003872668    0.0700
47     H47    -0.7306    4.5701   -3.9390 H        1 ZINC000003872668    0.0700
48     H48     1.0428    4.4207   -3.9080 H        1 ZINC000003872668    0.0700
49     H49     2.3252    4.6106   -5.9373 H        1 ZINC000003872668    0.0600
50     H50     1.4970    4.7940   -7.5021 H        1 ZINC000003872668    0.0700
51     H51     1.8281    6.2254   -6.4972 H        1 ZINC000003872668    0.0700
52     H52    -1.7910    5.4528   -5.8009 H        1 ZINC000003872668    0.1100
53     H53    -1.0062    7.2282   -7.5804 H        1 ZINC000003872668    0.0800
54     H54     0.2158    6.0424   -8.0988 H        1 ZINC000003872668    0.0800
55     H55    -1.5865    4.4568   -8.7203 H        1 ZINC000003872668    0.1100
56     H56    -2.8085    5.6426   -8.2019 H        1 ZINC000003872668    0.1100
57     H57    -2.6461    7.5145  -12.1004 H        1 ZINC000003872668    0.0800
58     H58    -1.4240    6.3286  -12.6188 H        1 ZINC000003872668    0.0800
59     H59    -4.4512    5.7220  -12.9193 H        1 ZINC000003872668    0.1200
60     H60    -1.0460    4.7401  -14.4769 H        1 ZINC000003872668    0.0700
61     H61    -1.4859    5.7547  -15.8716 H        1 ZINC000003872668    0.0700
62     H62    -1.1366    6.5087  -14.2976 H        1 ZINC000003872668    0.0700
63     H63    -3.5672    4.2652  -16.0481 H        1 ZINC000003872668    0.0700
64     H64    -4.8864    4.5976  -14.9003 H        1 ZINC000003872668    0.0700
65     H65    -4.9632    6.9533  -15.6707 H        1 ZINC000003872668    0.0700
66     H66    -3.6440    6.6209  -16.8186 H        1 ZINC000003872668    0.0700
67     H67    -5.2453    4.8726  -17.9613 H        1 ZINC000003872668    0.1100
68     H68    -6.7245    8.2707  -16.7063 H        1 ZINC000003872668    0.0700
69     H69    -8.1793    7.3260  -16.3072 H        1 ZINC000003872668    0.0600
70     H70    -6.6674    7.0544  -15.4080 H        1 ZINC000003872668    0.0700
71     H71    -7.1731    5.0737  -19.0978 H        1 ZINC000003872668    0.0600
72     H72    -8.5508    5.4385  -18.0314 H        1 ZINC000003872668    0.0600
73     H73    -7.8838    6.7056  -19.0887 H        1 ZINC000003872668    0.0700
@<TRIPOS>BOND
1     1     2     1
2     1     30    1
3     1     31    1
4     1     32    1
5     2     3     1
6     2     4     2
7     3     33    1
8     3     34    1
9     3     35    1
10    4     5     1
11    4     36    1
12    5     6     1
13    5     37    1
14    5     38    1
15    6     7     1
16    6     39    1
17    6     40    1
18    7     8     1
19    7     9     2
20    8     41    1
21    8     42    1
22    8     43    1
23    9     10    1
24    9     44    1
25    10    11    1
26    10    45    1
27    10    46    1
28    11    12    1
29    11    47    1
30    11    48    1
31    12    13    1
32    12    14    2
33    13    49    1
34    13    50    1
35    13    51    1
36    14    15    1
37    14    52    1
38    15    16    1
39    15    53    1
40    15    54    1
41    16    17    1
42    16    55    1
43    16    56    1
44    17    18    2
45    17    19    1
46    19    20    1
47    20    21    1
48    20    57    1
49    20    58    1
50    21    22    2
51    21    59    1
52    22    23    1
53    22    24    1
54    23    60    1
55    23    61    1
56    23    62    1
57    24    25    1
58    24    63    1
59    24    64    1
60    25    26    1
61    25    65    1
62    25    66    1
63    26    27    2
64    26    67    1
65    27    28    1
66    27    29    1
67    28    68    1
68    28    69    1
69    28    70    1
70    29    71    1
71    29    72    1
72    29    73    1
@<TRIPOS>SUBSTRUCTURE
1   ZINC000003872668 1     RESIDUE    1   A     ZIN   1
