@<TRIPOS>MOLECULE
ZINC000006716459
63    66    1     0     0
SMALL
USER_CHARGES
@<TRIPOS>ATOM
1      C1      0.4871    0.7841   -0.4973 C.3      1 ZINC000006716459   -0.1500
2      C2      0.2960   -0.7097   -0.2270 C.3      1 ZINC000006716459   -0.1200
3      C3     -1.1762   -1.0217   -0.1486 C.2      1 ZINC000006716459    0.4500
4      O4     -1.9893   -0.1398   -0.2939 O.2      1 ZINC000006716459   -0.4900
5      O5     -1.5844   -2.2793    0.0828 O.3      1 ZINC000006716459   -0.3400
6      C6     -3.0106   -2.4877    0.2583 C.3      1 ZINC000006716459    0.1000
7      C7     -3.7496   -2.1254   -1.0041 C.2      1 ZINC000006716459    0.3600
8      O8     -4.8611   -1.6575   -0.9399 O.2      1 ZINC000006716459   -0.4100
9      C9     -3.1017   -2.3470   -2.3465 C.3      1 ZINC000006716459    0.0300
10     O10    -4.0388   -2.0475   -3.3830 O.3      1 ZINC000006716459   -0.5500
11     C11    -3.5335   -1.6461    1.4489 C.3      1 ZINC000006716459   -0.1300
12     C12    -4.0210   -2.6591    2.5206 C.3      1 ZINC000006716459   -0.1200
13     C13    -3.2209   -3.9230    2.1869 C.3      1 ZINC000006716459   -0.0800
14     H14    -2.1887   -3.8177    2.5210 H        1 ZINC000006716459    0.0800
15     C15    -3.8082   -5.2284    2.6922 C.3      1 ZINC000006716459   -0.0800
16     H16    -4.8212   -5.3539    2.3098 H        1 ZINC000006716459    0.0900
17     C17    -3.8229   -5.2306    4.2235 C.3      1 ZINC000006716459   -0.1100
18     C18    -4.4812   -6.5207    4.7172 C.3      1 ZINC000006716459   -0.1000
19     C19    -3.7509   -7.7050    4.1109 C.2      1 ZINC000006716459   -0.0200
20     C20    -3.3854   -8.6919    4.9288 C.2      1 ZINC000006716459   -0.2400
21     C21    -2.6908   -9.8687    4.3953 C.2      1 ZINC000006716459    0.3900
22     O22    -2.0180  -10.5886    5.1032 O.2      1 ZINC000006716459   -0.4600
23     C23    -2.8584  -10.1381    2.9127 C.3      1 ZINC000006716459   -0.1700
24     C24    -2.5721   -8.8310    2.1752 C.3      1 ZINC000006716459   -0.1000
25     C25    -3.4909   -7.7128    2.6361 C.3      1 ZINC000006716459   -0.0300
26     C26    -4.8325   -7.8766    1.9190 C.3      1 ZINC000006716459   -0.1500
27     C27    -2.9110   -6.3671    2.1858 C.3      1 ZINC000006716459   -0.0700
28     H28    -1.9236   -6.2401    2.6298 H        1 ZINC000006716459    0.0700
29     C29    -2.7759   -6.3649    0.6659 C.3      1 ZINC000006716459   -0.1200
30     C30    -2.3134   -4.9978    0.1378 C.3      1 ZINC000006716459   -0.1000
31     C31    -3.2900   -3.9387    0.6363 C.3      1 ZINC000006716459   -0.0500
32     C32    -4.7173   -4.3221    0.2401 C.3      1 ZINC000006716459   -0.1600
33     H33     1.5520    1.0097   -0.5541 H        1 ZINC000006716459    0.0700
34     H34     0.0093    1.0466   -1.4412 H        1 ZINC000006716459    0.0600
35     H35     0.0362    1.3601    0.3107 H        1 ZINC000006716459    0.0700
36     H36     0.7469   -1.2857   -1.0351 H        1 ZINC000006716459    0.1100
37     H37     0.7739   -0.9722    0.7168 H        1 ZINC000006716459    0.1100
38     H38    -2.2331   -1.6955   -2.4427 H        1 ZINC000006716459    0.0700
39     H39    -2.7868   -3.3871   -2.4308 H        1 ZINC000006716459    0.0800
40     H40    -3.6890   -2.1683   -4.2764 H        1 ZINC000006716459    0.3900
41     H41    -2.7298   -1.0310    1.8538 H        1 ZINC000006716459    0.0800
42     H42    -4.3617   -1.0154    1.1261 H        1 ZINC000006716459    0.0900
43     H43    -3.7820   -2.3048    3.5233 H        1 ZINC000006716459    0.0800
44     H44    -5.0908   -2.8421    2.4199 H        1 ZINC000006716459    0.0800
45     H45    -2.8005   -5.1770    4.5977 H        1 ZINC000006716459    0.0700
46     H46    -4.3892   -4.3717    4.5837 H        1 ZINC000006716459    0.0700
47     H47    -4.4183   -6.5702    5.8042 H        1 ZINC000006716459    0.0800
48     H48    -5.5264   -6.5389    4.4084 H        1 ZINC000006716459    0.0800
49     H49    -3.6011   -8.6254    5.9849 H        1 ZINC000006716459    0.1300
50     H50    -2.1533  -10.9056    2.5937 H        1 ZINC000006716459    0.0900
51     H51    -3.8786  -10.4631    2.7083 H        1 ZINC000006716459    0.1000
52     H52    -1.5377   -8.5394    2.3573 H        1 ZINC000006716459    0.0700
53     H53    -2.7126   -8.9882    1.1058 H        1 ZINC000006716459    0.0800
54     H54    -5.3256   -8.7818    2.2731 H        1 ZINC000006716459    0.0600
55     H55    -5.4640   -7.0132    2.1283 H        1 ZINC000006716459    0.0600
56     H56    -4.6635   -7.9513    0.8448 H        1 ZINC000006716459    0.0700
57     H57    -2.0500   -7.1233    0.3725 H        1 ZINC000006716459    0.0700
58     H58    -3.7415   -6.6089    0.2229 H        1 ZINC000006716459    0.0700
59     H59    -1.3273   -4.7599    0.5368 H        1 ZINC000006716459    0.0800
60     H60    -2.2806   -5.0122   -0.9516 H        1 ZINC000006716459    0.0700
61     H61    -4.9383   -5.3255    0.6041 H        1 ZINC000006716459    0.0800
62     H62    -5.4191   -3.6134    0.6797 H        1 ZINC000006716459    0.0700
63     H63    -4.8112   -4.3006   -0.8456 H        1 ZINC000006716459    0.0600
@<TRIPOS>BOND
1     1     2     1
2     1     33    1
3     1     34    1
4     1     35    1
5     2     3     1
6     2     36    1
7     2     37    1
8     3     4     2
9     3     5     1
10    5     6     1
11    6     31    1
12    6     7     1
13    6     11    1
14    7     8     2
15    7     9     1
16    9     10    1
17    9     38    1
18    9     39    1
19    10    40    1
20    11    12    1
21    11    41    1
22    11    42    1
23    12    13    1
24    12    43    1
25    12    44    1
26    13    14    1
27    13    31    1
28    13    15    1
29    15    16    1
30    15    27    1
31    15    17    1
32    17    18    1
33    17    45    1
34    17    46    1
35    18    19    1
36    18    47    1
37    18    48    1
38    19    25    1
39    19    20    2
40    20    21    1
41    20    49    1
42    21    22    2
43    21    23    1
44    23    24    1
45    23    50    1
46    23    51    1
47    24    25    1
48    24    52    1
49    24    53    1
50    25    26    1
51    25    27    1
52    26    54    1
53    26    55    1
54    26    56    1
55    27    28    1
56    27    29    1
57    29    30    1
58    29    57    1
59    29    58    1
60    30    31    1
61    30    59    1
62    30    60    1
63    31    32    1
64    32    61    1
65    32    62    1
66    32    63    1
@<TRIPOS>SUBSTRUCTURE
1   ZINC000006716459 1     RESIDUE    1   A     ZIN   1
