@<TRIPOS>MOLECULE
ZINC000117445039
57    61    1     0     0
SMALL
USER_CHARGES
@<TRIPOS>ATOM
1      C1     -1.7872   -7.2583   -8.5137 C.3      1 ZINC000117445039   -0.0800
2      C2     -1.2087   -6.7509   -7.2180 C.2      1 ZINC000117445039    0.2900
3      N3     -1.5761   -7.1439   -6.0339 N.2      1 ZINC000117445039   -0.4900
4      C4     -0.8523   -6.4858   -5.0911 C.ar     1 ZINC000117445039    0.0400
5      C5     -0.8357   -6.5184   -3.6979 C.ar     1 ZINC000117445039   -0.0300
6      C6      0.0481   -5.6978   -3.0035 C.ar     1 ZINC000117445039   -0.1400
7      C7      0.0733   -5.7257   -1.5272 C.2      1 ZINC000117445039    0.5700
8      O8      0.1691   -4.6879   -0.9012 O.2      1 ZINC000117445039   -0.5300
9      N9     -0.0099   -6.9015   -0.8739 N.am     1 ZINC000117445039   -0.6100
10     C10    -0.1210   -6.9384    0.5908 C.3      1 ZINC000117445039    0.1100
11     C11     0.9820   -7.8446    1.1462 C.3      1 ZINC000117445039   -0.1200
12     C12     0.8942   -9.2185    0.4760 C.3      1 ZINC000117445039   -0.0500
13     C13     1.1094   -9.0643   -1.0318 C.3      1 ZINC000117445039   -0.1300
14     C14     0.0026   -8.1715   -1.6128 C.3      1 ZINC000117445039    0.0900
15     C15     1.9863  -10.1285    1.0508 C.3      1 ZINC000117445039   -0.0400
16     C16     1.7836  -11.5258    0.5402 C.2      1 ZINC000117445039   -0.1400
17     C17     0.5723  -11.9911    0.0284 C.2      1 ZINC000117445039   -0.0900
18     C18    -0.6080  -11.1237   -0.0395 C.2      1 ZINC000117445039    0.4400
19     O19    -1.6036  -11.4269   -0.6637 O.2      1 ZINC000117445039   -0.4500
20     C20    -0.4937   -9.8160    0.7299 C.3      1 ZINC000117445039   -0.1500
21     N21     0.7714  -13.2782   -0.3302 N.pl3    1 ZINC000117445039   -0.2400
22     C22    -0.2375  -14.1610   -0.9207 C.3      1 ZINC000117445039    0.1300
23     C23     0.2386  -14.6311   -2.2966 C.3      1 ZINC000117445039   -0.1600
24     C24    -0.4485  -15.3739   -0.0122 C.3      1 ZINC000117445039   -0.1600
25     N25     1.9927  -13.6063   -0.0695 N.2      1 ZINC000117445039   -0.2700
26     C26     2.6528  -12.5968    0.4549 C.2      1 ZINC000117445039    0.0000
27     C27     0.9142   -4.8456   -3.7009 C.ar     1 ZINC000117445039   -0.0500
28     C28     0.9007   -4.8110   -5.0651 C.ar     1 ZINC000117445039   -0.1100
29     C29     0.0246   -5.6238   -5.7755 C.ar     1 ZINC000117445039    0.0700
30     N30    -0.2218   -5.8192   -7.1171 N.pl3    1 ZINC000117445039   -0.6000
31     H31    -1.2201   -8.1265   -8.8495 H        1 ZINC000117445039    0.0900
32     H32    -2.8285   -7.5416   -8.3605 H        1 ZINC000117445039    0.1000
33     H33    -1.7314   -6.4738   -9.2684 H        1 ZINC000117445039    0.0800
34     H34    -1.5040   -7.1754   -3.1611 H        1 ZINC000117445039    0.1400
35     H35    -0.0032   -5.9317    0.9916 H        1 ZINC000117445039    0.1000
36     H36    -1.0963   -7.3346    0.8734 H        1 ZINC000117445039    0.0700
37     H37     1.9558   -7.4007    0.9398 H        1 ZINC000117445039    0.0800
38     H38     0.8533   -7.9562    2.2228 H        1 ZINC000117445039    0.0800
39     H39     2.0822   -8.6082   -1.2157 H        1 ZINC000117445039    0.0800
40     H40     1.0712  -10.0446   -1.5068 H        1 ZINC000117445039    0.0700
41     H41    -0.9611   -8.6701   -1.5093 H        1 ZINC000117445039    0.0700
42     H42     0.2048   -7.9778   -2.6663 H        1 ZINC000117445039    0.1000
43     H43     2.9651   -9.7649    0.7381 H        1 ZINC000117445039    0.0900
44     H44     1.9266  -10.1262    2.1392 H        1 ZINC000117445039    0.0900
45     H45    -0.6212  -10.0062    1.7956 H        1 ZINC000117445039    0.1100
46     H46    -1.2595   -9.1208    0.3857 H        1 ZINC000117445039    0.1000
47     H47    -1.1772  -13.6189   -1.0271 H        1 ZINC000117445039    0.1200
48     H48     1.1783  -15.1732   -2.1903 H        1 ZINC000117445039    0.0700
49     H49    -0.5121  -15.2880   -2.7360 H        1 ZINC000117445039    0.0800
50     H50     0.3889  -13.7670   -2.9439 H        1 ZINC000117445039    0.0600
51     H51    -0.7877  -15.0390    0.9680 H        1 ZINC000117445039    0.0600
52     H52    -1.1992  -16.0308   -0.4516 H        1 ZINC000117445039    0.0800
53     H53     0.4912  -15.9160    0.0941 H        1 ZINC000117445039    0.0700
54     H54     3.6877  -12.6037    0.7637 H        1 ZINC000117445039    0.1900
55     H55     1.5970   -4.2114   -3.1551 H        1 ZINC000117445039    0.1400
56     H56     1.5719   -4.1506   -5.5940 H        1 ZINC000117445039    0.1300
57     H57     0.2244   -5.3732   -7.8539 H        1 ZINC000117445039    0.4300
@<TRIPOS>BOND
1     1     2     1
2     1     31    1
3     1     32    1
4     1     33    1
5     2     30    1
6     2     3     2
7     3     4     1
8     4     29    ar
9     4     5     ar
10    5     6     ar
11    5     34    1
12    6     7     1
13    6     27    ar
14    7     8     2
15    7     9     am
16    9     14    1
17    9     10    1
18    10    11    1
19    10    35    1
20    10    36    1
21    11    12    1
22    11    37    1
23    11    38    1
24    12    20    1
25    12    13    1
26    12    15    1
27    13    14    1
28    13    39    1
29    13    40    1
30    14    41    1
31    14    42    1
32    15    16    1
33    15    43    1
34    15    44    1
35    16    26    1
36    16    17    2
37    17    18    1
38    17    21    1
39    18    19    2
40    18    20    1
41    20    45    1
42    20    46    1
43    21    22    1
44    21    25    1
45    22    23    1
46    22    24    1
47    22    47    1
48    23    48    1
49    23    49    1
50    23    50    1
51    24    51    1
52    24    52    1
53    24    53    1
54    25    26    2
55    26    54    1
56    27    28    ar
57    27    55    1
58    28    29    ar
59    28    56    1
60    29    30    1
61    30    57    1
@<TRIPOS>SUBSTRUCTURE
1   ZINC000117445039 1     RESIDUE    1   A     ZIN   1
