@<TRIPOS>MOLECULE
ZINC000003777432
34    36    1     0     0
SMALL
USER_CHARGES
@<TRIPOS>ATOM
1      C1     -0.0184    1.5028    0.0103 C.3      1 ZINC000003777432   -0.1200
2      C2      0.0021   -0.0041    0.0020 C.ar     1 ZINC000003777432   -0.0300
3      C3      0.0056   -0.6825   -1.2074 C.ar     1 ZINC000003777432   -0.1600
4      C4      0.0211   -2.0607   -1.2272 C.ar     1 ZINC000003777432   -0.0300
5      C5      0.0328   -2.7656   -0.0253 C.ar     1 ZINC000003777432   -0.2300
6      C6      0.0322   -4.2442   -0.0079 C.2      1 ZINC000003777432    0.4500
7      O7      0.2557   -4.9028   -1.0067 O.2      1 ZINC000003777432   -0.4600
8      C8     -0.2566   -4.8725    1.2992 C.ar     1 ZINC000003777432   -0.2300
9      C9     -0.5465   -6.2321    1.3950 C.ar     1 ZINC000003777432   -0.0500
10     C10    -0.8160   -6.7849    2.6287 C.ar     1 ZINC000003777432   -0.1500
11     C11    -0.7987   -5.9911    3.7655 C.ar     1 ZINC000003777432   -0.0600
12     C12    -0.5116   -4.6453    3.6822 C.ar     1 ZINC000003777432   -0.0400
13     C13    -0.4982   -3.8005    4.9300 C.3      1 ZINC000003777432   -0.1600
14     C14    -1.8402   -3.1368    5.1018 C.2      1 ZINC000003777432    0.5000
15     O15    -2.7255   -3.3317    4.2865 O.co2    1 ZINC000003777432   -0.6900
16     O16    -2.0406   -2.4049    6.0561 O.co2    1 ZINC000003777432   -0.7000
17     C17    -0.2342   -4.0656    2.4481 C.ar     1 ZINC000003777432    0.1600
18     O18     0.0572   -2.7520    2.3713 O.3      1 ZINC000003777432   -0.2100
19     C19     0.0361   -2.0828    1.2017 C.ar     1 ZINC000003777432    0.1800
20     C20     0.0228   -0.6915    1.1968 C.ar     1 ZINC000003777432   -0.1100
21     C21     0.0248    0.0653    2.5000 C.3      1 ZINC000003777432   -0.1200
22     H22     1.0042    1.8801    0.0026 H        1 ZINC000003777432    0.0800
23     H23    -0.5455    1.8639   -0.8728 H        1 ZINC000003777432    0.0700
24     H24    -0.5286    1.8543    0.9071 H        1 ZINC000003777432    0.0800
25     H25    -0.0041   -0.1301   -2.1353 H        1 ZINC000003777432    0.1300
26     H26     0.0236   -2.5908   -2.1682 H        1 ZINC000003777432    0.1400
27     H27    -0.5602   -6.8487    0.5084 H        1 ZINC000003777432    0.1300
28     H28    -1.0414   -7.8380    2.7099 H        1 ZINC000003777432    0.1300
29     H29    -1.0131   -6.4323    4.7277 H        1 ZINC000003777432    0.1300
30     H30    -0.2919   -4.4320    5.7942 H        1 ZINC000003777432    0.0700
31     H31     0.2760   -3.0380    4.8442 H        1 ZINC000003777432    0.0800
32     H32     1.0528    0.2576    2.8069 H        1 ZINC000003777432    0.0700
33     H33    -0.4991    1.0124    2.3710 H        1 ZINC000003777432    0.0700
34     H34    -0.4780   -0.5268    3.2647 H        1 ZINC000003777432    0.0800
@<TRIPOS>BOND
1     1     2     1
2     1     22    1
3     1     23    1
4     1     24    1
5     2     20    ar
6     2     3     ar
7     3     4     ar
8     3     25    1
9     4     5     ar
10    4     26    1
11    5     19    ar
12    5     6     1
13    6     7     2
14    6     8     1
15    8     17    ar
16    8     9     ar
17    9     10    ar
18    9     27    1
19    10    11    ar
20    10    28    1
21    11    12    ar
22    11    29    1
23    12    13    1
24    12    17    ar
25    13    14    1
26    13    30    1
27    13    31    1
28    14    15    ar
29    14    16    ar
30    17    18    1
31    18    19    1
32    19    20    ar
33    20    21    1
34    21    32    1
35    21    33    1
36    21    34    1
@<TRIPOS>SUBSTRUCTURE
1   ZINC000003777432 1     RESIDUE    1   A     ZIN   1
