@<TRIPOS>MOLECULE
ZINC000001550218
49    52    1     0     0
SMALL
USER_CHARGES
@<TRIPOS>ATOM
1      N1     -0.0160    1.3280    0.0093 N.pl3    1 ZINC000001550218   -0.7700
2      C2      0.0021   -0.0041    0.0020 C.cat    1 ZINC000001550218    0.6100
3      N3      1.1647   -0.6544   -0.0126 N.pl3    1 ZINC000001550218   -0.7700
4      H4      1.9980   -0.1580   -0.0179 H        1 ZINC000001550218    0.4200
5      H5      1.1778   -1.6243   -0.0179 H        1 ZINC000001550218    0.4400
6      C6     -1.2677   -0.7604    0.0101 C.ar     1 ZINC000001550218   -0.2100
7      C7     -2.4025   -0.2162    0.6257 C.ar     1 ZINC000001550218   -0.0800
8      C8     -3.5820   -0.9013    0.6419 C.ar     1 ZINC000001550218   -0.1100
9      C9     -3.6735   -2.1557    0.0436 C.ar     1 ZINC000001550218    0.1300
10     N10    -4.7030   -3.0574   -0.0929 N.pl3    1 ZINC000001550218   -0.5700
11     C11    -4.2655   -4.1670   -0.7790 C.2      1 ZINC000001550218    0.2300
12     C12    -5.0952   -5.3438   -1.1139 C.ar     1 ZINC000001550218   -0.2400
13     C13    -6.0142   -5.8387   -0.1881 C.ar     1 ZINC000001550218   -0.0200
14     C14    -6.7894   -6.9382   -0.4998 C.ar     1 ZINC000001550218   -0.1500
15     C15    -7.7791   -7.4663    0.5064 C.3      1 ZINC000001550218   -0.1400
16     C16    -9.1091   -6.7859    0.3076 C.2      1 ZINC000001550218    0.4900
17     O17    -9.2409   -5.9497   -0.5698 O.co2    1 ZINC000001550218   -0.6900
18     O18   -10.0532   -7.0717    1.0242 O.co2    1 ZINC000001550218   -0.7200
19     C19    -6.6632   -7.5565   -1.7285 C.ar     1 ZINC000001550218   -0.0100
20     C20    -5.7506   -7.0754   -2.6656 C.ar     1 ZINC000001550218   -0.2300
21     C21    -5.6177   -7.7419   -3.9842 C.ar     1 ZINC000001550218    0.0400
22     C22    -5.6530   -6.9880   -5.1555 C.ar     1 ZINC000001550218   -0.0400
23     C23    -5.5284   -7.6134   -6.3797 C.ar     1 ZINC000001550218   -0.1200
24     C24    -5.3688   -8.9856   -6.4451 C.ar     1 ZINC000001550218   -0.0900
25     C25    -5.3331   -9.7391   -5.2853 C.ar     1 ZINC000001550218   -0.0500
26     N26    -5.1620  -11.2073   -5.3633 N.pl3    1 ZINC000001550218    0.0400
27     O27    -5.0528  -11.7510   -6.4477 O.2      1 ZINC000001550218   -0.1800
28     O28    -5.1304  -11.8718   -4.3430 O.2      1 ZINC000001550218   -0.1700
29     C29    -5.4514   -9.1239   -4.0558 C.ar     1 ZINC000001550218   -0.0700
30     C30    -4.9656   -5.9615   -2.3623 C.ar     1 ZINC000001550218    0.3200
31     O31    -4.0746   -5.4865   -3.2700 O.3      1 ZINC000001550218   -0.7100
32     C32    -2.9570   -4.0158   -1.1013 C.2      1 ZINC000001550218   -0.1900
33     C33    -2.5390   -2.7146   -0.5797 C.ar     1 ZINC000001550218   -0.1000
34     C34    -1.3364   -2.0093   -0.5985 C.ar     1 ZINC000001550218    0.0000
35     H35     0.8174    1.8244    0.0041 H        1 ZINC000001550218    0.4200
36     H36    -0.8625    1.8015    0.0159 H        1 ZINC000001550218    0.4400
37     H37    -2.3427    0.7558    1.0926 H        1 ZINC000001550218    0.1300
38     H38    -4.4483   -0.4694    1.1208 H        1 ZINC000001550218    0.1300
39     H39    -5.6035   -2.9301    0.2445 H        1 ZINC000001550218    0.4200
40     H40    -6.1194   -5.3609    0.7747 H        1 ZINC000001550218    0.0900
41     H41    -7.8971   -8.5413    0.3703 H        1 ZINC000001550218    0.0600
42     H42    -7.4152   -7.2654    1.5140 H        1 ZINC000001550218    0.0500
43     H43    -7.2736   -8.4159   -1.9637 H        1 ZINC000001550218    0.1000
44     H44    -5.7779   -5.9164   -5.1056 H        1 ZINC000001550218    0.1400
45     H45    -5.5559   -7.0301   -7.2882 H        1 ZINC000001550218    0.1400
46     H46    -5.2721   -9.4709   -7.4051 H        1 ZINC000001550218    0.1400
47     H47    -5.4234   -9.7131   -3.1511 H        1 ZINC000001550218    0.1500
48     H48    -2.3413   -4.7211   -1.6396 H        1 ZINC000001550218    0.1600
49     H49    -0.4653   -2.4302   -1.0786 H        1 ZINC000001550218    0.1300
@<TRIPOS>BOND
1     1     2     ar
2     1     35    1
3     1     36    1
4     2     3     ar
5     2     6     1
6     3     4     1
7     3     5     1
8     6     34    ar
9     6     7     ar
10    7     8     ar
11    7     37    1
12    8     9     ar
13    8     38    1
14    9     33    ar
15    9     10    1
16    10    11    1
17    10    39    1
18    11    12    1
19    11    32    2
20    12    30    ar
21    12    13    ar
22    13    14    ar
23    13    40    1
24    14    15    1
25    14    19    ar
26    15    16    1
27    15    41    1
28    15    42    1
29    16    17    ar
30    16    18    ar
31    19    20    ar
32    19    43    1
33    20    21    1
34    20    30    ar
35    21    29    ar
36    21    22    ar
37    22    23    ar
38    22    44    1
39    23    24    ar
40    23    45    1
41    24    25    ar
42    24    46    1
43    25    26    1
44    25    29    ar
45    26    27    2
46    26    28    2
47    29    47    1
48    30    31    1
49    32    33    1
50    32    48    1
51    33    34    ar
52    34    49    1
@<TRIPOS>SUBSTRUCTURE
1   ZINC000001550218 1     RESIDUE    1   A     ZIN   1
