@<TRIPOS>MOLECULE
ZINC000019168901
  29   29    0    0    0
SMALL
USER_CHARGES
NO_NAME
@<TRIPOS>ATOM
    1 C1       -0.0187     1.5258     0.0104 C.3    1 <0>      -0.1500
    2 C2        0.0021    -0.0041     0.0020 C.3    1 <0>       0.0500
    3 C3        0.7421    -0.5109     1.2415 C.3    1 <0>      -0.0500
    4 C4        0.0367    -0.0249     2.4814 C.ar   1 <0>      -0.0500
    5 C5        0.3883     1.1874     3.0443 C.ar   1 <0>      -0.1100
    6 C6       -0.2557     1.6376     4.1823 C.ar   1 <0>      -0.1500
    7 C7       -1.2559     0.8731     4.7603 C.ar   1 <0>       0.0700
    8 O8       -1.8904     1.3146     5.8792 O.3    1 <0>      -0.5000
    9 C9       -1.6103    -0.3476     4.1932 C.ar   1 <0>       0.0700
   10 O10      -2.5919    -1.1015     4.7567 O.3    1 <0>      -0.5000
   11 C11      -0.9648    -0.7903     3.0502 C.ar   1 <0>      -0.0400
   12 N12       0.6897    -0.4778    -1.2066 N.3    1 <0>      -0.5100
   13 N13       0.0126    -0.0141    -2.4069 N.3    1 <0>      -0.7000
   14 C14      -1.4117    -0.5257     0.0127 C.2    1 <0>       0.5100
   15 O15      -1.8097    -1.2271    -0.9017 O.co2  1 <0>      -0.6900
   16 O16      -2.1576    -0.2463     0.9358 O.co2  1 <0>      -0.6800
   17 H17       1.0039     1.9031     0.0027 H      1 <0>       0.0300
   18 H18      -0.5459     1.8868    -0.8726 H      1 <0>       0.0500
   19 H19      -0.5289     1.8773     0.9072 H      1 <0>       0.0600
   20 H20       0.7568    -1.6008     1.2356 H      1 <0>       0.0700
   21 H21       1.7647    -0.1336     1.2338 H      1 <0>       0.0600
   22 H22       1.1679     1.7844     2.5946 H      1 <0>       0.1200
   23 H23       0.0215     2.5849     4.6205 H      1 <0>       0.1200
   24 H24      -2.6757     1.8499     5.7006 H      1 <0>       0.3800
   25 H25      -3.4773    -0.9116     4.4175 H      1 <0>       0.3800
   26 H26      -1.2379    -1.7371     2.6082 H      1 <0>       0.1300
   27 H27       1.6583    -0.1952    -1.2058 H      1 <0>       0.3200
   28 H28       0.4848    -0.3395    -3.2370 H      1 <0>       0.3300
   29 H29      -0.9560    -0.2967    -2.4077 H      1 <0>       0.3700
@<TRIPOS>BOND
   1    1    2 1
   2    1   17 1
   3    1   18 1
   4    1   19 1
   5    2    3 1
   6    2   12 1
   7    2   14 1
   8    3    4 1
   9    3   20 1
  10    3   21 1
  11    4   11 ar
  12    4    5 ar
  13    5    6 ar
  14    5   22 1
  15    6    7 ar
  16    6   23 1
  17    7    8 1
  18    7    9 ar
  19    8   24 1
  20    9   10 1
  21    9   11 ar
  22   10   25 1
  23   11   26 1
  24   12   13 1
  25   12   27 1
  26   13   28 1
  27   13   29 1
  28   14   15 ar
  29   14   16 ar
