@<TRIPOS>MOLECULE
ZINC000001887263
40    41    1     0     0
SMALL
USER_CHARGES
@<TRIPOS>ATOM
1      C1     -0.0187    1.5258    0.0104 C.3      1 ZINC000001887263   -0.1900
2      C2      0.0021   -0.0041    0.0020 C.3      1 ZINC000001887263    0.1000
3      H3     -1.0205   -0.3814    0.0098 H        1 ZINC000001887263    0.0600
4      O4      0.6709   -0.4649   -1.1737 O.3      1 ZINC000001887263   -0.5700
5      C5      0.7421   -0.5109    1.2415 C.3      1 ZINC000001887263   -0.1100
6      C6      0.6554   -2.0374    1.2986 C.3      1 ZINC000001887263   -0.1100
7      C7      1.3954   -2.5442    2.5382 C.3      1 ZINC000001887263   -0.1300
8      C8      1.3088   -4.0707    2.5952 C.3      1 ZINC000001887263    0.1200
9      N9      2.0173   -4.5560    3.7821 N.am     1 ZINC000001887263   -0.5500
10     C10     3.3314   -4.8505    3.6974 C.2      1 ZINC000001887263    0.5900
11     O11     3.9266   -4.7145    2.6435 O.2      1 ZINC000001887263   -0.5100
12     C12     4.0082   -5.3177    4.8446 C.2      1 ZINC000001887263   -0.1600
13     C13     3.3045   -5.4629    6.0336 C.2      1 ZINC000001887263    0.3200
14     N14     4.1648   -5.9132    6.9503 N.2      1 ZINC000001887263   -0.5000
15     C15     5.3497   -6.0569    6.4137 C.2      1 ZINC000001887263    0.2700
16     N16     5.3063   -5.7023    5.1146 N.pl3    1 ZINC000001887263   -0.4100
17     C17     6.4242   -5.7222    4.1679 C.3      1 ZINC000001887263    0.0700
18     N18     1.9564   -5.1436    6.0560 N.am     1 ZINC000001887263   -0.5100
19     C19     1.1913   -5.2873    7.2970 C.3      1 ZINC000001887263    0.0900
20     C20     1.3499   -4.6960    4.9404 C.2      1 ZINC000001887263    0.7100
21     O21     0.1661   -4.4208    4.9793 O.2      1 ZINC000001887263   -0.5300
22     H22     1.0039    1.9031    0.0027 H        1 ZINC000001887263    0.0600
23     H23    -0.5459    1.8868   -0.8726 H        1 ZINC000001887263    0.0600
24     H24    -0.5289    1.8773    0.9072 H        1 ZINC000001887263    0.0700
25     H25     0.2557   -0.1806   -1.9994 H        1 ZINC000001887263    0.3800
26     H26     1.7879   -0.2080    1.1895 H        1 ZINC000001887263    0.0700
27     H27     0.2852   -0.0874    2.1360 H        1 ZINC000001887263    0.0800
28     H28    -0.3904   -2.3402    1.3506 H        1 ZINC000001887263    0.0700
29     H29     1.1123   -2.4609    0.4042 H        1 ZINC000001887263    0.0700
30     H30     2.4412   -2.2414    2.4861 H        1 ZINC000001887263    0.0700
31     H31     0.9385   -2.1207    3.4326 H        1 ZINC000001887263    0.0700
32     H32     0.2630   -4.3736    2.6472 H        1 ZINC000001887263    0.1000
33     H33     1.7656   -4.4942    1.7008 H        1 ZINC000001887263    0.1000
34     H34     6.2295   -6.4063    6.9337 H        1 ZINC000001887263    0.2300
35     H35     6.4675   -6.6946    3.6773 H        1 ZINC000001887263    0.0900
36     H36     6.2800   -4.9434    3.4190 H        1 ZINC000001887263    0.1000
37     H37     7.3567   -5.5434    4.7031 H        1 ZINC000001887263    0.1000
38     H38     1.2350   -4.3554    7.8607 H        1 ZINC000001887263    0.0700
39     H39     0.1533   -5.5198    7.0591 H        1 ZINC000001887263    0.0900
40     H40     1.6165   -6.0937    7.8947 H        1 ZINC000001887263    0.0900
@<TRIPOS>BOND
1     1     2     1
2     1     22    1
3     1     23    1
4     1     24    1
5     2     3     1
6     2     4     1
7     2     5     1
8     4     25    1
9     5     6     1
10    5     26    1
11    5     27    1
12    6     7     1
13    6     28    1
14    6     29    1
15    7     8     1
16    7     30    1
17    7     31    1
18    8     9     1
19    8     32    1
20    8     33    1
21    9     20    am
22    9     10    am
23    10    11    2
24    10    12    1
25    12    16    1
26    12    13    2
27    13    14    1
28    13    18    1
29    14    15    2
30    15    16    1
31    15    34    1
32    16    17    1
33    17    35    1
34    17    36    1
35    17    37    1
36    18    19    1
37    18    20    am
38    19    38    1
39    19    39    1
40    19    40    1
41    20    21    2
@<TRIPOS>SUBSTRUCTURE
1   ZINC000001887263 1     RESIDUE    1   A     ZIN   1
