@<TRIPOS>MOLECULE
ZINC000038896576
55    57    1     0     0
SMALL
USER_CHARGES
@<TRIPOS>ATOM
1      C1     -0.2199    1.4183   -0.2300 C.3      1 ZINC000038896576    0.0200
2      O2     -0.1315   -0.0062   -0.1582 O.3      1 ZINC000038896576   -0.3000
3      C3     -1.3009   -0.6931   -0.0600 C.ar     1 ZINC000038896576    0.1400
4      C4     -2.5068   -0.0115   -0.0391 C.ar     1 ZINC000038896576   -0.1800
5      C5     -3.6950   -0.7115    0.0608 C.ar     1 ZINC000038896576   -0.1200
6      C6     -5.0058    0.0317    0.0834 C.3      1 ZINC000038896576    0.0500
7      N7     -5.5008    0.1934   -1.2902 N.4      1 ZINC000038896576   -0.5100
8      H8     -4.8276    0.7151   -1.8311 H        1 ZINC000038896576    0.4300
9      H9     -5.6364   -0.7151   -1.7079 H        1 ZINC000038896576    0.4300
10     C10    -6.7785    0.9179   -1.2682 C.3      1 ZINC000038896576   -0.0100
11     C11    -7.2941    1.0862   -2.6989 C.3      1 ZINC000038896576   -0.1400
12     C12    -8.6248    1.8408   -2.6759 C.3      1 ZINC000038896576   -0.0900
13     C13    -8.3961    3.2678   -2.1683 C.3      1 ZINC000038896576   -0.1600
14     C14    -9.7176    4.0386   -2.2232 C.3      1 ZINC000038896576    0.0600
15     O15   -10.2170    4.0303   -3.5621 O.3      1 ZINC000038896576   -0.3800
16     C16   -10.4943    2.7250   -4.0733 C.3      1 ZINC000038896576    0.0600
17     C17    -9.2040    1.9014   -4.0927 C.3      1 ZINC000038896576   -0.1500
18     C18    -3.6834   -2.0914    0.1396 C.ar     1 ZINC000038896576   -0.1200
19     C19    -2.4835   -2.7781    0.1198 C.ar     1 ZINC000038896576   -0.0700
20     C20    -1.2894   -2.0833    0.0140 C.ar     1 ZINC000038896576    0.0900
21     O21    -0.1084   -2.7569   -0.0056 O.3      1 ZINC000038896576   -0.2200
22     C22     0.5514   -2.9181    1.1664 C.ar     1 ZINC000038896576    0.2900
23     C23     1.7895   -3.5628    1.1869 C.ar     1 ZINC000038896576    0.0600
24     N24     2.4312   -3.7204    2.3244 N.ar     1 ZINC000038896576   -0.3700
25     C25     1.8997   -3.2644    3.4574 C.ar     1 ZINC000038896576   -0.0100
26     C26     2.6207   -3.4407    4.7366 C.2      1 ZINC000038896576    0.5900
27     N27     3.8160   -4.0631    4.7562 N.am     1 ZINC000038896576   -0.8300
28     O28     2.1352   -3.0244    5.7703 O.2      1 ZINC000038896576   -0.5300
29     C29     0.6632   -2.6201    3.4365 C.ar     1 ZINC000038896576    0.1600
30     N30     0.0231   -2.4585    2.2930 N.ar     1 ZINC000038896576   -0.4900
31     H31     0.7820    1.8411   -0.3052 H        1 ZINC000038896576    0.1100
32     H32    -0.8010    1.7025   -1.1073 H        1 ZINC000038896576    0.0600
33     H33    -0.7079    1.7978    0.6677 H        1 ZINC000038896576    0.0600
34     H34    -2.5187    1.0667   -0.1005 H        1 ZINC000038896576    0.1400
35     H35    -5.7331   -0.5319    0.6677 H        1 ZINC000038896576    0.1400
36     H36    -4.8593    1.0131    0.5346 H        1 ZINC000038896576    0.1400
37     H37    -7.5058    0.3542   -0.6839 H        1 ZINC000038896576    0.1300
38     H38    -6.6320    1.8992   -0.8170 H        1 ZINC000038896576    0.1300
39     H39    -6.5668    1.6499   -3.2832 H        1 ZINC000038896576    0.0900
40     H40    -7.4406    0.1049   -3.1501 H        1 ZINC000038896576    0.0900
41     H41    -9.3246    1.3260   -2.0177 H        1 ZINC000038896576    0.0800
42     H42    -8.0359    3.2352   -1.1400 H        1 ZINC000038896576    0.0700
43     H43    -7.6581    3.7646   -2.7981 H        1 ZINC000038896576    0.0800
44     H44   -10.4428    3.5645   -1.5618 H        1 ZINC000038896576    0.0500
45     H45    -9.5519    5.0674   -1.9034 H        1 ZINC000038896576    0.1000
46     H46   -11.2297    2.2337   -3.4361 H        1 ZINC000038896576    0.0500
47     H47   -10.8882    2.8075   -5.0863 H        1 ZINC000038896576    0.1000
48     H48    -8.4824    2.3706   -4.7615 H        1 ZINC000038896576    0.0800
49     H49    -9.4216    0.8916   -4.4408 H        1 ZINC000038896576    0.0800
50     H50    -4.6137   -2.6345    0.2172 H        1 ZINC000038896576    0.1400
51     H51    -2.4772   -3.8563    0.1822 H        1 ZINC000038896576    0.1500
52     H52     2.2207   -3.9326    0.2684 H        1 ZINC000038896576    0.1900
53     H53     4.2034   -4.3954    3.9313 H        1 ZINC000038896576    0.4100
54     H54     4.2888   -4.1788    5.5952 H        1 ZINC000038896576    0.4100
55     H55     0.2310   -2.2502    4.3546 H        1 ZINC000038896576    0.1900
@<TRIPOS>BOND
1     1     2     1
2     1     31    1
3     1     32    1
4     1     33    1
5     2     3     1
6     3     20    ar
7     3     4     ar
8     4     5     ar
9     4     34    1
10    5     6     1
11    5     18    ar
12    6     7     1
13    6     35    1
14    6     36    1
15    7     8     1
16    7     9     1
17    7     10    1
18    10    11    1
19    10    37    1
20    10    38    1
21    11    12    1
22    11    39    1
23    11    40    1
24    12    17    1
25    12    13    1
26    12    41    1
27    13    14    1
28    13    42    1
29    13    43    1
30    14    15    1
31    14    44    1
32    14    45    1
33    15    16    1
34    16    17    1
35    16    46    1
36    16    47    1
37    17    48    1
38    17    49    1
39    18    19    ar
40    18    50    1
41    19    20    ar
42    19    51    1
43    20    21    1
44    21    22    1
45    22    30    ar
46    22    23    ar
47    23    24    ar
48    23    52    1
49    24    25    ar
50    25    26    1
51    25    29    ar
52    26    27    am
53    26    28    2
54    27    53    1
55    27    54    1
56    29    30    ar
57    29    55    1
@<TRIPOS>SUBSTRUCTURE
1   ZINC000038896576 1     RESIDUE    1   A     ZIN   1
