@<TRIPOS>MOLECULE
ZINC000001844916
29    31    1     0     0
SMALL
USER_CHARGES
@<TRIPOS>ATOM
1      C1     -0.0184    1.5028    0.0103 C.3      1 ZINC000001844916   -0.1300
2      C2      0.0021   -0.0041    0.0020 C.ar     1 ZINC000001844916   -0.0700
3      C3      0.0057   -0.6887   -1.1989 C.ar     1 ZINC000001844916   -0.1100
4      C4      0.0245   -2.0709   -1.2065 C.ar     1 ZINC000001844916   -0.1000
5      C5      0.0400   -2.7685   -0.0132 C.ar     1 ZINC000001844916   -0.0700
6      C6      0.0600   -4.2753   -0.0215 C.3      1 ZINC000001844916   -0.1100
7      C7     -1.1840   -5.0483    0.4211 C.3      1 ZINC000001844916   -0.1200
8      C8      0.0777   -5.0949    1.2852 C.3      1 ZINC000001844916   -0.1800
9      H9      0.0765   -4.6152    2.2640 H        1 ZINC000001844916    0.1600
10     C10     1.0738   -6.2521    1.0570 C.3      1 ZINC000001844916    0.0300
11     N11     1.1047   -6.4342   -0.4170 N.4      1 ZINC000001844916   -0.5400
12     H12     1.9560   -6.8975   -0.6976 H        1 ZINC000001844916    0.4400
13     H13     0.2996   -6.9588   -0.7248 H        1 ZINC000001844916    0.4300
14     C14     1.0813   -4.9721   -0.9460 C.3      1 ZINC000001844916    0.0600
15     C15     0.0378   -2.0839    1.1877 C.ar     1 ZINC000001844916   -0.1000
16     C16     0.0229   -0.7016    1.1953 C.ar     1 ZINC000001844916   -0.1100
17     H17     1.0042    1.8801    0.0026 H        1 ZINC000001844916    0.0800
18     H18    -0.5455    1.8639   -0.8728 H        1 ZINC000001844916    0.0700
19     H19    -0.5286    1.8543    0.9071 H        1 ZINC000001844916    0.0700
20     H20    -0.0064   -0.1436   -2.1312 H        1 ZINC000001844916    0.1300
21     H21     0.0266   -2.6057   -2.1448 H        1 ZINC000001844916    0.1200
22     H22    -2.0283   -4.4694    0.7957 H        1 ZINC000001844916    0.1300
23     H23    -1.4428   -5.9468   -0.1390 H        1 ZINC000001844916    0.1000
24     H24     2.0625   -5.9813    1.4274 H        1 ZINC000001844916    0.1400
25     H25     0.7197   -7.1602    1.5449 H        1 ZINC000001844916    0.1400
26     H26     0.7208   -4.9456   -1.9743 H        1 ZINC000001844916    0.1400
27     H27     2.0742   -4.5276   -0.8787 H        1 ZINC000001844916    0.1500
28     H28     0.0503   -2.6289    2.1200 H        1 ZINC000001844916    0.1200
29     H29     0.0211   -0.1667    2.1335 H        1 ZINC000001844916    0.1300
@<TRIPOS>BOND
1     1     2     1
2     1     17    1
3     1     18    1
4     1     19    1
5     2     16    ar
6     2     3     ar
7     3     4     ar
8     3     20    1
9     4     5     ar
10    4     21    1
11    5     6     1
12    5     15    ar
13    6     8     1
14    6     14    1
15    6     7     1
16    7     8     1
17    7     22    1
18    7     23    1
19    8     9     1
20    8     10    1
21    10    11    1
22    10    24    1
23    10    25    1
24    11    12    1
25    11    13    1
26    11    14    1
27    14    26    1
28    14    27    1
29    15    16    ar
30    15    28    1
31    16    29    1
@<TRIPOS>SUBSTRUCTURE
1   ZINC000001844916 1     RESIDUE    1   A     ZIN   1
