@<TRIPOS>MOLECULE
ZINC000035793636
42    43    1     0     0
SMALL
USER_CHARGES
@<TRIPOS>ATOM
1      C1     -0.0069    1.5195    0.0194 C.3      1 ZINC000035793636   -0.1400
2      C2      0.0046   -0.0104    0.0028 C.3      1 ZINC000035793636    0.1300
3      O3      0.6943   -0.4941    1.1571 O.3      1 ZINC000035793636   -0.5300
4      C4      0.7161   -0.5014   -1.2595 C.3      1 ZINC000035793636    0.0400
5      O5      2.0597   -0.0149   -1.2688 O.3      1 ZINC000035793636   -0.2900
6      C6      2.8337   -0.3624   -2.3285 C.ar     1 ZINC000035793636    0.1600
7      C7      2.3058   -1.1525   -3.3425 C.ar     1 ZINC000035793636   -0.2100
8      C8      3.0876   -1.5075   -4.4195 C.ar     1 ZINC000035793636   -0.0300
9      C9      4.4136   -1.0718   -4.4916 C.ar     1 ZINC000035793636   -0.0700
10     C10     5.2299   -1.4380   -5.6097 C.1      1 ZINC000035793636    0.2500
11     N11     5.8775   -1.7285   -6.4967 N.1      1 ZINC000035793636   -0.4200
12     C12     4.9404   -0.2774   -3.4696 C.ar     1 ZINC000035793636   -0.0300
13     C13     4.1499    0.0776   -2.3990 C.ar     1 ZINC000035793636   -0.1500
14     C14    -1.4124   -0.5235    0.0126 C.2      1 ZINC000035793636    0.5000
15     O15    -1.9627   -0.8048   -1.0309 O.2      1 ZINC000035793636   -0.5000
16     N16    -2.0680   -0.6697    1.1810 N.am     1 ZINC000035793636   -0.6600
17     C17    -3.4099   -1.0527    1.1849 C.ar     1 ZINC000035793636    0.1700
18     C18    -3.8790   -1.9465    0.2281 C.ar     1 ZINC000035793636   -0.0900
19     C19    -5.2027   -2.3264    0.2286 C.ar     1 ZINC000035793636   -0.0500
20     C20    -6.0749   -1.8129    1.1923 C.ar     1 ZINC000035793636    0.0100
21     C21    -7.4519   -2.2059    1.1963 C.1      1 ZINC000035793636    0.2300
22     N22    -8.5443   -2.5177    1.1994 N.1      1 ZINC000035793636   -0.3700
23     C23    -5.5998   -0.9151    2.1527 C.ar     1 ZINC000035793636   -0.1200
24     C24    -6.5362   -0.3590    3.1943 C.3      1 ZINC000035793636    0.5100
25     F25    -5.8341    0.5101    4.0362 F        1 ZINC000035793636   -0.1700
26     F26    -7.5731    0.3378    2.5647 F        1 ZINC000035793636   -0.1700
27     F27    -7.0707   -1.4088    3.9489 F        1 ZINC000035793636   -0.1700
28     C28    -4.2740   -0.5439    2.1493 C.ar     1 ZINC000035793636   -0.0900
29     H29     1.0180    1.8906    0.0123 H        1 ZINC000035793636    0.0900
30     H30    -0.5330    1.8884   -0.8610 H        1 ZINC000035793636    0.0800
31     H31    -0.5138    1.8693    0.9187 H        1 ZINC000035793636    0.0700
32     H32     0.7404   -1.4584    1.2124 H        1 ZINC000035793636    0.3900
33     H33     0.7242   -1.5913   -1.2713 H        1 ZINC000035793636    0.0800
34     H34     0.1900   -0.1325   -2.1399 H        1 ZINC000035793636    0.0900
35     H35     1.2811   -1.4891   -3.2858 H        1 ZINC000035793636    0.1400
36     H36     2.6766   -2.1218   -5.2069 H        1 ZINC000035793636    0.1400
37     H37     5.9646    0.0615   -3.5215 H        1 ZINC000035793636    0.1400
38     H38     4.5562    0.6918   -1.6090 H        1 ZINC000035793636    0.1400
39     H39    -1.6072   -0.5088    2.0193 H        1 ZINC000035793636    0.4300
40     H40    -3.2044   -2.3429   -0.5164 H        1 ZINC000035793636    0.1600
41     H41    -5.5665   -3.0199   -0.5151 H        1 ZINC000035793636    0.1500
42     H42    -3.9061    0.1494    2.8912 H        1 ZINC000035793636    0.1600
@<TRIPOS>BOND
1     1     2     1
2     1     29    1
3     1     30    1
4     1     31    1
5     2     3     1
6     2     4     1
7     2     14    1
8     3     32    1
9     4     5     1
10    4     33    1
11    4     34    1
12    5     6     1
13    6     13    ar
14    6     7     ar
15    7     8     ar
16    7     35    1
17    8     9     ar
18    8     36    1
19    9     10    1
20    9     12    ar
21    10    11    3
22    12    13    ar
23    12    37    1
24    13    38    1
25    14    15    2
26    14    16    am
27    16    17    1
28    16    39    1
29    17    28    ar
30    17    18    ar
31    18    19    ar
32    18    40    1
33    19    20    ar
34    19    41    1
35    20    21    1
36    20    23    ar
37    21    22    3
38    23    24    1
39    23    28    ar
40    24    25    1
41    24    26    1
42    24    27    1
43    28    42    1
@<TRIPOS>SUBSTRUCTURE
1   ZINC000035793636 1     RESIDUE    1   A     ZIN   1
