@<TRIPOS>MOLECULE
ZINC000095628824
66    70    1     0     0
SMALL
USER_CHARGES
@<TRIPOS>ATOM
1      N1     -1.6616   11.1094   -8.4469 N.1      1 ZINC000095628824   -0.3800
2      C2     -1.4628   10.6388   -7.4322 C.1      1 ZINC000095628824    0.2600
3      C3     -1.2122   10.0456   -6.1532 C.2      1 ZINC000095628824    0.1300
4      C4     -2.1646    9.6223   -5.2799 C.2      1 ZINC000095628824   -0.0900
5      C5     -1.5051    9.1006   -4.1419 C.ar     1 ZINC000095628824   -0.1300
6      C6     -1.9600    8.5321   -2.9401 C.ar     1 ZINC000095628824    0.1800
7      O7     -3.2915    8.4017   -2.7071 O.3      1 ZINC000095628824   -0.3000
8      C8     -3.6779    7.8144   -1.4629 C.3      1 ZINC000095628824    0.0300
9      C9     -5.2044    7.7514   -1.3810 C.3      1 ZINC000095628824    0.0800
10     H10    -5.6181    8.7475   -1.5386 H        1 ZINC000095628824    0.1400
11     O11    -5.6993    6.8655   -2.3871 O.3      1 ZINC000095628824   -0.5400
12     C12    -5.6203    7.2389   -0.0007 C.3      1 ZINC000095628824   -0.0400
13     N13    -7.0857    7.1659    0.0734 N.4      1 ZINC000095628824   -0.3800
14     H14    -7.4237    6.4987   -0.6038 H        1 ZINC000095628824    0.4300
15     C15    -7.6567    8.4881   -0.2152 C.3      1 ZINC000095628824   -0.0100
16     C16    -9.1837    8.4083   -0.1566 C.3      1 ZINC000095628824    0.0300
17     N17    -9.5970    7.9583    1.1801 N.3      1 ZINC000095628824   -0.5300
18     C18   -11.0611    7.9231    1.2945 C.3      1 ZINC000095628824    0.1800
19     C19   -11.4461    7.4582    2.6753 C.ar     1 ZINC000095628824   -0.0900
20     C20   -10.7379    7.9019    3.7764 C.ar     1 ZINC000095628824   -0.1000
21     C21   -11.0910    7.4754    5.0430 C.ar     1 ZINC000095628824   -0.1200
22     C22   -12.1527    6.6057    5.2085 C.ar     1 ZINC000095628824   -0.1100
23     C23   -12.8614    6.1628    4.1075 C.ar     1 ZINC000095628824   -0.1200
24     C24   -12.5110    6.5926    2.8412 C.ar     1 ZINC000095628824   -0.1100
25     C25   -11.6169    9.3034    1.0560 C.ar     1 ZINC000095628824   -0.0900
26     C26   -10.9638   10.4094    1.5671 C.ar     1 ZINC000095628824   -0.1000
27     C27   -11.4736   11.6755    1.3484 C.ar     1 ZINC000095628824   -0.1200
28     C28   -12.6363   11.8357    0.6181 C.ar     1 ZINC000095628824   -0.1100
29     C29   -13.2890   10.7299    0.1062 C.ar     1 ZINC000095628824   -0.1200
30     C30   -12.7768    9.4641    0.3213 C.ar     1 ZINC000095628824   -0.1100
31     C31    -9.0125    6.6466    1.4932 C.3      1 ZINC000095628824    0.0200
32     C32    -7.4869    6.7413    1.4211 C.3      1 ZINC000095628824    0.0000
33     C33    -1.0450    8.1063   -1.9977 C.ar     1 ZINC000095628824   -0.2400
34     C34     0.3163    8.2372   -2.2318 C.ar     1 ZINC000095628824   -0.0500
35     C35     0.7784    8.7925   -3.4051 C.ar     1 ZINC000095628824   -0.1600
36     C36    -0.1220    9.2298   -4.3716 C.ar     1 ZINC000095628824    0.1600
37     N37     0.0366    9.8062   -5.6115 N.pl3    1 ZINC000095628824   -0.5700
38     H38    -3.2331    9.6752   -5.4282 H        1 ZINC000095628824    0.1600
39     H39    -3.2684    6.8066   -1.3941 H        1 ZINC000095628824    0.0800
40     H40    -3.2946    8.4192   -0.6411 H        1 ZINC000095628824    0.0800
41     H41    -5.3717    5.9590   -2.3087 H        1 ZINC000095628824    0.3900
42     H42    -5.1985    6.2469    0.1608 H        1 ZINC000095628824    0.1400
43     H43    -5.2512    7.9199    0.7661 H        1 ZINC000095628824    0.1500
44     H44    -7.3018    9.2063    0.5239 H        1 ZINC000095628824    0.1400
45     H45    -7.3475    8.8080   -1.2103 H        1 ZINC000095628824    0.1400
46     H46    -9.6073    9.3926   -0.3561 H        1 ZINC000095628824    0.1300
47     H47    -9.5399    7.7003   -0.9049 H        1 ZINC000095628824    0.0600
48     H48   -11.4670    7.2349    0.5530 H        1 ZINC000095628824    0.0700
49     H49    -9.9085    8.5814    3.6471 H        1 ZINC000095628824    0.1300
50     H50   -10.5373    7.8215    5.9033 H        1 ZINC000095628824    0.1200
51     H51   -12.4281    6.2720    6.1981 H        1 ZINC000095628824    0.1300
52     H52   -13.6907    5.4830    4.2368 H        1 ZINC000095628824    0.1300
53     H53   -13.0647    6.2465    1.9810 H        1 ZINC000095628824    0.1200
54     H54   -10.0554   10.2841    2.1376 H        1 ZINC000095628824    0.1300
55     H55   -10.9637   12.5395    1.7483 H        1 ZINC000095628824    0.1200
56     H56   -13.0350   12.8249    0.4478 H        1 ZINC000095628824    0.1300
57     H57   -14.1976   10.8551   -0.4640 H        1 ZINC000095628824    0.1300
58     H58   -13.2867    8.6001   -0.0786 H        1 ZINC000095628824    0.1200
59     H59    -9.3112    6.3457    2.4973 H        1 ZINC000095628824    0.1300
60     H60    -9.3659    5.9096    0.7720 H        1 ZINC000095628824    0.0600
61     H61    -7.0517    5.7660    1.6390 H        1 ZINC000095628824    0.1400
62     H62    -7.1331    7.4685    2.1519 H        1 ZINC000095628824    0.1400
63     H63    -1.3910    7.6692   -1.0727 H        1 ZINC000095628824    0.1300
64     H64     1.0213    7.9004   -1.4862 H        1 ZINC000095628824    0.1400
65     H65     1.8406    8.8889   -3.5746 H        1 ZINC000095628824    0.1300
66     H66     0.8849   10.0117   -6.0347 H        1 ZINC000095628824    0.4300
@<TRIPOS>BOND
1     1     2     3
2     2     3     1
3     3     37    1
4     3     4     2
5     4     5     1
6     4     38    1
7     5     36    ar
8     5     6     ar
9     6     7     1
10    6     33    ar
11    7     8     1
12    8     9     1
13    8     39    1
14    8     40    1
15    9     10    1
16    9     11    1
17    9     12    1
18    11    41    1
19    12    13    1
20    12    42    1
21    12    43    1
22    13    14    1
23    13    32    1
24    13    15    1
25    15    16    1
26    15    44    1
27    15    45    1
28    16    17    1
29    16    46    1
30    16    47    1
31    17    18    1
32    17    31    1
33    18    19    1
34    18    25    1
35    18    48    1
36    19    24    ar
37    19    20    ar
38    20    21    ar
39    20    49    1
40    21    22    ar
41    21    50    1
42    22    23    ar
43    22    51    1
44    23    24    ar
45    23    52    1
46    24    53    1
47    25    30    ar
48    25    26    ar
49    26    27    ar
50    26    54    1
51    27    28    ar
52    27    55    1
53    28    29    ar
54    28    56    1
55    29    30    ar
56    29    57    1
57    30    58    1
58    31    32    1
59    31    59    1
60    31    60    1
61    32    61    1
62    32    62    1
63    33    34    ar
64    33    63    1
65    34    35    ar
66    34    64    1
67    35    36    ar
68    35    65    1
69    36    37    1
70    37    66    1
@<TRIPOS>SUBSTRUCTURE
1   ZINC000095628824 1     RESIDUE    1   A     ZIN   1
