@<TRIPOS>MOLECULE
ZINC000013986811
  50   53    0    0    0
SMALL
USER_CHARGES
NO_NAME
@<TRIPOS>ATOM
    1 N1        0.1458     1.1016     1.2035 N.pl3  1 <0>      -0.8800
    2 C2        0.0844    -0.1522     0.5861 C.ar   1 <0>       0.2000
    3 C3       -1.1058    -0.8638     0.5737 C.ar   1 <0>      -0.1800
    4 C4       -1.1641    -2.1028    -0.0371 C.ar   1 <0>      -0.0800
    5 C5       -0.0382    -2.6364    -0.6362 C.ar   1 <0>      -0.1600
    6 C6        1.1529    -1.9341    -0.6283 C.ar   1 <0>      -0.0700
    7 C7        1.2189    -0.6880    -0.0240 C.ar   1 <0>       0.0600
    8 N8        2.4244     0.0254    -0.0152 N.am   1 <0>      -0.6600
    9 C9        3.5963    -0.6329     0.0839 C.2    1 <0>       0.5600
   10 O10       3.6126    -1.8485     0.0834 O.2    1 <0>      -0.5100
   11 C11       4.8617     0.1232     0.1933 C.ar   1 <0>      -0.1300
   12 C12       4.8460     1.5190     0.2000 C.ar   1 <0>      -0.0900
   13 C13       6.0307     2.2185     0.3023 C.ar   1 <0>      -0.1000
   14 C14       7.2325     1.5397     0.3981 C.ar   1 <0>      -0.0800
   15 C15       8.5226     2.3105     0.5100 C.3    1 <0>       0.1800
   16 N16       8.8262     2.5520     1.9227 N.pl3  1 <0>      -0.7000
   17 C17       9.9702     3.2465     2.2759 C.ar   1 <0>       0.5700
   18 N18      10.7762     3.6901     1.3223 N.ar   1 <0>      -0.5700
   19 C19      11.8797     4.3584     1.6191 C.ar   1 <0>       0.2000
   20 C20      12.1915     4.5946     2.9460 C.ar   1 <0>      -0.2800
   21 C21      11.3226     4.1147     3.9297 C.ar   1 <0>       0.2700
   22 C22      11.6123     4.3424     5.3663 C.ar   1 <0>      -0.1100
   23 C23      10.8046     3.7701     6.3531 C.ar   1 <0>      -0.0300
   24 C24      11.1175     4.0127     7.6798 C.ar   1 <0>      -0.1800
   25 C25      12.2088     4.8058     7.9833 C.ar   1 <0>       0.1100
   26 N26      12.9530     5.3327     7.0298 N.ar   1 <0>      -0.4900
   27 C27      12.6978     5.1258     5.7544 C.ar   1 <0>       0.1300
   28 N28      10.2281     3.4552     3.5574 N.ar   1 <0>      -0.5700
   29 C29       7.2551     0.1563     0.3920 C.ar   1 <0>      -0.1000
   30 C30       6.0772    -0.5555     0.2961 C.ar   1 <0>      -0.0600
   31 H31       0.9780     1.5999     1.2079 H      1 <0>       0.3900
   32 H32      -0.6450     1.4745     1.6237 H      1 <0>       0.4000
   33 H33      -1.9871    -0.4503     1.0414 H      1 <0>       0.1200
   34 H34      -2.0918    -2.6557    -0.0459 H      1 <0>       0.1200
   35 H35      -0.0891    -3.6048    -1.1116 H      1 <0>       0.1200
   36 H36       2.0306    -2.3544    -1.0967 H      1 <0>       0.1400
   37 H37       2.4157     0.9931    -0.0804 H      1 <0>       0.4000
   38 H38       3.9086     2.0500     0.1249 H      1 <0>       0.1300
   39 H39       6.0200     3.2985     0.3072 H      1 <0>       0.1300
   40 H40       9.3302     1.7347     0.0581 H      1 <0>       0.0800
   41 H41       8.4221     3.2642    -0.0082 H      1 <0>       0.0800
   42 H42       8.2255     2.2251     2.6106 H      1 <0>       0.4100
   43 H43      12.5297     4.7151     0.8338 H      1 <0>       0.1700
   44 H44      13.0858     5.1368     3.2154 H      1 <0>       0.1500
   45 H45       9.9578     3.1547     6.0875 H      1 <0>       0.1500
   46 H46      10.5156     3.5873     8.4691 H      1 <0>       0.1400
   47 H47      12.4555     4.9974     9.0171 H      1 <0>       0.1600
   48 H48      13.3301     5.5743     5.0025 H      1 <0>       0.1600
   49 H49       8.1966    -0.3676     0.4668 H      1 <0>       0.1300
   50 H50       6.0962    -1.6353     0.2918 H      1 <0>       0.1400
@<TRIPOS>BOND
   1    1    2 1
   2    1   31 1
   3    1   32 1
   4    2    7 ar
   5    2    3 ar
   6    3    4 ar
   7    3   33 1
   8    4    5 ar
   9    4   34 1
  10    5    6 ar
  11    5   35 1
  12    6    7 ar
  13    6   36 1
  14    7    8 1
  15    8    9 am
  16    8   37 1
  17    9   10 2
  18    9   11 1
  19   11   30 ar
  20   11   12 ar
  21   12   13 ar
  22   12   38 1
  23   13   14 ar
  24   13   39 1
  25   14   15 1
  26   14   29 ar
  27   15   16 1
  28   15   40 1
  29   15   41 1
  30   16   17 1
  31   16   42 1
  32   17   28 ar
  33   17   18 ar
  34   18   19 ar
  35   19   20 ar
  36   19   43 1
  37   20   21 ar
  38   20   44 1
  39   21   22 1
  40   21   28 ar
  41   22   27 ar
  42   22   23 ar
  43   23   24 ar
  44   23   45 1
  45   24   25 ar
  46   24   46 1
  47   25   26 ar
  48   25   47 1
  49   26   27 ar
  50   27   48 1
  51   29   30 ar
  52   29   49 1
  53   30   50 1
