@<TRIPOS>MOLECULE
ZINC000006096244
  18   18    0    0    0
SMALL
USER_CHARGES
NO_NAME
@<TRIPOS>ATOM
    1 N1       -0.0116     1.0048     0.0076 N.4    1 <0>      -0.6400
    2 H2        0.0021    -0.0041     0.0020 H      1 <0>       0.4400
    3 H3        0.9350     1.3541     0.0004 H      1 <0>       0.4300
    4 H4       -0.4996     1.3391    -0.8099 H      1 <0>       0.4300
    5 C5       -0.6992     1.4786     1.2162 C.3    1 <0>       0.0500
    6 C6       -0.7196     2.9854     1.2245 C.ar   1 <0>      -0.1700
    7 C7        0.3161     3.6875     1.8120 C.ar   1 <0>      -0.0900
    8 C8        0.2974     5.0697     1.8196 C.ar   1 <0>      -0.1100
    9 C9       -0.7569     5.7498     1.2393 C.ar   1 <0>      -0.0800
   10 C10      -1.7922     5.0478     0.6509 C.ar   1 <0>      -0.1100
   11 C11      -1.7713     3.6656     0.6396 C.ar   1 <0>      -0.0900
   12 H12      -1.7218     1.1013     1.2239 H      1 <0>       0.1400
   13 H13      -0.1720     1.1175     2.0992 H      1 <0>       0.1400
   14 H14       1.1398     3.1561     2.2654 H      1 <0>       0.1300
   15 H15       1.1063     5.6182     2.2793 H      1 <0>       0.1400
   16 H16      -0.7719     6.8297     1.2458 H      1 <0>       0.1400
   17 H17      -2.6160     5.5791     0.1978 H      1 <0>       0.1400
   18 H18      -2.5802     3.1171     0.1799 H      1 <0>       0.1300
@<TRIPOS>BOND
   1    1    2 1
   2    1    3 1
   3    1    4 1
   4    1    5 1
   5    5    6 1
   6    5   12 1
   7    5   13 1
   8    6   11 ar
   9    6    7 ar
  10    7    8 ar
  11    7   14 1
  12    8    9 ar
  13    8   15 1
  14    9   10 ar
  15    9   16 1
  16   10   11 ar
  17   10   17 1
  18   11   18 1
