@<TRIPOS>MOLECULE
ZINC000095616581
  44   47    0    0    0
SMALL
USER_CHARGES
NO_NAME
@<TRIPOS>ATOM
    1 O1        0.0349     1.5564    -0.1820 O.3    1 <0>      -0.5500
    2 C2        0.0800     0.1374    -0.0196 C.3    1 <0>       0.1100
    3 H3       -0.9325    -0.2465     0.1044 H      1 <0>       0.1100
    4 C4        0.7182    -0.4975    -1.2568 C.3    1 <0>      -0.1600
    5 C5       -0.1487    -0.2073    -2.4836 C.3    1 <0>       0.1800
    6 H6       -0.3482     0.8619    -2.5554 H      1 <0>       0.1500
    7 C7       -1.4464    -0.9704    -2.3920 C.ar   1 <0>      -0.1000
    8 C8       -2.4785    -0.9557    -1.4813 C.ar   1 <0>      -0.0800
    9 C9       -3.5710    -1.7877    -1.6595 C.ar   1 <0>      -0.0800
   10 C10      -3.6289    -2.6352    -2.7513 C.ar   1 <0>      -0.1000
   11 C11      -2.6000    -2.6576    -3.6704 C.ar   1 <0>      -0.0600
   12 C12      -1.4952    -1.8219    -3.4972 C.ar   1 <0>      -0.0700
   13 C13      -0.2675    -1.6266    -4.2943 C.2    1 <0>       0.0800
   14 C14       0.3932    -2.0328    -5.4132 C.2    1 <0>       0.0300
   15 N15       1.5415    -1.3492    -5.4825 N.pl3  1 <0>      -0.4700
   16 H16       2.2065    -1.4418    -6.1826 H      1 <0>       0.4700
   17 C17       1.6288    -0.5376    -4.4627 C.cat  1 <0>       0.3200
   18 N18       0.5260    -0.6753    -3.6979 N.pl3  1 <0>      -0.4300
   19 C19       0.9116    -0.2082     1.2173 C.3    1 <0>      -0.1200
   20 C20       2.2940     0.4367     1.0990 C.3    1 <0>      -0.1200
   21 C21       3.1255     0.0911     2.3359 C.3    1 <0>      -0.1200
   22 C22       2.4217     0.6196     3.5875 C.3    1 <0>      -0.1200
   23 C23       1.0393    -0.0252     3.7058 C.3    1 <0>      -0.1200
   24 C24       0.2078     0.3203     2.4689 C.3    1 <0>      -0.1100
   25 H25       0.9028     1.9669    -0.2979 H      1 <0>       0.3800
   26 H26       1.7132    -0.0788    -1.4077 H      1 <0>       0.0900
   27 H27       0.7955    -1.5752    -1.1132 H      1 <0>       0.0900
   28 H28      -2.4365    -0.2949    -0.6281 H      1 <0>       0.1500
   29 H29      -4.3798    -1.7752    -0.9440 H      1 <0>       0.1500
   30 H30      -4.4834    -3.2819    -2.8852 H      1 <0>       0.1500
   31 H31      -2.6492    -3.3201    -4.5219 H      1 <0>       0.1400
   32 H32       0.0515    -2.7753    -6.1191 H      1 <0>       0.2300
   33 H33       2.4500     0.1352    -4.2641 H      1 <0>       0.2600
   34 H34       1.0205    -1.2902     1.2913 H      1 <0>       0.0800
   35 H35       2.7954     0.0602     0.2074 H      1 <0>       0.0600
   36 H36       2.1851     1.5187     1.0250 H      1 <0>       0.0700
   37 H37       3.2344    -0.9909     2.4099 H      1 <0>       0.0600
   38 H38       4.1104     0.5505     2.2516 H      1 <0>       0.0600
   39 H39       3.0141     0.3734     4.4687 H      1 <0>       0.0700
   40 H40       2.3128     1.7016     3.5135 H      1 <0>       0.0600
   41 H41       1.1482    -1.1073     3.7798 H      1 <0>       0.0600
   42 H42       0.5379     0.3512     4.5975 H      1 <0>       0.0700
   43 H43       0.0989     1.4023     2.3949 H      1 <0>       0.0700
   44 H44      -0.7771    -0.1391     2.5532 H      1 <0>       0.0600
@<TRIPOS>BOND
   1    1    2 1
   2    1   25 1
   3    2    3 1
   4    2    4 1
   5    2   19 1
   6    4    5 1
   7    4   26 1
   8    4   27 1
   9    5    6 1
  10    5   18 1
  11    5    7 1
  12    7   12 ar
  13    7    8 ar
  14    8    9 ar
  15    8   28 1
  16    9   10 ar
  17    9   29 1
  18   10   11 ar
  19   10   30 1
  20   11   12 ar
  21   11   31 1
  22   12   13 1
  23   13   18 1
  24   13   14 2
  25   14   15 1
  26   14   32 1
  27   15   16 1
  28   15   17 ar
  29   17   18 ar
  30   17   33 1
  31   19   24 1
  32   19   20 1
  33   19   34 1
  34   20   21 1
  35   20   35 1
  36   20   36 1
  37   21   22 1
  38   21   37 1
  39   21   38 1
  40   22   23 1
  41   22   39 1
  42   22   40 1
  43   23   24 1
  44   23   41 1
  45   23   42 1
  46   24   43 1
  47   24   44 1
