@<TRIPOS>MOLECULE
ZINC000003842421
70    73    1     0     0
SMALL
USER_CHARGES
@<TRIPOS>ATOM
1      C1     -1.0786    2.6335    1.3784 C.3      1 ZINC000003842421   -0.1000
2      C2     -0.9258    1.2438    0.8160 C.2      1 ZINC000003842421    0.2000
3      N3     -1.0612    1.0286   -0.4496 N.2      1 ZINC000003842421   -0.4500
4      S4     -0.8274   -0.6270   -0.7359 S.3      1 ZINC000003842421    0.2900
5      C5     -0.5300   -1.0485    0.9530 C.2      1 ZINC000003842421    0.0900
6      C6     -0.6291    0.1655    1.6546 C.2      1 ZINC000003842421   -0.2800
7      C7     -0.4195    0.0956    3.1123 C.2      1 ZINC000003842421    0.5700
8      O8     -0.4860    1.0960    3.8045 O.2      1 ZINC000003842421   -0.4900
9      N9     -0.1522   -1.1100    3.6566 N.am     1 ZINC000003842421   -0.5100
10     C10     0.0619   -1.2187    5.1018 C.3      1 ZINC000003842421    0.1200
11     C11    -1.2699   -1.3025    5.8021 C.ar     1 ZINC000003842421   -0.1400
12     C12    -1.9799   -0.1488    6.0773 C.ar     1 ZINC000003842421   -0.0900
13     C13    -3.2015   -0.2257    6.7196 C.ar     1 ZINC000003842421   -0.1300
14     C14    -3.7134   -1.4563    7.0862 C.ar     1 ZINC000003842421   -0.1000
15     C15    -3.0038   -2.6101    6.8102 C.ar     1 ZINC000003842421   -0.1200
16     C16    -1.7841   -2.5335    6.1640 C.ar     1 ZINC000003842421   -0.1000
17     C17    -0.0794   -2.2229    2.8838 C.2      1 ZINC000003842421    0.4200
18     C18     0.2215   -3.5454    3.5408 C.3      1 ZINC000003842421    0.1800
19     H19    -0.0126   -3.4847    4.6036 H        1 ZINC000003842421    0.1400
20     C20     1.7045   -3.8773    3.3633 C.3      1 ZINC000003842421   -0.1000
21     C21     2.5537   -2.7589    3.9707 C.3      1 ZINC000003842421   -0.1700
22     C22     2.0196   -5.1977    4.0692 C.3      1 ZINC000003842421   -0.1600
23     N23    -0.5914   -4.5947    2.9209 N.am     1 ZINC000003842421   -0.5900
24     C24    -0.3799   -4.9512    1.5157 C.3      1 ZINC000003842421    0.0700
25     C25     0.8274   -5.8842    1.4024 C.3      1 ZINC000003842421   -0.2100
26     C26     1.0483   -6.2565   -0.0650 C.3      1 ZINC000003842421   -0.0100
27     N27     2.2075   -7.1523   -0.1738 N.4      1 ZINC000003842421   -0.6400
28     H28     2.3532   -7.3978   -1.1416 H        1 ZINC000003842421    0.4400
29     H29     3.0281   -6.6853    0.1819 H        1 ZINC000003842421    0.4400
30     H30     2.0373   -7.9892    0.3635 H        1 ZINC000003842421    0.4400
31     C31    -1.5339   -5.2322    3.6433 C.2      1 ZINC000003842421    0.5600
32     O32    -1.7020   -4.9441    4.8121 O.2      1 ZINC000003842421   -0.5100
33     C33    -2.3633   -6.2819    3.0140 C.ar     1 ZINC000003842421   -0.1400
34     C34    -1.8749   -7.0001    1.9214 C.ar     1 ZINC000003842421   -0.1300
35     C35    -2.6537   -7.9786    1.3391 C.ar     1 ZINC000003842421   -0.1300
36     C36    -3.9166   -8.2485    1.8357 C.ar     1 ZINC000003842421   -0.0500
37     C37    -4.7621   -9.3185    1.1943 C.3      1 ZINC000003842421   -0.1300
38     C38    -4.4066   -7.5406    2.9188 C.ar     1 ZINC000003842421   -0.1200
39     C39    -3.6359   -6.5631    3.5136 C.ar     1 ZINC000003842421   -0.0500
40     N40    -0.2559   -2.1882    1.5938 N.2      1 ZINC000003842421   -0.5000
41     H41    -0.1113    3.1358    1.3737 H        1 ZINC000003842421    0.0900
42     H42    -1.7837    3.1972    0.7674 H        1 ZINC000003842421    0.0800
43     H43    -1.4515    2.5728    2.4008 H        1 ZINC000003842421    0.1000
44     H44     0.6425   -2.1158    5.3167 H        1 ZINC000003842421    0.1100
45     H45     0.6040   -0.3417    5.4558 H        1 ZINC000003842421    0.1200
46     H46    -1.5799    0.8127    5.7909 H        1 ZINC000003842421    0.1300
47     H47    -3.7559    0.6757    6.9353 H        1 ZINC000003842421    0.1300
48     H48    -4.6675   -1.5164    7.5887 H        1 ZINC000003842421    0.1200
49     H49    -3.4035   -3.5715    7.0969 H        1 ZINC000003842421    0.1300
50     H50    -1.2298   -3.4349    5.9483 H        1 ZINC000003842421    0.1400
51     H51     1.9315   -3.9699    2.3012 H        1 ZINC000003842421    0.0900
52     H52     2.4240   -2.7511    5.0529 H        1 ZINC000003842421    0.0700
53     H53     3.6034   -2.9292    3.7317 H        1 ZINC000003842421    0.0800
54     H54     2.2386   -1.7996    3.5600 H        1 ZINC000003842421    0.0600
55     H55     1.4146   -5.9944    3.6365 H        1 ZINC000003842421    0.0600
56     H56     3.0761   -5.4341    3.9427 H        1 ZINC000003842421    0.0700
57     H57     1.7926   -5.1050    5.1313 H        1 ZINC000003842421    0.0700
58     H58    -1.2663   -5.4557    1.1314 H        1 ZINC000003842421    0.1200
59     H59    -0.1961   -4.0471    0.9353 H        1 ZINC000003842421    0.1300
60     H60     1.7139   -5.3797    1.7867 H        1 ZINC000003842421    0.1200
61     H61     0.6436   -6.7883    1.9829 H        1 ZINC000003842421    0.1000
62     H62     0.1619   -6.7610   -0.4493 H        1 ZINC000003842421    0.1400
63     H63     1.2321   -5.3524   -0.6455 H        1 ZINC000003842421    0.1400
64     H64    -0.8895   -6.7899    1.5324 H        1 ZINC000003842421    0.1500
65     H65    -2.2770   -8.5350    0.4936 H        1 ZINC000003842421    0.1300
66     H66    -4.5656  -10.2753    1.6780 H        1 ZINC000003842421    0.0800
67     H67    -5.8161   -9.0644    1.3062 H        1 ZINC000003842421    0.0700
68     H68    -4.5160   -9.3896    0.1348 H        1 ZINC000003842421    0.0700
69     H69    -5.3931   -7.7563    3.3018 H        1 ZINC000003842421    0.1400
70     H70    -4.0194   -6.0115    4.3593 H        1 ZINC000003842421    0.1400
@<TRIPOS>BOND
1     1     2     1
2     1     41    1
3     1     42    1
4     1     43    1
5     2     6     1
6     2     3     2
7     3     4     1
8     4     5     1
9     5     40    1
10    5     6     2
11    6     7     1
12    7     8     2
13    7     9     am
14    9     10    1
15    9     17    1
16    10    11    1
17    10    44    1
18    10    45    1
19    11    16    ar
20    11    12    ar
21    12    13    ar
22    12    46    1
23    13    14    ar
24    13    47    1
25    14    15    ar
26    14    48    1
27    15    16    ar
28    15    49    1
29    16    50    1
30    17    18    1
31    17    40    2
32    18    19    1
33    18    20    1
34    18    23    1
35    20    21    1
36    20    22    1
37    20    51    1
38    21    52    1
39    21    53    1
40    21    54    1
41    22    55    1
42    22    56    1
43    22    57    1
44    23    24    1
45    23    31    am
46    24    25    1
47    24    58    1
48    24    59    1
49    25    26    1
50    25    60    1
51    25    61    1
52    26    27    1
53    26    62    1
54    26    63    1
55    27    28    1
56    27    29    1
57    27    30    1
58    31    32    2
59    31    33    1
60    33    39    ar
61    33    34    ar
62    34    35    ar
63    34    64    1
64    35    36    ar
65    35    65    1
66    36    37    1
67    36    38    ar
68    37    66    1
69    37    67    1
70    37    68    1
71    38    39    ar
72    38    69    1
73    39    70    1
@<TRIPOS>SUBSTRUCTURE
1   ZINC000003842421 1     RESIDUE    1   A     ZIN   1
