@<TRIPOS>MOLECULE
ZINC000059688588
44    46    1     0     0
SMALL
USER_CHARGES
@<TRIPOS>ATOM
1      C1     -0.0187    1.5258    0.0104 C.3      1 ZINC000059688588   -0.1200
2      C2      0.0021   -0.0041    0.0020 C.3      1 ZINC000059688588    0.0800
3      C3      0.6670   -0.5248   -1.2738 C.3      1 ZINC000059688588   -0.6100
4      S4      0.6761   -2.3386   -1.2538 S.o2     1 ZINC000059688588    2.6000
5      O5      1.5523   -2.8218   -0.2449 O.2      1 ZINC000059688588   -0.9200
6      O6     -0.6454   -2.8454   -1.3806 O.2      1 ZINC000059688588   -0.9400
7      N7      1.4145   -2.7638   -2.6738 N.am     1 ZINC000059688588   -1.0100
8      C8      0.6259   -2.9621   -3.8975 C.3      1 ZINC000059688588    0.1200
9      C9      1.2137   -2.0883   -5.0100 C.3      1 ZINC000059688588   -0.1300
10     C10     2.7038   -2.4007   -5.1650 C.3      1 ZINC000059688588    0.0900
11     O11     3.2483   -1.6105   -6.2238 O.3      1 ZINC000059688588   -0.3000
12     C12     4.2905   -2.1389   -6.9138 C.ar     1 ZINC000059688588    0.3300
13     C13     4.8659   -1.4159   -7.9504 C.ar     1 ZINC000059688588   -0.1800
14     C14     5.9284   -1.9657   -8.6467 C.ar     1 ZINC000059688588   -0.0300
15     C15     6.3797   -3.2265   -8.2787 C.ar     1 ZINC000059688588   -0.1300
16     Cl16    7.7092   -3.9624   -9.1182 Cl       1 ZINC000059688588   -0.0600
17     C17     5.7589   -3.8887   -7.2366 C.ar     1 ZINC000059688588    0.1600
18     N18     4.7515   -3.3352   -6.5887 N.ar     1 ZINC000059688588   -0.5200
19     C19     3.4334   -2.0762   -3.8595 C.3      1 ZINC000059688588   -0.1500
20     C20     2.8714   -2.9439   -2.7354 C.3      1 ZINC000059688588    0.1200
21     N21    -1.3629   -0.5416    0.1354 N.am     1 ZINC000059688588   -0.7800
22     C22    -1.3842   -1.2599    1.2727 C.2      1 ZINC000059688588    0.6500
23     O23    -2.3671   -1.8444    1.6843 O.2      1 ZINC000059688588   -0.6000
24     N24    -0.2024   -1.2589    1.8999 N.pl3    1 ZINC000059688588   -0.7100
25     C25     0.7154   -0.5345    1.2298 C.2      1 ZINC000059688588    0.4900
26     O26     1.8714   -0.3469    1.5433 O.2      1 ZINC000059688588   -0.5400
27     H27     1.0039    1.9031    0.0027 H        1 ZINC000059688588    0.0700
28     H28    -0.5459    1.8868   -0.8726 H        1 ZINC000059688588    0.0500
29     H29    -0.5289    1.8773    0.9072 H        1 ZINC000059688588    0.0600
30     H30     0.1105   -0.1738   -2.1428 H        1 ZINC000059688588    0.1200
31     H31     1.6917   -0.1568   -1.3257 H        1 ZINC000059688588    0.1400
32     H32     0.6694   -4.0100   -4.1945 H        1 ZINC000059688588    0.0800
33     H33    -0.4096   -2.6744   -3.7156 H        1 ZINC000059688588    0.1000
34     H34     0.6986   -2.2976   -5.9476 H        1 ZINC000059688588    0.0800
35     H35     1.0874   -1.0368   -4.7518 H        1 ZINC000059688588    0.0800
36     H36     2.8308   -3.4578   -5.3986 H        1 ZINC000059688588    0.1000
37     H37     4.4892   -0.4377   -8.2101 H        1 ZINC000059688588    0.1500
38     H38     6.3955   -1.4267   -9.4577 H        1 ZINC000059688588    0.1500
39     H39     6.1056   -4.8694   -6.9460 H        1 ZINC000059688588    0.1700
40     H40     4.4981   -2.2769   -3.9781 H        1 ZINC000059688588    0.0800
41     H41     3.2862   -1.0249   -3.6121 H        1 ZINC000059688588    0.0800
42     H42     3.3180   -2.6470   -1.7864 H        1 ZINC000059688588    0.1000
43     H43     3.0960   -3.9916   -2.9354 H        1 ZINC000059688588    0.0800
44     H44    -2.1024   -0.4041   -0.4771 H        1 ZINC000059688588    0.4000
@<TRIPOS>BOND
1     1     2     1
2     1     27    1
3     1     28    1
4     1     29    1
5     2     25    1
6     2     3     1
7     2     21    1
8     3     4     1
9     3     30    1
10    3     31    1
11    4     5     2
12    4     6     2
13    4     7     am
14    7     20    1
15    7     8     1
16    8     9     1
17    8     32    1
18    8     33    1
19    9     10    1
20    9     34    1
21    9     35    1
22    10    11    1
23    10    19    1
24    10    36    1
25    11    12    1
26    12    18    ar
27    12    13    ar
28    13    14    ar
29    13    37    1
30    14    15    ar
31    14    38    1
32    15    16    1
33    15    17    ar
34    17    18    ar
35    17    39    1
36    19    20    1
37    19    40    1
38    19    41    1
39    20    42    1
40    20    43    1
41    21    22    am
42    21    44    1
43    22    23    2
44    22    24    1
45    24    25    1
46    25    26    2
@<TRIPOS>SUBSTRUCTURE
1   ZINC000059688588 1     RESIDUE    1   A     ZIN   1
