@<TRIPOS>MOLECULE
ZINC000001549068
54    57    1     0     0
SMALL
USER_CHARGES
@<TRIPOS>ATOM
1      C1     -0.6846    2.1129    0.3363 C.3      1 ZINC000001549068   -0.1400
2      C2     -0.3030    0.6347    0.4370 C.3      1 ZINC000001549068   -0.0500
3      C3     -1.5230   -0.2166    0.1964 C.2      1 ZINC000001549068   -0.1000
4      C4     -2.4172   -0.6641    1.1286 C.2      1 ZINC000001549068    0.0500
5      C5     -2.3768   -0.4063    2.5850 C.ar     1 ZINC000001549068   -0.0100
6      C6     -1.2270   -0.7037    3.3171 C.ar     1 ZINC000001549068   -0.0900
7      C7     -1.1950   -0.4607    4.6748 C.ar     1 ZINC000001549068   -0.0900
8      C8     -2.3009    0.0768    5.3108 C.ar     1 ZINC000001549068   -0.0800
9      Br9    -2.2490    0.4069    7.1720 Br       1 ZINC000001549068   -0.0400
10     C10    -3.4446    0.3739    4.5894 C.ar     1 ZINC000001549068   -0.0800
11     C11    -3.4862    0.1406    3.2304 C.ar     1 ZINC000001549068   -0.0900
12     N12    -3.3554   -1.3953    0.4563 N.pl3    1 ZINC000001549068   -0.2300
13     C13    -4.4537   -2.0322    1.0478 C.ar     1 ZINC000001549068    0.1400
14     C14    -4.2746   -2.8258    2.1728 C.ar     1 ZINC000001549068   -0.0800
15     C15    -5.3593   -3.4529    2.7543 C.ar     1 ZINC000001549068   -0.0900
16     C16    -6.6241   -3.2915    2.2167 C.ar     1 ZINC000001549068   -0.0100
17     Cl17   -7.9846   -4.0818    2.9502 Cl       1 ZINC000001549068   -0.0400
18     C18    -6.8066   -2.5007    1.0955 C.ar     1 ZINC000001549068   -0.0900
19     C19    -5.7260   -1.8663    0.5130 C.ar     1 ZINC000001549068   -0.0100
20     Cl20   -5.9551   -0.8746   -0.8933 Cl       1 ZINC000001549068   -0.0200
21     N21    -3.0813   -1.4118   -0.7985 N.2      1 ZINC000001549068   -0.2300
22     C22    -1.9873   -0.7153   -1.0403 C.2      1 ZINC000001549068    0.0000
23     C23    -1.3587   -0.5040   -2.3600 C.2      1 ZINC000001549068    0.6200
24     O24    -0.3460    0.1625   -2.4513 O.2      1 ZINC000001549068   -0.4900
25     N25    -1.9078   -1.0500   -3.4631 N.am     1 ZINC000001549068   -0.5700
26     N26    -1.2748   -0.9376   -4.6683 N.3      1 ZINC000001549068   -0.2900
27     C27    -2.0213   -0.0558   -5.5747 C.3      1 ZINC000001549068    0.0400
28     C28    -1.2137    0.1625   -6.8561 C.3      1 ZINC000001549068   -0.1100
29     C29    -0.9552   -1.1893   -7.5272 C.3      1 ZINC000001549068   -0.1300
30     C30    -0.2194   -2.1053   -6.5454 C.3      1 ZINC000001549068   -0.1100
31     C31    -1.0558   -2.2578   -5.2729 C.3      1 ZINC000001549068    0.0400
32     H32     0.1978    2.7286    0.5103 H        1 ZINC000001549068    0.0600
33     H33    -1.0810    2.3188   -0.6580 H        1 ZINC000001549068    0.0600
34     H34    -1.4425    2.3443    1.0847 H        1 ZINC000001549068    0.0500
35     H35     0.4549    0.4032   -0.3114 H        1 ZINC000001549068    0.0900
36     H36     0.0934    0.4287    1.4313 H        1 ZINC000001549068    0.0700
37     H37    -0.3639   -1.1237    2.8221 H        1 ZINC000001549068    0.1400
38     H38    -0.3055   -0.6905    5.2426 H        1 ZINC000001549068    0.1400
39     H39    -4.3045    0.7927    5.0910 H        1 ZINC000001549068    0.1400
40     H40    -4.3788    0.3731    2.6686 H        1 ZINC000001549068    0.1300
41     H41    -3.2877   -2.9530    2.5928 H        1 ZINC000001549068    0.1500
42     H42    -5.2200   -4.0702    3.6294 H        1 ZINC000001549068    0.1600
43     H43    -7.7949   -2.3761    0.6781 H        1 ZINC000001549068    0.1600
44     H44    -2.7525   -1.5228   -3.4012 H        1 ZINC000001549068    0.3900
45     H45    -2.9781   -0.5154   -5.8223 H        1 ZINC000001549068    0.0400
46     H46    -2.1948    0.9034   -5.0869 H        1 ZINC000001549068    0.0800
47     H47    -1.7749    0.8044   -7.5351 H        1 ZINC000001549068    0.0700
48     H48    -0.2624    0.6348   -6.6108 H        1 ZINC000001549068    0.0800
49     H49    -1.9051   -1.6442   -7.8078 H        1 ZINC000001549068    0.0600
50     H50    -0.3433   -1.0430   -8.4173 H        1 ZINC000001549068    0.0700
51     H51    -0.0703   -3.0836   -7.0023 H        1 ZINC000001549068    0.0700
52     H52     0.7475   -1.6687   -6.2951 H        1 ZINC000001549068    0.0800
53     H53    -0.5281   -2.8980   -4.5660 H        1 ZINC000001549068    0.0800
54     H54    -2.0172   -2.7072   -5.5219 H        1 ZINC000001549068    0.0400
@<TRIPOS>BOND
1     1     2     1
2     1     32    1
3     1     33    1
4     1     34    1
5     2     3     1
6     2     35    1
7     2     36    1
8     3     22    1
9     3     4     2
10    4     5     1
11    4     12    1
12    5     11    ar
13    5     6     ar
14    6     7     ar
15    6     37    1
16    7     8     ar
17    7     38    1
18    8     9     1
19    8     10    ar
20    10    11    ar
21    10    39    1
22    11    40    1
23    12    13    1
24    12    21    1
25    13    19    ar
26    13    14    ar
27    14    15    ar
28    14    41    1
29    15    16    ar
30    15    42    1
31    16    17    1
32    16    18    ar
33    18    19    ar
34    18    43    1
35    19    20    1
36    21    22    2
37    22    23    1
38    23    24    2
39    23    25    am
40    25    26    1
41    25    44    1
42    26    31    1
43    26    27    1
44    27    28    1
45    27    45    1
46    27    46    1
47    28    29    1
48    28    47    1
49    28    48    1
50    29    30    1
51    29    49    1
52    29    50    1
53    30    31    1
54    30    51    1
55    30    52    1
56    31    53    1
57    31    54    1
@<TRIPOS>SUBSTRUCTURE
1   ZINC000001549068 1     RESIDUE    1   A     ZIN   1
