@<TRIPOS>MOLECULE
ZINC000027726359
85    89    1     0     0
SMALL
USER_CHARGES
@<TRIPOS>ATOM
1      C1     -3.3512   -6.0521    1.5805 C.3      1 ZINC000027726359   -0.1500
2      C2     -3.0288   -4.8045    0.7556 C.3      1 ZINC000027726359   -0.1100
3      C3     -1.5122   -4.6121    0.6934 C.3      1 ZINC000027726359   -0.0500
4      C4     -1.1897   -3.4535   -0.2147 C.2      1 ZINC000027726359    0.3100
5      N5     -1.0866   -3.5277   -1.5096 N.2      1 ZINC000027726359   -0.4800
6      C6     -0.7876   -2.3030   -2.0116 C.ar     1 ZINC000027726359    0.0300
7      C7     -0.5684   -1.8136   -3.3022 C.ar     1 ZINC000027726359   -0.0200
8      C8     -0.6476   -2.7245   -4.5002 C.3      1 ZINC000027726359   -0.1100
9      C9     -0.2761   -0.4649   -3.4493 C.ar     1 ZINC000027726359    0.0700
10     N10    -0.0488    0.0742   -4.7220 N.am     1 ZINC000027726359   -0.6500
11     C11     0.7780    1.1283   -4.8694 C.2      1 ZINC000027726359    0.5600
12     O12     1.2660    1.6596   -3.8909 O.2      1 ZINC000027726359   -0.5100
13     C13     1.0914    1.6384   -6.2210 C.ar     1 ZINC000027726359   -0.1300
14     C14     0.5282    1.0343   -7.3463 C.ar     1 ZINC000027726359   -0.0900
15     C15     0.8245    1.5156   -8.6047 C.ar     1 ZINC000027726359   -0.1300
16     C16     1.6782    2.5943   -8.7529 C.ar     1 ZINC000027726359   -0.0900
17     C17     2.2402    3.1975   -7.6417 C.ar     1 ZINC000027726359   -0.1300
18     C18     1.9473    2.7300   -6.3772 C.ar     1 ZINC000027726359   -0.0600
19     C19    -0.2114    0.3474   -2.3208 C.ar     1 ZINC000027726359    0.1400
20     N20    -0.4218   -0.1394   -1.1156 N.ar     1 ZINC000027726359   -0.4600
21     C21    -0.7042   -1.4175   -0.9220 C.ar     1 ZINC000027726359    0.2400
22     N22    -0.9696   -2.1760    0.1997 N.pl3    1 ZINC000027726359   -0.4700
23     C23    -1.0054   -1.6950    1.5830 C.3      1 ZINC000027726359    0.1600
24     C24     0.3850   -1.7302    2.1632 C.ar     1 ZINC000027726359   -0.1200
25     C25     0.8587   -2.8912    2.7472 C.ar     1 ZINC000027726359   -0.1000
26     C26     2.1313   -2.9291    3.2802 C.ar     1 ZINC000027726359   -0.0900
27     C27     2.9392   -1.7950    3.2291 C.ar     1 ZINC000027726359   -0.0600
28     C28     4.3084   -1.8299    3.8000 C.ar     1 ZINC000027726359    0.0600
29     C29     4.6677   -0.9399    4.8099 C.ar     1 ZINC000027726359   -0.1300
30     C30     5.9428   -0.9768    5.3374 C.ar     1 ZINC000027726359   -0.0800
31     C31     6.8630   -1.8948    4.8651 C.ar     1 ZINC000027726359   -0.1500
32     C32     6.5116   -2.7809    3.8624 C.ar     1 ZINC000027726359   -0.0300
33     C33     5.2379   -2.7567    3.3319 C.ar     1 ZINC000027726359   -0.6200
34     S34     4.7921   -3.8859    2.0549 S.o2     1 ZINC000027726359    2.6600
35     O35     4.0827   -3.1315    1.0819 O.2      1 ZINC000027726359   -1.0000
36     O36     5.9616   -4.6357    1.7560 O.2      1 ZINC000027726359   -1.0200
37     N37     3.7047   -4.9539    2.7025 N.pl3    1 ZINC000027726359   -1.1100
38     C38     3.1905   -5.9383    1.9390 C.2      1 ZINC000027726359    0.6600
39     O39     3.5248   -6.0422    0.7754 O.2      1 ZINC000027726359   -0.6600
40     O40     2.3065   -6.8066    2.4655 O.3      1 ZINC000027726359   -0.3600
41     C41     1.7942   -7.8412    1.5849 C.3      1 ZINC000027726359    0.0800
42     C42     0.8105   -8.7249    2.3545 C.3      1 ZINC000027726359   -0.1100
43     C43     0.2707   -9.8151    1.4265 C.3      1 ZINC000027726359   -0.0900
44     C44     1.4132  -10.7453    1.0139 C.3      1 ZINC000027726359   -0.1500
45     C45    -0.8044  -10.6212    2.1581 C.3      1 ZINC000027726359   -0.1400
46     C46     2.4569   -0.6282    2.6397 C.ar     1 ZINC000027726359   -0.0900
47     C47     1.1848   -0.6032    2.1048 C.ar     1 ZINC000027726359   -0.1000
48     H48    -4.4316   -6.1892    1.6248 H        1 ZINC000027726359    0.0600
49     H49    -2.8931   -6.9244    1.1142 H        1 ZINC000027726359    0.0600
50     H50    -2.9585   -5.9316    2.5901 H        1 ZINC000027726359    0.0600
51     H51    -3.4215   -4.9250   -0.2541 H        1 ZINC000027726359    0.0700
52     H52    -3.4869   -3.9323    1.2219 H        1 ZINC000027726359    0.0600
53     H53    -1.1307   -4.4069    1.6936 H        1 ZINC000027726359    0.0900
54     H54    -1.0466   -5.5182    0.3057 H        1 ZINC000027726359    0.1000
55     H55    -1.6691   -2.7365   -4.8805 H        1 ZINC000027726359    0.0800
56     H56     0.0252   -2.3620   -5.2774 H        1 ZINC000027726359    0.0600
57     H57    -0.3564   -3.7337   -4.2092 H        1 ZINC000027726359    0.0800
58     H58    -0.4864   -0.3111   -5.4972 H        1 ZINC000027726359    0.4100
59     H59    -0.1377    0.1918   -7.2320 H        1 ZINC000027726359    0.1300
60     H60     0.3894    1.0491   -9.4762 H        1 ZINC000027726359    0.1300
61     H61     1.9072    2.9670   -9.7403 H        1 ZINC000027726359    0.1300
62     H62     2.9060    4.0389   -7.7642 H        1 ZINC000027726359    0.1300
63     H63     2.3867    3.2016   -5.5106 H        1 ZINC000027726359    0.1400
64     H64     0.0161    1.3969   -2.4359 H        1 ZINC000027726359    0.1800
65     H65    -1.3813   -0.6721    1.6023 H        1 ZINC000027726359    0.1000
66     H66    -1.6617   -2.3345    2.1732 H        1 ZINC000027726359    0.1000
67     H67     0.2315   -3.7695    2.7866 H        1 ZINC000027726359    0.1200
68     H68     2.5000   -3.8359    3.7363 H        1 ZINC000027726359    0.1800
69     H69     3.9500   -0.2224    5.1792 H        1 ZINC000027726359    0.1300
70     H70     6.2225   -0.2871    6.1201 H        1 ZINC000027726359    0.1300
71     H71     7.8597   -1.9200    5.2804 H        1 ZINC000027726359    0.1300
72     H72     7.2341   -3.4958    3.4973 H        1 ZINC000027726359    0.1400
73     H73     1.2833   -7.3791    0.7402 H        1 ZINC000027726359    0.0600
74     H74     2.6213   -8.4503    1.2203 H        1 ZINC000027726359    0.0600
75     H75     1.3215   -9.1870    3.1992 H        1 ZINC000027726359    0.0700
76     H76    -0.0166   -8.1158    2.7191 H        1 ZINC000027726359    0.0700
77     H77    -0.1618   -9.3547    0.5383 H        1 ZINC000027726359    0.0700
78     H78     1.0286  -11.5220    0.3528 H        1 ZINC000027726359    0.0500
79     H79     2.1791  -10.1710    0.4927 H        1 ZINC000027726359    0.0600
80     H80     1.8458  -11.2057    1.9021 H        1 ZINC000027726359    0.0500
81     H81    -1.6183   -9.9585    2.4521 H        1 ZINC000027726359    0.0500
82     H82    -1.1889  -11.3979    1.4970 H        1 ZINC000027726359    0.0500
83     H83    -0.3718  -11.0816    3.0464 H        1 ZINC000027726359    0.0500
84     H84     3.0788    0.2537    2.5978 H        1 ZINC000027726359    0.1200
85     H85     0.8101    0.3005    1.6473 H        1 ZINC000027726359    0.1200
@<TRIPOS>BOND
1     1     2     1
2     1     48    1
3     1     49    1
4     1     50    1
5     2     3     1
6     2     51    1
7     2     52    1
8     3     4     1
9     3     53    1
10    3     54    1
11    4     22    1
12    4     5     2
13    5     6     1
14    6     21    ar
15    6     7     ar
16    7     8     1
17    7     9     ar
18    8     55    1
19    8     56    1
20    8     57    1
21    9     10    1
22    9     19    ar
23    10    11    am
24    10    58    1
25    11    12    2
26    11    13    1
27    13    18    ar
28    13    14    ar
29    14    15    ar
30    14    59    1
31    15    16    ar
32    15    60    1
33    16    17    ar
34    16    61    1
35    17    18    ar
36    17    62    1
37    18    63    1
38    19    20    ar
39    19    64    1
40    20    21    ar
41    21    22    1
42    22    23    1
43    23    24    1
44    23    65    1
45    23    66    1
46    24    47    ar
47    24    25    ar
48    25    26    ar
49    25    67    1
50    26    27    ar
51    26    68    1
52    27    28    1
53    27    46    ar
54    28    33    ar
55    28    29    ar
56    29    30    ar
57    29    69    1
58    30    31    ar
59    30    70    1
60    31    32    ar
61    31    71    1
62    32    33    ar
63    32    72    1
64    33    34    1
65    34    35    2
66    34    36    2
67    34    37    1
68    37    38    1
69    38    39    2
70    38    40    1
71    40    41    1
72    41    42    1
73    41    73    1
74    41    74    1
75    42    43    1
76    42    75    1
77    42    76    1
78    43    44    1
79    43    45    1
80    43    77    1
81    44    78    1
82    44    79    1
83    44    80    1
84    45    81    1
85    45    82    1
86    45    83    1
87    46    47    ar
88    46    84    1
89    47    85    1
@<TRIPOS>SUBSTRUCTURE
1   ZINC000027726359 1     RESIDUE    1   A     ZIN   1
