@<TRIPOS>MOLECULE
ZINC000000596712
  46   49    0    0    0
SMALL
USER_CHARGES
NO_NAME
@<TRIPOS>ATOM
    1 C1       -0.0184     1.5028     0.0103 C.3    1 <0>      -0.1800
    2 C2        0.0021    -0.0041     0.0020 C.2    1 <0>       0.5100
    3 O3        1.0605    -0.5961    -0.0113 O.2    1 <0>      -0.5500
    4 N4       -1.1558    -0.6938     0.0094 N.am   1 <0>      -0.6100
    5 C5       -2.4422     0.0146     0.0194 C.3    1 <0>       0.1100
    6 C6       -3.2586    -0.4271    -1.2019 C.3    1 <0>      -0.1000
    7 C7       -3.2582    -1.9390    -1.2560 C.2    1 <0>      -0.0500
    8 C8       -4.4062    -2.6224    -1.3393 C.2    1 <0>      -0.0600
    9 C9       -4.3668    -4.1014    -1.3841 C.ar   1 <0>      -0.0300
   10 C10      -3.7397    -4.7784    -2.4259 C.ar   1 <0>      -0.0900
   11 C11      -3.7243    -6.1612    -2.4130 C.ar   1 <0>      -0.1100
   12 C12      -4.3260    -6.8495    -1.3735 C.ar   1 <0>      -0.0300
   13 Cl13     -4.2974    -8.5852    -1.3612 Cl     1 <0>      -0.0700
   14 C14      -4.9502    -6.1663    -0.3428 C.ar   1 <0>      -0.1100
   15 C15      -4.9715    -4.7815    -0.3553 C.ar   1 <0>      -0.0600
   16 C16      -5.6642    -4.0314     0.7404 C.3    1 <0>      -0.0800
   17 C17      -6.9560    -3.3989     0.2982 C.3    1 <0>      -0.0700
   18 C18      -6.8102    -2.2600    -0.6755 C.ar   1 <0>      -0.1100
   19 C19      -7.9775    -1.5074    -0.8598 C.ar   1 <0>      -0.0800
   20 C20      -7.9686    -0.4217    -1.7130 C.ar   1 <0>      -0.1700
   21 C21      -6.7977    -0.0927    -2.3711 C.ar   1 <0>       0.1000
   22 N22      -5.7171    -0.8147    -2.1898 N.ar   1 <0>      -0.4700
   23 C23      -5.6869    -1.8832    -1.3786 C.ar   1 <0>       0.1700
   24 C24      -1.9287    -2.6599    -1.2141 C.3    1 <0>      -0.1100
   25 C25      -1.1457    -2.1623     0.0014 C.3    1 <0>       0.1200
   26 H26       1.0042     1.8801     0.0026 H      1 <0>       0.0900
   27 H27      -0.5455     1.8639    -0.8728 H      1 <0>       0.0900
   28 H28      -0.5286     1.8543     0.9071 H      1 <0>       0.0900
   29 H29      -2.9871    -0.2302     0.9311 H      1 <0>       0.0700
   30 H30      -2.2678     1.0896    -0.0270 H      1 <0>       0.0900
   31 H31      -4.2820    -0.0634    -1.1102 H      1 <0>       0.1000
   32 H32      -2.8065    -0.0273    -2.1096 H      1 <0>       0.0900
   33 H33      -3.2726    -4.2323    -3.2322 H      1 <0>       0.1400
   34 H34      -3.2429    -6.7037    -3.2132 H      1 <0>       0.1400
   35 H35      -5.4174    -6.7098     0.4651 H      1 <0>       0.1400
   36 H36      -5.8734    -4.7203     1.5588 H      1 <0>       0.0800
   37 H37      -4.9980    -3.2496     1.1053 H      1 <0>       0.0800
   38 H38      -7.5743    -4.1684    -0.1640 H      1 <0>       0.0800
   39 H39      -7.4777    -3.0304     1.1815 H      1 <0>       0.0900
   40 H40      -8.8828    -1.7761    -0.3358 H      1 <0>       0.1300
   41 H41      -8.8640     0.1629    -1.8640 H      1 <0>       0.1400
   42 H42      -6.7725     0.7592    -3.0344 H      1 <0>       0.1600
   43 H43      -2.0960    -3.7338    -1.1302 H      1 <0>       0.0900
   44 H44      -1.3662    -2.4456    -2.1228 H      1 <0>       0.0800
   45 H45      -0.1180    -2.5212    -0.0540 H      1 <0>       0.1000
   46 H46      -1.6147    -2.5303     0.9139 H      1 <0>       0.0700
@<TRIPOS>BOND
   1    1    2 1
   2    1   26 1
   3    1   27 1
   4    1   28 1
   5    2    3 2
   6    2    4 am
   7    4   25 1
   8    4    5 1
   9    5    6 1
  10    5   29 1
  11    5   30 1
  12    6    7 1
  13    6   31 1
  14    6   32 1
  15    7    8 2
  16    7   24 1
  17    8   23 1
  18    8    9 1
  19    9   15 ar
  20    9   10 ar
  21   10   11 ar
  22   10   33 1
  23   11   12 ar
  24   11   34 1
  25   12   13 1
  26   12   14 ar
  27   14   15 ar
  28   14   35 1
  29   15   16 1
  30   16   17 1
  31   16   36 1
  32   16   37 1
  33   17   18 1
  34   17   38 1
  35   17   39 1
  36   18   23 ar
  37   18   19 ar
  38   19   20 ar
  39   19   40 1
  40   20   21 ar
  41   20   41 1
  42   21   22 ar
  43   21   42 1
  44   22   23 ar
  45   24   25 1
  46   24   43 1
  47   24   44 1
  48   25   45 1
  49   25   46 1
