@<TRIPOS>MOLECULE
ZINC000006780651
  31   33    0    0    0
SMALL
USER_CHARGES
NO_NAME
@<TRIPOS>ATOM
    1 N1       -0.0168     1.3875     0.0097 N.pl3  1 <0>      -0.8100
    2 C2        0.0021    -0.0041     0.0020 C.ar   1 <0>       0.3300
    3 C3       -1.1924    -0.7322     0.0037 C.ar   1 <0>      -0.1600
    4 C4       -2.4878     0.0326     0.0294 C.3    1 <0>      -0.0800
    5 C5       -3.6495    -0.8648    -0.3937 C.3    1 <0>      -0.1300
    6 C6       -3.5894    -2.1544     0.4334 C.3    1 <0>      -0.1200
    7 C7       -2.3747    -2.9620    -0.0187 C.3    1 <0>      -0.1000
    8 C8       -1.1349    -2.1043    -0.0101 C.ar   1 <0>       0.2000
    9 N9        0.0391    -2.7218    -0.0172 N.ar   1 <0>      -0.4900
   10 H10       0.0523    -3.6917    -0.0240 H      1 <0>       0.4400
   11 C11       1.1912    -2.0752    -0.0159 C.ar   1 <0>       0.1800
   12 C12       1.2109    -0.6967    -0.0132 C.ar   1 <0>      -0.1900
   13 C13       2.6384    -0.1986    -0.0136 C.3    1 <0>      -0.0800
   14 C14       3.4874    -1.4116     0.4235 C.3    1 <0>      -0.1200
   15 C15       2.6113    -2.6033    -0.0230 C.3    1 <0>      -0.0900
   16 H16       0.8166     1.8838     0.0044 H      1 <0>       0.4200
   17 H17      -0.8633     1.8610     0.0163 H      1 <0>       0.4200
   18 H18      -2.6676     0.4012     1.0394 H      1 <0>       0.1000
   19 H19      -2.4194     0.8786    -0.6545 H      1 <0>       0.0900
   20 H20      -4.5944    -0.3538    -0.2090 H      1 <0>       0.0900
   21 H21      -3.5618    -1.1038    -1.4536 H      1 <0>       0.0800
   22 H22      -3.4923    -1.9074     1.4906 H      1 <0>       0.0800
   23 H23      -4.4969    -2.7360     0.2717 H      1 <0>       0.1000
   24 H24      -2.2326    -3.8059     0.6563 H      1 <0>       0.1100
   25 H25      -2.5466    -3.3351    -1.0284 H      1 <0>       0.1200
   26 H26       2.9264     0.1242    -1.0141 H      1 <0>       0.1000
   27 H27       2.7538     0.6200     0.6969 H      1 <0>       0.0900
   28 H28       4.4455    -1.4216    -0.0961 H      1 <0>       0.1000
   29 H29       3.6311    -1.4150     1.5040 H      1 <0>       0.0900
   30 H30       2.7072    -3.4284     0.6828 H      1 <0>       0.1100
   31 H31       2.8950    -2.9267    -1.0246 H      1 <0>       0.1200
@<TRIPOS>BOND
   1    1    2 1
   2    1   16 1
   3    1   17 1
   4    2   12 ar
   5    2    3 ar
   6    3    8 ar
   7    3    4 1
   8    4    5 1
   9    4   18 1
  10    4   19 1
  11    5    6 1
  12    5   20 1
  13    5   21 1
  14    6    7 1
  15    6   22 1
  16    6   23 1
  17    7    8 1
  18    7   24 1
  19    7   25 1
  20    8    9 ar
  21    9   10 1
  22    9   11 ar
  23   11   15 1
  24   11   12 ar
  25   12   13 1
  26   13   14 1
  27   13   26 1
  28   13   27 1
  29   14   15 1
  30   14   28 1
  31   14   29 1
  32   15   30 1
  33   15   31 1
