@<TRIPOS>MOLECULE
ZINC000000009057
  24   26    0    0    0
SMALL
USER_CHARGES
NO_NAME
@<TRIPOS>ATOM
    1 C1       -0.0178     1.4608     0.0101 C.3    1 <0>       0.0900
    2 N2        0.0021    -0.0041     0.0020 N.am   1 <0>      -0.9900
    3 C3       -1.2492    -0.7693     0.0037 C.3    1 <0>       0.1600
    4 C4       -1.3432    -1.7460    -1.1266 C.ar   1 <0>      -0.0800
    5 C5       -0.1942    -2.3374    -1.6915 C.ar   1 <0>      -0.0300
    6 C6       -0.2680    -3.2772    -2.7223 C.ar   1 <0>      -0.1500
    7 C7       -1.5065    -3.6506    -3.2544 C.ar   1 <0>      -0.0700
    8 C8       -2.6231    -3.0447    -2.7017 C.ar   1 <0>      -0.1000
    9 C9       -2.5422    -2.1221    -1.6690 C.ar   1 <0>      -0.0900
   10 S10       1.3418    -3.8098    -3.1410 S.3    1 <0>       0.1400
   11 C11       2.0797    -2.7468    -1.9508 C.2    1 <0>      -0.0500
   12 C12       1.1793    -2.0511    -1.2874 C.2    1 <0>      -0.6600
   13 S13       1.4526    -0.8380    -0.0163 S.o2   1 <0>       2.7000
   14 O14       2.4451     0.0578    -0.4979 O.2    1 <0>      -0.9400
   15 O15       1.5464    -1.5369     1.2174 O.2    1 <0>      -0.9400
   16 H16       1.0048     1.8381     0.0023 H      1 <0>       0.0900
   17 H17      -0.5450     1.8219    -0.8730 H      1 <0>       0.0700
   18 H18      -0.5280     1.8123     0.9069 H      1 <0>       0.0700
   19 H19      -1.3254    -1.3142     0.9447 H      1 <0>       0.1000
   20 H20      -2.0855    -0.0735    -0.0641 H      1 <0>       0.1100
   21 H21      -1.5879    -4.3724    -4.0536 H      1 <0>       0.1400
   22 H22      -3.5971    -3.3011    -3.0913 H      1 <0>       0.1300
   23 H23      -3.4520    -1.6881    -1.2813 H      1 <0>       0.1400
   24 H24       3.1441    -2.6736    -1.7831 H      1 <0>       0.1800
@<TRIPOS>BOND
   1    1    2 1
   2    1   16 1
   3    1   17 1
   4    1   18 1
   5    2   13 am
   6    2    3 1
   7    3    4 1
   8    3   19 1
   9    3   20 1
  10    4    9 ar
  11    4    5 ar
  12    5   12 1
  13    5    6 ar
  14    6    7 ar
  15    6   10 1
  16    7    8 ar
  17    7   21 1
  18    8    9 ar
  19    8   22 1
  20    9   23 1
  21   10   11 1
  22   11   12 2
  23   11   24 1
  24   12   13 1
  25   13   14 2
  26   13   15 2
