@<TRIPOS>MOLECULE
ZINC000039187987
51    53    1     0     0
SMALL
USER_CHARGES
@<TRIPOS>ATOM
1      C1     -1.6013   -0.6881    2.3493 C.3      1 ZINC000039187987    0.0300
2      O2     -2.1291   -0.9700    1.0516 O.3      1 ZINC000039187987   -0.2900
3      C3     -2.5117   -2.2523    0.8056 C.ar     1 ZINC000039187987    0.1500
4      C4     -2.2418   -3.2464    1.7331 C.ar     1 ZINC000039187987   -0.1900
5      C5     -2.6298   -4.5526    1.4849 C.ar     1 ZINC000039187987    0.1100
6      F6     -2.3647   -5.5182    2.3918 F        1 ZINC000039187987   -0.1200
7      C7     -3.2894   -4.8710    0.3095 C.ar     1 ZINC000039187987    0.0500
8      F8     -3.6668   -6.1462    0.0711 F        1 ZINC000039187987   -0.1100
9      C9     -3.5637   -3.8794   -0.6246 C.ar     1 ZINC000039187987    0.1600
10     N10    -4.2312   -4.2008   -1.8146 N.pl3    1 ZINC000039187987   -0.7100
11     C11    -5.6016   -3.9504   -1.9371 C.ar     1 ZINC000039187987    0.1600
12     C12    -6.1030   -2.6823   -1.6773 C.ar     1 ZINC000039187987   -0.1200
13     C13    -7.4575   -2.4375   -1.7996 C.ar     1 ZINC000039187987   -0.0700
14     C14    -8.3145   -3.4540   -2.1801 C.ar     1 ZINC000039187987   -0.0900
15     I15   -10.3671   -3.0766   -2.3631 I        1 ZINC000039187987   -0.0200
16     C16    -7.8194   -4.7197   -2.4406 C.ar     1 ZINC000039187987   -0.1000
17     C17    -6.4649   -4.9703   -2.3253 C.ar     1 ZINC000039187987    0.0800
18     F18    -5.9813   -6.2058   -2.5801 F        1 ZINC000039187987   -0.1300
19     C19    -3.1788   -2.5651   -0.3739 C.ar     1 ZINC000039187987    0.1400
20     N20    -3.4539   -1.5595   -1.3150 N.am     1 ZINC000039187987   -1.0500
21     S21    -3.8709   -0.0401   -0.8052 S.o2     1 ZINC000039187987    2.6400
22     O22    -4.9764    0.3135   -1.6250 O.2      1 ZINC000039187987   -0.9500
23     O23    -4.0146   -0.1699    0.6025 O.2      1 ZINC000039187987   -0.8900
24     C24    -2.4281    0.9838   -1.2060 C.3      1 ZINC000039187987   -0.6400
25     C25    -2.6111    2.4895   -1.0053 C.3      1 ZINC000039187987   -0.1000
26     C26    -2.7501    2.7917    0.4881 C.3      1 ZINC000039187987    0.1000
27     H27    -1.9709    2.2653    1.0394 H        1 ZINC000039187987    0.1200
28     O28    -4.0327    2.3577    0.9446 O.3      1 ZINC000039187987   -0.5400
29     C29    -2.6094    4.2977    0.7189 C.3      1 ZINC000039187987    0.0400
30     O30    -2.6341    4.5689    2.1217 O.3      1 ZINC000039187987   -0.5600
31     C31    -1.0442    0.3960   -0.9230 C.3      1 ZINC000039187987   -0.1100
32     C32    -1.5387    0.5285   -2.3648 C.3      1 ZINC000039187987   -0.1300
33     H33    -1.4296    0.3839    2.4466 H        1 ZINC000039187987    0.1000
34     H34    -2.3122   -1.0127    3.1091 H        1 ZINC000039187987    0.0700
35     H35    -0.6594   -1.2204    2.4819 H        1 ZINC000039187987    0.0600
36     H36    -1.7277   -3.0021    2.6509 H        1 ZINC000039187987    0.1600
37     H37    -3.7427   -4.5970   -2.5530 H        1 ZINC000039187987    0.4200
38     H38    -5.4350   -1.8876   -1.3794 H        1 ZINC000039187987    0.1400
39     H39    -7.8474   -1.4509   -1.5975 H        1 ZINC000039187987    0.1400
40     H40    -8.4913   -5.5114   -2.7375 H        1 ZINC000039187987    0.1500
41     H41    -3.3995   -1.7549   -2.2635 H        1 ZINC000039187987    0.4200
42     H42    -1.7446    3.0171   -1.4037 H        1 ZINC000039187987    0.1000
43     H43    -3.5091    2.8191   -1.5278 H        1 ZINC000039187987    0.0800
44     H44    -4.7739    2.7295    0.4470 H        1 ZINC000039187987    0.3700
45     H45    -1.6647    4.6429    0.2987 H        1 ZINC000039187987    0.0500
46     H46    -3.4348    4.8183    0.2335 H        1 ZINC000039187987    0.0500
47     H47    -2.5494    5.5066    2.3425 H        1 ZINC000039187987    0.3800
48     H48    -0.2638    1.0820   -0.5936 H        1 ZINC000039187987    0.1100
49     H49    -1.0006   -0.6059   -0.4959 H        1 ZINC000039187987    0.1200
50     H50    -1.8206   -0.3862   -2.8862 H        1 ZINC000039187987    0.1000
51     H51    -1.0837    1.3017   -2.9839 H        1 ZINC000039187987    0.1100
@<TRIPOS>BOND
1     1     2     1
2     1     33    1
3     1     34    1
4     1     35    1
5     2     3     1
6     3     19    ar
7     3     4     ar
8     4     5     ar
9     4     36    1
10    5     6     1
11    5     7     ar
12    7     8     1
13    7     9     ar
14    9     10    1
15    9     19    ar
16    10    11    1
17    10    37    1
18    11    17    ar
19    11    12    ar
20    12    13    ar
21    12    38    1
22    13    14    ar
23    13    39    1
24    14    15    1
25    14    16    ar
26    16    17    ar
27    16    40    1
28    17    18    1
29    19    20    1
30    20    21    am
31    20    41    1
32    21    22    2
33    21    23    2
34    21    24    1
35    24    32    1
36    24    25    1
37    24    31    1
38    25    26    1
39    25    42    1
40    25    43    1
41    26    27    1
42    26    28    1
43    26    29    1
44    28    44    1
45    29    30    1
46    29    45    1
47    29    46    1
48    30    47    1
49    31    32    1
50    31    48    1
51    31    49    1
52    32    50    1
53    32    51    1
@<TRIPOS>SUBSTRUCTURE
1   ZINC000039187987 1     RESIDUE    1   A     ZIN   1
