@<TRIPOS>MOLECULE
ZINC000003782895
61    62    1     0     0
SMALL
USER_CHARGES
@<TRIPOS>ATOM
1      C1     -0.0187    1.5258    0.0104 C.3      1 ZINC000003782895   -0.1500
2      C2      0.0021   -0.0041    0.0020 C.3      1 ZINC000003782895    0.0600
3      O3     -1.3601   -0.5067    0.0123 O.3      1 ZINC000003782895   -0.3600
4      C4     -1.5179   -1.8396    0.0067 C.2      1 ZINC000003782895    0.4300
5      O5     -0.5499   -2.5625   -0.0065 O.2      1 ZINC000003782895   -0.4900
6      C6     -2.9025   -2.4345    0.0167 C.3      1 ZINC000003782895    0.1000
7      H7     -3.4476   -2.1011   -0.8663 H        1 ZINC000003782895    0.1200
8      C8     -3.6438   -1.9799    1.2755 C.3      1 ZINC000003782895   -0.0900
9      C9     -5.0887   -2.4806    1.2254 C.3      1 ZINC000003782895   -0.0800
10     C10    -5.8189   -2.0328    2.4653 C.ar     1 ZINC000003782895   -0.0800
11     C11    -5.8195   -2.8316    3.5935 C.ar     1 ZINC000003782895   -0.1100
12     C12    -6.4892   -2.4209    4.7308 C.ar     1 ZINC000003782895   -0.1200
13     C13    -7.1580   -1.2111    4.7401 C.ar     1 ZINC000003782895   -0.1300
14     C14    -7.1567   -0.4119    3.6122 C.ar     1 ZINC000003782895   -0.1200
15     C15    -6.4833   -0.8207    2.4763 C.ar     1 ZINC000003782895   -0.1200
16     N16    -2.8057   -3.9003    0.0079 N.3      1 ZINC000003782895   -0.6400
17     C17    -2.6648   -4.4104   -1.3625 C.3      1 ZINC000003782895    0.0900
18     H18    -3.2448   -3.7874   -2.0434 H        1 ZINC000003782895    0.1000
19     C19    -1.1906   -4.3761   -1.7703 C.3      1 ZINC000003782895   -0.1700
20     C20    -3.1706   -5.8286   -1.4251 C.2      1 ZINC000003782895    0.5600
21     O21    -3.6058   -6.3623   -0.4258 O.2      1 ZINC000003782895   -0.4800
22     N22    -3.1395   -6.5047   -2.5914 N.am     1 ZINC000003782895   -0.4200
23     N23    -2.6548   -5.9665   -3.7633 N.2      1 ZINC000003782895   -0.2600
24     C24    -2.6443   -6.6455   -4.8493 C.2      1 ZINC000003782895    0.1400
25     C25    -2.1418   -6.1693   -6.1879 C.3      1 ZINC000003782895    0.0200
26     C26    -1.6370   -4.7306   -6.0608 C.3      1 ZINC000003782895   -0.1300
27     C27    -0.9977   -7.0721   -6.6536 C.3      1 ZINC000003782895   -0.1400
28     C28    -3.2807   -6.2219   -7.2082 C.3      1 ZINC000003782895   -0.1400
29     S29    -3.3245   -8.2437   -4.4992 S.3      1 ZINC000003782895   -0.1600
30     C30    -3.6141   -7.8900   -2.7333 C.3      1 ZINC000003782895    0.0800
31     H31    -4.6761   -7.9548   -2.4964 H        1 ZINC000003782895    0.1100
32     C32    -2.8178   -8.8288   -1.8641 C.2      1 ZINC000003782895    0.5100
33     O33    -3.3802   -9.7291   -1.2644 O.co2    1 ZINC000003782895   -0.6700
34     O34    -1.6112   -8.6881   -1.7607 O.co2    1 ZINC000003782895   -0.6600
35     H35     1.0039    1.9031    0.0027 H        1 ZINC000003782895    0.0800
36     H36    -0.5459    1.8868   -0.8726 H        1 ZINC000003782895    0.0700
37     H37    -0.5289    1.8773    0.9072 H        1 ZINC000003782895    0.0700
38     H38     0.5123   -0.3556   -0.8948 H        1 ZINC000003782895    0.0700
39     H39     0.5293   -0.3651    0.8851 H        1 ZINC000003782895    0.0700
40     H40    -3.1482   -2.3880    2.1564 H        1 ZINC000003782895    0.0700
41     H41    -3.6382   -0.8911    1.3272 H        1 ZINC000003782895    0.0800
42     H42    -5.5843   -2.0725    0.3445 H        1 ZINC000003782895    0.0700
43     H43    -5.0943   -3.5694    1.1737 H        1 ZINC000003782895    0.1000
44     H44    -5.2970   -3.7768    3.5862 H        1 ZINC000003782895    0.1300
45     H45    -6.4903   -3.0453    5.6120 H        1 ZINC000003782895    0.1200
46     H46    -7.6819   -0.8905    5.6285 H        1 ZINC000003782895    0.1200
47     H47    -7.6795    0.5331    3.6194 H        1 ZINC000003782895    0.1200
48     H48    -6.4822   -0.1963    1.5951 H        1 ZINC000003782895    0.1200
49     H49    -2.0454   -4.2160    0.5912 H        1 ZINC000003782895    0.3600
50     H50    -0.6107   -4.9991   -1.0894 H        1 ZINC000003782895    0.0600
51     H51    -1.0861   -4.7546   -2.7872 H        1 ZINC000003782895    0.0800
52     H52    -0.8248   -3.3504   -1.7251 H        1 ZINC000003782895    0.0700
53     H53    -0.8256   -4.6931   -5.3339 H        1 ZINC000003782895    0.0600
54     H54    -1.2736   -4.3863   -7.0290 H        1 ZINC000003782895    0.0600
55     H55    -2.4521   -4.0875   -5.7290 H        1 ZINC000003782895    0.0600
56     H56    -1.3574   -8.0970   -6.7441 H        1 ZINC000003782895    0.0700
57     H57    -0.6343   -6.7277   -7.6218 H        1 ZINC000003782895    0.0700
58     H58    -0.1863   -7.0346   -5.9267 H        1 ZINC000003782895    0.0600
59     H59    -4.0958   -5.5788   -6.8764 H        1 ZINC000003782895    0.0600
60     H60    -2.9173   -5.8776   -8.1764 H        1 ZINC000003782895    0.0700
61     H61    -3.6404   -7.2469   -7.2988 H        1 ZINC000003782895    0.0600
@<TRIPOS>BOND
1     1     2     1
2     1     35    1
3     1     36    1
4     1     37    1
5     2     3     1
6     2     38    1
7     2     39    1
8     3     4     1
9     4     5     2
10    4     6     1
11    6     7     1
12    6     8     1
13    6     16    1
14    8     9     1
15    8     40    1
16    8     41    1
17    9     10    1
18    9     42    1
19    9     43    1
20    10    15    ar
21    10    11    ar
22    11    12    ar
23    11    44    1
24    12    13    ar
25    12    45    1
26    13    14    ar
27    13    46    1
28    14    15    ar
29    14    47    1
30    15    48    1
31    16    17    1
32    16    49    1
33    17    18    1
34    17    19    1
35    17    20    1
36    19    50    1
37    19    51    1
38    19    52    1
39    20    21    2
40    20    22    am
41    22    30    1
42    22    23    1
43    23    24    2
44    24    25    1
45    24    29    1
46    25    26    1
47    25    27    1
48    25    28    1
49    26    53    1
50    26    54    1
51    26    55    1
52    27    56    1
53    27    57    1
54    27    58    1
55    28    59    1
56    28    60    1
57    28    61    1
58    29    30    1
59    30    31    1
60    30    32    1
61    32    33    ar
62    32    34    ar
@<TRIPOS>SUBSTRUCTURE
1   ZINC000003782895 1     RESIDUE    1   A     ZIN   1
