@<TRIPOS>MOLECULE
ZINC000043195316
  44   48    0    0    0
SMALL
USER_CHARGES
NO_NAME
@<TRIPOS>ATOM
    1 O1       -0.0173     1.4248     0.0099 O.3    1 <0>      -0.5700
    2 C2        0.0021    -0.0041     0.0020 C.3    1 <0>       0.0700
    3 C3       -1.4333    -0.5336     0.0129 C.3    1 <0>       0.1300
    4 N4       -1.4134    -1.9985     0.0048 N.pl3  1 <0>      -0.3600
    5 C5       -2.0246    -2.8010     0.8974 C.2    1 <0>       0.1100
    6 C6       -1.7631    -4.0926     0.5385 C.2    1 <0>      -0.2100
    7 C7       -2.2377    -5.3102     1.2387 C.ar   1 <0>       0.2500
    8 C8       -3.1237    -5.1956     2.3174 C.ar   1 <0>       0.0700
    9 N9       -3.5507    -6.2685     2.9453 N.ar   1 <0>      -0.3600
   10 C10      -3.1402    -7.4778     2.5553 C.ar   1 <0>       0.1200
   11 N11      -3.4039    -8.7224     2.9992 N.2    1 <0>      -0.1900
   12 N12      -2.7662    -9.5913     2.2976 N.2    1 <0>       0.0400
   13 N13      -2.0155    -8.9357     1.3109 N.pl3  1 <0>      -0.3700
   14 C14      -1.1512    -9.5616     0.3072 C.3    1 <0>       0.1800
   15 C15      -1.9557    -9.8625    -0.9311 C.ar   1 <0>      -0.1200
   16 C16      -2.6027   -11.0906    -1.0489 C.ar   1 <0>      -0.0800
   17 C17      -3.3373   -11.3944    -2.1537 C.ar   1 <0>      -0.0900
   18 C18      -3.4492   -10.4580    -3.1960 C.ar   1 <0>       0.1400
   19 N19      -4.1643   -10.7283    -4.2928 N.ar   1 <0>      -0.4800
   20 C20      -4.2721    -9.8584    -5.2674 C.ar   1 <0>       0.1400
   21 C21      -3.6495    -8.6131    -5.2110 C.ar   1 <0>      -0.1800
   22 C22      -2.9037    -8.2728    -4.1187 C.ar   1 <0>      -0.0500
   23 C23      -2.7905    -9.2093    -3.0738 C.ar   1 <0>      -0.1100
   24 C24      -2.0452    -8.9282    -1.9177 C.ar   1 <0>      -0.0600
   25 C25      -2.2496    -7.5921     1.4701 C.ar   1 <0>       0.2400
   26 N26      -1.8265    -6.5069     0.8386 N.ar   1 <0>      -0.4400
   27 C27      -0.9604    -4.0566    -0.6195 C.2    1 <0>       0.1000
   28 N28      -0.7610    -2.8049    -0.9354 N.2    1 <0>      -0.2900
   29 H29       0.8606     1.8301     0.0037 H      1 <0>       0.3900
   30 H30       0.5123    -0.3556    -0.8948 H      1 <0>       0.0600
   31 H31       0.5293    -0.3651     0.8851 H      1 <0>       0.0500
   32 H32      -1.9435    -0.1821     0.9097 H      1 <0>       0.1100
   33 H33      -1.9605    -0.1726    -0.8702 H      1 <0>       0.1000
   34 H34      -2.6146    -2.4811     1.7436 H      1 <0>       0.1900
   35 H35      -3.4579    -4.2192     2.6357 H      1 <0>       0.1900
   36 H36      -0.3365    -8.8828     0.0551 H      1 <0>       0.1200
   37 H37      -0.7410   -10.4885     0.7081 H      1 <0>       0.1200
   38 H38      -2.5198   -11.8135    -0.2508 H      1 <0>       0.1400
   39 H39      -3.8320   -12.3515    -2.2294 H      1 <0>       0.1400
   40 H40      -4.8588   -10.1138    -6.1374 H      1 <0>       0.1600
   41 H41      -3.7564    -7.9178    -6.0305 H      1 <0>       0.1400
   42 H42      -2.4140    -7.3121    -4.0585 H      1 <0>       0.1400
   43 H43      -1.5425    -7.9781    -1.8133 H      1 <0>       0.1400
   44 H44      -0.5804    -4.9142    -1.1547 H      1 <0>       0.1900
@<TRIPOS>BOND
   1    1    2 1
   2    1   29 1
   3    2    3 1
   4    2   30 1
   5    2   31 1
   6    3    4 1
   7    3   32 1
   8    3   33 1
   9    4   28 1
  10    4    5 1
  11    5    6 2
  12    5   34 1
  13    6    7 1
  14    6   27 1
  15    7   26 ar
  16    7    8 ar
  17    8    9 ar
  18    8   35 1
  19    9   10 ar
  20   10   25 ar
  21   10   11 1
  22   11   12 2
  23   12   13 1
  24   13   14 1
  25   13   25 1
  26   14   15 1
  27   14   36 1
  28   14   37 1
  29   15   24 ar
  30   15   16 ar
  31   16   17 ar
  32   16   38 1
  33   17   18 ar
  34   17   39 1
  35   18   23 ar
  36   18   19 ar
  37   19   20 ar
  38   20   21 ar
  39   20   40 1
  40   21   22 ar
  41   21   41 1
  42   22   23 ar
  43   22   42 1
  44   23   24 ar
  45   24   43 1
  46   25   26 ar
  47   27   28 2
  48   27   44 1
