@<TRIPOS>MOLECULE
ZINC000003940089
96    100   1     0     0
SMALL
USER_CHARGES
@<TRIPOS>ATOM
1      O1      0.0016   -0.0038   -0.0034 O.2      1 ZINC000003940089   -0.5500
2      C2     -0.0145    1.2111    0.0117 C.2      1 ZINC000003940089    0.6500
3      N3      1.1435    1.9006    0.0013 N.am     1 ZINC000003940089   -0.6400
4      C4      2.3619    1.2217    0.0916 C.ar     1 ZINC000003940089    0.1600
5      C5      2.4197   -0.0284    0.6892 C.ar     1 ZINC000003940089   -0.1300
6      C6      3.6253   -0.6979    0.7780 C.ar     1 ZINC000003940089   -0.0900
7      C7      4.7799   -0.1274    0.2721 C.ar     1 ZINC000003940089   -0.1200
8      C8      4.7374    1.1164   -0.3255 C.ar     1 ZINC000003940089   -0.0800
9      C9      3.5275    1.7983   -0.4260 C.ar     1 ZINC000003940089   -0.0700
10     C10     3.4764    3.1347   -1.0671 C.ar     1 ZINC000003940089   -0.0600
11     C11     2.5288    3.4015   -2.0537 C.ar     1 ZINC000003940089   -0.1200
12     C12     2.4856    4.6470   -2.6465 C.ar     1 ZINC000003940089   -0.1200
13     C13     3.3805    5.6297   -2.2632 C.ar     1 ZINC000003940089   -0.1100
14     C14     4.3231    5.3705   -1.2846 C.ar     1 ZINC000003940089   -0.1100
15     C15     4.3722    4.1303   -0.6812 C.ar     1 ZINC000003940089   -0.1000
16     O16    -1.1894    1.8686    0.0333 O.3      1 ZINC000003940089   -0.3500
17     C17    -2.3964    1.0616    0.0372 C.3      1 ZINC000003940089    0.1000
18     C18    -2.8112    0.7675    1.4817 C.3      1 ZINC000003940089   -0.1700
19     C19    -4.1261   -0.0150    1.4798 C.3      1 ZINC000003940089    0.0000
20     N20    -5.1708    0.7783    0.8211 N.4      1 ZINC000003940089   -0.3900
21     H21    -5.2628    1.6670    1.2900 H        1 ZINC000003940089    0.4200
22     C22    -6.4481    0.0560    0.8891 C.3      1 ZINC000003940089   -0.0100
23     C23    -7.5096    0.8212    0.0963 C.3      1 ZINC000003940089   -0.1500
24     C24    -8.8400    0.0688    0.1671 C.3      1 ZINC000003940089   -0.1200
25     C25    -9.9014    0.8340   -0.6258 C.3      1 ZINC000003940089   -0.1200
26     C26   -11.2318    0.0817   -0.5550 C.3      1 ZINC000003940089   -0.1200
27     C27   -12.2933    0.8469   -1.3478 C.3      1 ZINC000003940089   -0.1200
28     C28   -13.6236    0.0946   -1.2770 C.3      1 ZINC000003940089   -0.1200
29     C29   -14.6851    0.8598   -2.0699 C.3      1 ZINC000003940089   -0.1500
30     C30   -16.0155    0.1074   -1.9991 C.3      1 ZINC000003940089   -0.0100
31     N31   -17.0346    0.8421   -2.7603 N.4      1 ZINC000003940089   -0.5100
32     H32   -17.1484    1.7643   -2.3670 H        1 ZINC000003940089    0.4300
33     H33   -16.7435    0.9207   -3.7232 H        1 ZINC000003940089    0.4300
34     C34   -18.3120    0.1198   -2.6923 C.3      1 ZINC000003940089   -0.0500
35     C35   -19.3734    0.8850   -3.4852 C.3      1 ZINC000003940089    0.1600
36     H36   -19.0590    0.9699   -4.5254 H        1 ZINC000003940089    0.1100
37     O37   -19.5346    2.1911   -2.9281 O.3      1 ZINC000003940089   -0.5600
38     C38   -20.6838    0.1440   -3.4154 C.ar     1 ZINC000003940089   -0.2700
39     C39   -21.6148    0.4863   -2.4767 C.ar     1 ZINC000003940089   -0.0400
40     C40   -22.8256   -0.1884   -2.4021 C.ar     1 ZINC000003940089   -0.2700
41     C41   -23.1120   -1.2197   -3.2766 C.ar     1 ZINC000003940089    0.2700
42     O42   -24.3009   -1.8744   -3.1953 O.3      1 ZINC000003940089   -0.6800
43     C43   -22.1743   -1.5852   -4.2440 C.ar     1 ZINC000003940089    0.0700
44     C44   -20.9523   -0.8932   -4.3163 C.ar     1 ZINC000003940089   -0.0700
45     C45   -19.9749   -1.2836   -5.3341 C.2      1 ZINC000003940089   -0.0500
46     C46   -20.2850   -2.3025   -6.1733 C.2      1 ZINC000003940089   -0.2000
47     C47   -21.5262   -2.9647   -6.0594 C.2      1 ZINC000003940089    0.5100
48     O48   -21.7851   -3.8778   -6.8242 O.2      1 ZINC000003940089   -0.5700
49     N49   -22.4317   -2.6105   -5.1306 N.am     1 ZINC000003940089   -0.5900
50     C50    -4.8135    1.0031   -0.5847 C.3      1 ZINC000003940089   -0.0100
51     C51    -3.5249    1.8248   -0.6622 C.3      1 ZINC000003940089   -0.1500
52     H52     1.1314    2.8680   -0.0687 H        1 ZINC000003940089    0.4200
53     H53     1.5219   -0.4789    1.0859 H        1 ZINC000003940089    0.1500
54     H54     3.6666   -1.6709    1.2447 H        1 ZINC000003940089    0.1300
55     H55     5.7182   -0.6571    0.3454 H        1 ZINC000003940089    0.1300
56     H56     5.6411    1.5582   -0.7187 H        1 ZINC000003940089    0.1300
57     H57     1.8298    2.6348   -2.3539 H        1 ZINC000003940089    0.1200
58     H58     1.7519    4.8547   -3.4113 H        1 ZINC000003940089    0.1200
59     H59     3.3433    6.6029   -2.7300 H        1 ZINC000003940089    0.1300
60     H60     5.0194    6.1415   -0.9892 H        1 ZINC000003940089    0.1300
61     H61     5.1083    3.9292    0.0830 H        1 ZINC000003940089    0.1300
62     H62    -2.2102    0.1247   -0.4877 H        1 ZINC000003940089    0.1100
63     H63    -2.0364    0.1761    1.9696 H        1 ZINC000003940089    0.1200
64     H64    -2.9467    1.7058    2.0197 H        1 ZINC000003940089    0.1000
65     H65    -3.9894   -0.9531    0.9419 H        1 ZINC000003940089    0.1300
66     H66    -4.4242   -0.2262    2.5068 H        1 ZINC000003940089    0.1400
67     H67    -6.3252   -0.9403    0.4642 H        1 ZINC000003940089    0.1300
68     H68    -6.7626   -0.0289    1.9293 H        1 ZINC000003940089    0.1300
69     H69    -7.6325    1.8174    0.5211 H        1 ZINC000003940089    0.0900
70     H70    -7.1951    0.9061   -0.9439 H        1 ZINC000003940089    0.0900
71     H71    -8.7171   -0.9274   -0.2578 H        1 ZINC000003940089    0.0700
72     H72    -9.1544   -0.0161    1.2073 H        1 ZINC000003940089    0.0700
73     H73   -10.0243    1.8303   -0.2009 H        1 ZINC000003940089    0.0700
74     H74    -9.5870    0.9189   -1.6660 H        1 ZINC000003940089    0.0700
75     H75   -11.1089   -0.9145   -0.9799 H        1 ZINC000003940089    0.0700
76     H76   -11.5463   -0.0032    0.4852 H        1 ZINC000003940089    0.0700
77     H77   -12.4162    1.8431   -0.9229 H        1 ZINC000003940089    0.0700
78     H78   -11.9788    0.9318   -2.3880 H        1 ZINC000003940089    0.0700
79     H79   -13.5007   -0.9017   -1.7019 H        1 ZINC000003940089    0.0700
80     H80   -13.9381    0.0097   -0.2368 H        1 ZINC000003940089    0.0700
81     H81   -14.8080    1.8560   -1.6450 H        1 ZINC000003940089    0.0900
82     H82   -14.3706    0.9447   -3.1101 H        1 ZINC000003940089    0.0900
83     H83   -15.8926   -0.8888   -2.4239 H        1 ZINC000003940089    0.1300
84     H84   -16.3300    0.0225   -0.9589 H        1 ZINC000003940089    0.1300
85     H85   -18.1891   -0.8764   -3.1172 H        1 ZINC000003940089    0.1400
86     H86   -18.6264    0.0349   -1.6521 H        1 ZINC000003940089    0.1400
87     H87   -19.8140    2.1921   -2.0024 H        1 ZINC000003940089    0.3800
88     H88   -21.4068    1.2896   -1.7855 H        1 ZINC000003940089    0.1000
89     H89   -23.5506    0.0949   -1.6534 H        1 ZINC000003940089    0.1100
90     H90   -19.0277   -0.7711   -5.4150 H        1 ZINC000003940089    0.1200
91     H91   -19.5798   -2.6081   -6.9321 H        1 ZINC000003940089    0.1400
92     H92   -23.2753   -3.0865   -5.0793 H        1 ZINC000003940089    0.4200
93     H93    -4.6621    0.0433   -1.0786 H        1 ZINC000003940089    0.1300
94     H94    -5.6190    1.5436   -1.0819 H        1 ZINC000003940089    0.1400
95     H95    -3.6753    2.7850   -0.1688 H        1 ZINC000003940089    0.1000
96     H96    -3.2604    1.9892   -1.7068 H        1 ZINC000003940089    0.1200
@<TRIPOS>BOND
1     1     2     2
2     2     3     am
3     2     16    1
4     3     4     1
5     3     52    1
6     4     9     ar
7     4     5     ar
8     5     6     ar
9     5     53    1
10    6     7     ar
11    6     54    1
12    7     8     ar
13    7     55    1
14    8     9     ar
15    8     56    1
16    9     10    1
17    10    15    ar
18    10    11    ar
19    11    12    ar
20    11    57    1
21    12    13    ar
22    12    58    1
23    13    14    ar
24    13    59    1
25    14    15    ar
26    14    60    1
27    15    61    1
28    16    17    1
29    17    51    1
30    17    18    1
31    17    62    1
32    18    19    1
33    18    63    1
34    18    64    1
35    19    20    1
36    19    65    1
37    19    66    1
38    20    21    1
39    20    22    1
40    20    50    1
41    22    23    1
42    22    67    1
43    22    68    1
44    23    24    1
45    23    69    1
46    23    70    1
47    24    25    1
48    24    71    1
49    24    72    1
50    25    26    1
51    25    73    1
52    25    74    1
53    26    27    1
54    26    75    1
55    26    76    1
56    27    28    1
57    27    77    1
58    27    78    1
59    28    29    1
60    28    79    1
61    28    80    1
62    29    30    1
63    29    81    1
64    29    82    1
65    30    31    1
66    30    83    1
67    30    84    1
68    31    32    1
69    31    33    1
70    31    34    1
71    34    35    1
72    34    85    1
73    34    86    1
74    35    36    1
75    35    37    1
76    35    38    1
77    37    87    1
78    38    44    ar
79    38    39    ar
80    39    40    ar
81    39    88    1
82    40    41    ar
83    40    89    1
84    41    42    1
85    41    43    ar
86    43    49    1
87    43    44    ar
88    44    45    1
89    45    46    2
90    45    90    1
91    46    47    1
92    46    91    1
93    47    48    2
94    47    49    am
95    49    92    1
96    50    51    1
97    50    93    1
98    50    94    1
99    51    95    1
100   51    96    1
@<TRIPOS>SUBSTRUCTURE
1   ZINC000003940089 1     RESIDUE    1   A     ZIN   1
