@<TRIPOS>MOLECULE
ZINC000003959536
47    51    1     0     0
SMALL
USER_CHARGES
@<TRIPOS>ATOM
1      C1     -0.0184    1.5028    0.0103 C.3      1 ZINC000003959536   -0.1000
2      C2      0.0021   -0.0041    0.0020 C.ar     1 ZINC000003959536    0.1300
3      C3      0.0056   -0.6792   -1.2043 C.ar     1 ZINC000003959536   -0.1600
4      C4      0.0249   -2.0672   -1.2077 C.ar     1 ZINC000003959536   -0.0700
5      C5      0.0401   -2.7307    0.0064 C.ar     1 ZINC000003959536   -0.1500
6      C6      0.0355   -1.9863    1.1850 C.ar     1 ZINC000003959536    0.2000
7      C7      0.0520   -2.6818    2.4938 C.2      1 ZINC000003959536    0.1400
8      N8     -0.3703   -3.9014    2.7355 N.2      1 ZINC000003959536   -0.2400
9      N9     -0.1833   -4.1883    4.0987 N.pl3    1 ZINC000003959536   -0.3800
10     C10    -0.4037   -5.2798    5.0647 C.3      1 ZINC000003959536    0.1300
11     C11     0.4803   -4.9399    6.2832 C.3      1 ZINC000003959536   -0.1300
12     C12     0.5897   -3.4025    6.1720 C.3      1 ZINC000003959536   -0.0700
13     C13     0.3696   -3.1210    4.6999 C.2      1 ZINC000003959536    0.0900
14     C14     0.5479   -2.1418    3.7598 C.2      1 ZINC000003959536   -0.1800
15     C15     1.1280   -0.7997    3.9812 C.ar     1 ZINC000003959536    0.1000
16     C16     0.3096    0.3024    4.3429 C.ar     1 ZINC000003959536   -0.0900
17     C17    -1.0715    0.1575    4.5028 C.ar     1 ZINC000003959536    0.0000
18     C18    -1.8359    1.2595    4.8574 C.ar     1 ZINC000003959536   -0.1500
19     C19    -3.2958    1.1164    5.0293 C.2      1 ZINC000003959536    0.5600
20     N20    -4.0417    2.1848    5.3738 N.am     1 ZINC000003959536   -0.8500
21     O21    -3.8247    0.0349    4.8601 O.2      1 ZINC000003959536   -0.5400
22     C22    -1.2278    2.5118    5.0544 C.ar     1 ZINC000003959536   -0.0800
23     C23     0.1119    2.6673    4.9027 C.ar     1 ZINC000003959536   -0.1000
24     C24     0.9144    1.5678    4.5434 C.ar     1 ZINC000003959536    0.1500
25     N25     2.2347    1.7070    4.3903 N.ar     1 ZINC000003959536   -0.4800
26     C26     3.0040    0.6971    4.0553 C.ar     1 ZINC000003959536    0.1500
27     C27     2.4939   -0.5768    3.8475 C.ar     1 ZINC000003959536   -0.1700
28     N28     0.0218   -0.6600    1.1446 N.ar     1 ZINC000003959536   -0.4600
29     H29     1.0042    1.8801    0.0026 H        1 ZINC000003959536    0.0800
30     H30    -0.5455    1.8639   -0.8728 H        1 ZINC000003959536    0.0800
31     H31    -0.5286    1.8543    0.9071 H        1 ZINC000003959536    0.0800
32     H32    -0.0069   -0.1320   -2.1353 H        1 ZINC000003959536    0.1400
33     H33     0.0277   -2.6169   -2.1373 H        1 ZINC000003959536    0.1400
34     H34     0.0549   -3.8100    0.0405 H        1 ZINC000003959536    0.1400
35     H35    -1.4526   -5.3167    5.3587 H        1 ZINC000003959536    0.0900
36     H36    -0.0990   -6.2329    4.6323 H        1 ZINC000003959536    0.1000
37     H37    -0.0086   -5.2302    7.2132 H        1 ZINC000003959536    0.1100
38     H38     1.4608   -5.4082    6.1969 H        1 ZINC000003959536    0.0900
39     H39    -0.1820   -2.9206    6.7723 H        1 ZINC000003959536    0.1000
40     H40     1.5798   -3.0671    6.4809 H        1 ZINC000003959536    0.1000
41     H41    -1.5394   -0.8040    4.3513 H        1 ZINC000003959536    0.1400
42     H42    -3.6197    3.0477    5.5088 H        1 ZINC000003959536    0.4000
43     H43    -5.0005    2.0908    5.4867 H        1 ZINC000003959536    0.4100
44     H44    -1.8350    3.3614    5.3299 H        1 ZINC000003959536    0.1300
45     H45     0.5631    3.6362    5.0578 H        1 ZINC000003959536    0.1400
46     H46     4.0656    0.8613    3.9436 H        1 ZINC000003959536    0.1600
47     H47     3.1524   -1.3875    3.5726 H        1 ZINC000003959536    0.1400
@<TRIPOS>BOND
1     1     2     1
2     1     29    1
3     1     30    1
4     1     31    1
5     2     28    ar
6     2     3     ar
7     3     4     ar
8     3     32    1
9     4     5     ar
10    4     33    1
11    5     6     ar
12    5     34    1
13    6     7     1
14    6     28    ar
15    7     14    1
16    7     8     2
17    8     9     1
18    9     13    1
19    9     10    1
20    10    11    1
21    10    35    1
22    10    36    1
23    11    12    1
24    11    37    1
25    11    38    1
26    12    13    1
27    12    39    1
28    12    40    1
29    13    14    2
30    14    15    1
31    15    27    ar
32    15    16    ar
33    16    24    ar
34    16    17    ar
35    17    18    ar
36    17    41    1
37    18    19    1
38    18    22    ar
39    19    20    am
40    19    21    2
41    20    42    1
42    20    43    1
43    22    23    ar
44    22    44    1
45    23    24    ar
46    23    45    1
47    24    25    ar
48    25    26    ar
49    26    27    ar
50    26    46    1
51    27    47    1
@<TRIPOS>SUBSTRUCTURE
1   ZINC000003959536 1     RESIDUE    1   A     ZIN   1
