@<TRIPOS>MOLECULE
ZINC000003825437
66    70    1     0     0
SMALL
USER_CHARGES
@<TRIPOS>ATOM
1      C1     -0.6574    1.2061   -0.3404 C.3      1 ZINC000003825437   -0.1500
2      C2     -0.5374   -0.3173   -0.2657 C.3      1 ZINC000003825437   -0.1200
3      C3      0.2836   -0.7044    0.9660 C.3      1 ZINC000003825437    0.0600
4      O4      0.3958   -2.1273    1.0358 O.3      1 ZINC000003825437   -0.3200
5      C5      1.0998   -2.6403    2.0789 C.ar     1 ZINC000003825437    0.1200
6      C6      1.6663   -1.7927    3.0194 C.ar     1 ZINC000003825437   -0.2100
7      C7      2.3806   -2.3186    4.0772 C.ar     1 ZINC000003825437   -0.0700
8      C8      2.5342   -3.6892    4.2038 C.ar     1 ZINC000003825437   -0.1000
9      C9      1.9702   -4.5364    3.2673 C.ar     1 ZINC000003825437   -0.0100
10     C10     1.2489   -4.0125    2.2091 C.ar     1 ZINC000003825437   -0.1400
11     C11     2.2785   -5.9742    3.6270 C.3      1 ZINC000003825437    0.0200
12     H12     1.3886   -6.5925    3.5094 H        1 ZINC000003825437    0.0900
13     C13     3.3974   -6.5003    2.7654 C.ar     1 ZINC000003825437   -0.1200
14     C14     3.7973   -5.7951    1.6468 C.ar     1 ZINC000003825437   -0.0500
15     C15     4.8234   -6.2747    0.8550 C.ar     1 ZINC000003825437   -0.2400
16     C16     5.4546   -7.4663    1.1820 C.ar     1 ZINC000003825437    0.1600
17     O17     6.4638   -7.9372    0.4032 O.3      1 ZINC000003825437   -0.3200
18     C18     6.8231   -7.1541   -0.7368 C.3      1 ZINC000003825437    0.0300
19     C19     5.0550   -8.1760    2.3041 C.ar     1 ZINC000003825437   -0.2400
20     C20     4.0291   -7.6901    3.0997 C.ar     1 ZINC000003825437    0.1800
21     O21     3.6353   -8.3833    4.2002 O.3      1 ZINC000003825437   -0.2800
22     C22     4.3225   -9.6052    4.4775 C.3      1 ZINC000003825437    0.0600
23     C23     3.7451  -10.2387    5.7448 C.3      1 ZINC000003825437    0.0800
24     O24     2.3857  -10.6136    5.5132 O.3      1 ZINC000003825437   -0.5600
25     C25     2.7123   -5.9361    5.1076 C.3      1 ZINC000003825437   -0.1300
26     H26     3.4939   -6.6708    5.3013 H        1 ZINC000003825437    0.0900
27     C27     1.5321   -6.1604    6.0176 C.2      1 ZINC000003825437    0.5100
28     O28     1.6533   -6.8528    7.0137 O.co2    1 ZINC000003825437   -0.7000
29     O29     0.4561   -5.6494    5.7575 O.co2    1 ZINC000003825437   -0.6900
30     C30     3.2598   -4.5007    5.2559 C.3      1 ZINC000003825437    0.0100
31     H31     3.0401   -4.1130    6.2506 H        1 ZINC000003825437    0.0900
32     C32     4.7453   -4.4790    5.0034 C.ar     1 ZINC000003825437   -0.0400
33     C33     5.2256   -4.2058    3.7366 C.ar     1 ZINC000003825437   -0.0900
34     C34     6.5879   -4.1847    3.4999 C.ar     1 ZINC000003825437   -0.1000
35     C35     7.4748   -4.4382    4.5331 C.ar     1 ZINC000003825437    0.0200
36     O36     8.8388   -4.4787    4.5657 O.3      1 ZINC000003825437   -0.3100
37     C37     9.1933   -4.3778    5.9576 C.3      1 ZINC000003825437    0.2100
38     O38     8.0516   -4.9265    6.6421 O.3      1 ZINC000003825437   -0.3100
39     C39     6.9907   -4.7136    5.8100 C.ar     1 ZINC000003825437    0.0300
40     C40     5.6252   -4.7270    6.0410 C.ar     1 ZINC000003825437   -0.0900
41     H41     0.3372    1.6458   -0.4139 H        1 ZINC000003825437    0.0600
42     H42    -1.2423    1.4819   -1.2178 H        1 ZINC000003825437    0.0600
43     H43    -1.1528    1.5760    0.5574 H        1 ZINC000003825437    0.0600
44     H44    -1.5320   -0.7570   -0.1922 H        1 ZINC000003825437    0.0700
45     H45    -0.0420   -0.6872   -1.1634 H        1 ZINC000003825437    0.0700
46     H46     1.2783   -0.2647    0.8925 H        1 ZINC000003825437    0.0600
47     H47    -0.2117   -0.3346    1.8638 H        1 ZINC000003825437    0.0600
48     H48     1.5490   -0.7233    2.9242 H        1 ZINC000003825437    0.1200
49     H49     2.8219   -1.6583    4.8091 H        1 ZINC000003825437    0.1200
50     H50     0.8082   -4.6739    1.4778 H        1 ZINC000003825437    0.1300
51     H51     3.3070   -4.8675    1.3905 H        1 ZINC000003825437    0.1300
52     H52     5.1340   -5.7218   -0.0192 H        1 ZINC000003825437    0.1200
53     H53     7.6394   -7.6416   -1.2699 H        1 ZINC000003825437    0.0900
54     H54     5.9622   -7.0595   -1.3986 H        1 ZINC000003825437    0.0500
55     H55     7.1419   -6.1638   -0.4115 H        1 ZINC000003825437    0.0500
56     H56     5.5449   -9.1038    2.5601 H        1 ZINC000003825437    0.1300
57     H57     4.1974  -10.2907    3.6392 H        1 ZINC000003825437    0.0700
58     H58     5.3829   -9.4004    4.6243 H        1 ZINC000003825437    0.0700
59     H59     4.3264  -11.1230    6.0062 H        1 ZINC000003825437    0.0600
60     H60     3.7894   -9.5199    6.5630 H        1 ZINC000003825437    0.0700
61     H61     1.9551  -11.0229    6.2762 H        1 ZINC000003825437    0.3800
62     H62     4.5354   -4.0087    2.9296 H        1 ZINC000003825437    0.1400
63     H63     6.9603   -3.9708    2.5090 H        1 ZINC000003825437    0.1300
64     H64    10.0860   -4.9663    6.1691 H        1 ZINC000003825437    0.1300
65     H65     9.3446   -3.3358    6.2397 H        1 ZINC000003825437    0.0800
66     H66     5.2473   -4.9343    7.0313 H        1 ZINC000003825437    0.1400
@<TRIPOS>BOND
1     1     2     1
2     1     41    1
3     1     42    1
4     1     43    1
5     2     3     1
6     2     44    1
7     2     45    1
8     3     4     1
9     3     46    1
10    3     47    1
11    4     5     1
12    5     10    ar
13    5     6     ar
14    6     7     ar
15    6     48    1
16    7     8     ar
17    7     49    1
18    8     30    1
19    8     9     ar
20    9     10    ar
21    9     11    1
22    10    50    1
23    11    12    1
24    11    13    1
25    11    25    1
26    13    20    ar
27    13    14    ar
28    14    15    ar
29    14    51    1
30    15    16    ar
31    15    52    1
32    16    17    1
33    16    19    ar
34    17    18    1
35    18    53    1
36    18    54    1
37    18    55    1
38    19    20    ar
39    19    56    1
40    20    21    1
41    21    22    1
42    22    23    1
43    22    57    1
44    22    58    1
45    23    24    1
46    23    59    1
47    23    60    1
48    24    61    1
49    25    26    1
50    25    27    1
51    25    30    1
52    27    28    ar
53    27    29    ar
54    30    31    1
55    30    32    1
56    32    40    ar
57    32    33    ar
58    33    34    ar
59    33    62    1
60    34    35    ar
61    34    63    1
62    35    39    ar
63    35    36    1
64    36    37    1
65    37    38    1
66    37    64    1
67    37    65    1
68    38    39    1
69    39    40    ar
70    40    66    1
@<TRIPOS>SUBSTRUCTURE
1   ZINC000003825437 1     RESIDUE    1   A     ZIN   1
