@<TRIPOS>MOLECULE
ZINC000000119988
35    37    1     0     0
SMALL
USER_CHARGES
@<TRIPOS>ATOM
1      O1     -0.0164    1.3547    0.0095 O.3      1 ZINC000000119988   -0.4900
2      C2      0.0021   -0.0041    0.0020 C.ar     1 ZINC000000119988    0.1600
3      C3      0.0058   -0.6918   -1.2020 C.ar     1 ZINC000000119988   -0.2000
4      C4      0.0221   -2.0772   -1.2051 C.ar     1 ZINC000000119988    0.1600
5      O5      0.0263   -2.7512   -2.3852 O.3      1 ZINC000000119988   -0.4900
6      C6      0.0347   -2.7807   -0.0063 C.ar     1 ZINC000000119988   -0.1900
7      C7      0.0412   -4.2878   -0.0508 C.3      1 ZINC000000119988   -0.1000
8      C8      0.4908   -4.8417    1.3035 C.3      1 ZINC000000119988    0.0800
9      H9      0.2934   -5.9129    1.3461 H        1 ZINC000000119988    0.0800
10     O10     1.8882   -4.6020    1.4821 O.3      1 ZINC000000119988   -0.5500
11     C11    -0.3024   -4.1256    2.4041 C.3      1 ZINC000000119988    0.1500
12     H12    -1.3706   -4.2309    2.2146 H        1 ZINC000000119988    0.1000
13     C13     0.0366   -4.7238    3.7451 C.ar     1 ZINC000000119988   -0.0800
14     C14     1.1415   -4.2727    4.4420 C.ar     1 ZINC000000119988   -0.0600
15     C15     1.4570   -4.8187    5.6726 C.ar     1 ZINC000000119988   -0.1300
16     C16     0.6646   -5.8199    6.2098 C.ar     1 ZINC000000119988    0.0900
17     O17     0.9732   -6.3577    7.4201 O.3      1 ZINC000000119988   -0.4900
18     C18    -0.4485   -6.2740    5.5082 C.ar     1 ZINC000000119988    0.0800
19     O19    -1.2299   -7.2564    6.0315 O.3      1 ZINC000000119988   -0.4900
20     C20    -0.7619   -5.7191    4.2782 C.ar     1 ZINC000000119988   -0.1200
21     O21     0.0547   -2.7428    2.3894 O.3      1 ZINC000000119988   -0.2900
22     C22     0.0356   -2.0948    1.1955 C.ar     1 ZINC000000119988    0.1800
23     C23     0.0229   -0.7042    1.1973 C.ar     1 ZINC000000119988   -0.1900
24     H24     0.8616    1.7600    0.0033 H        1 ZINC000000119988    0.4000
25     H25    -0.0045   -0.1487   -2.1354 H        1 ZINC000000119988    0.1400
26     H26     0.9108   -2.9358   -2.7295 H        1 ZINC000000119988    0.3900
27     H27    -0.9627   -4.6483   -0.2750 H        1 ZINC000000119988    0.0900
28     H28     0.7286   -4.6248   -0.8267 H        1 ZINC000000119988    0.0900
29     H29     2.4470   -5.0130    0.8083 H        1 ZINC000000119988    0.3800
30     H30     1.7602   -3.4921    4.0243 H        1 ZINC000000119988    0.1400
31     H31     2.3215   -4.4649    6.2148 H        1 ZINC000000119988    0.1400
32     H32     0.5624   -5.9037    8.1686 H        1 ZINC000000119988    0.3900
33     H33    -1.9557   -6.9307    6.5813 H        1 ZINC000000119988    0.3900
34     H34    -1.6250   -6.0696    3.7318 H        1 ZINC000000119988    0.1400
35     H35     0.0247   -0.1677    2.1346 H        1 ZINC000000119988    0.1400
@<TRIPOS>BOND
1     1     2     1
2     1     24    1
3     2     23    ar
4     2     3     ar
5     3     4     ar
6     3     25    1
7     4     5     1
8     4     6     ar
9     5     26    1
10    6     22    ar
11    6     7     1
12    7     8     1
13    7     27    1
14    7     28    1
15    8     9     1
16    8     10    1
17    8     11    1
18    10    29    1
19    11    12    1
20    11    13    1
21    11    21    1
22    13    20    ar
23    13    14    ar
24    14    15    ar
25    14    30    1
26    15    16    ar
27    15    31    1
28    16    17    1
29    16    18    ar
30    17    32    1
31    18    19    1
32    18    20    ar
33    19    33    1
34    20    34    1
35    21    22    1
36    22    23    ar
37    23    35    1
@<TRIPOS>SUBSTRUCTURE
1   ZINC000000119988 1     RESIDUE    1   A     ZIN   1
