@<TRIPOS>MOLECULE
ZINC000000602803
56    58    1     0     0
SMALL
USER_CHARGES
@<TRIPOS>ATOM
1      C1     -3.0653   -2.3911    2.9615 C.3      1 ZINC000000602803   -0.1500
2      C2     -1.9234   -3.2420    2.4021 C.3      1 ZINC000000602803    0.0500
3      O3     -2.0673   -3.3601    0.9853 O.3      1 ZINC000000602803   -0.3100
4      C4     -1.1282   -4.0897    0.3287 C.ar     1 ZINC000000602803    0.1500
5      C5     -1.2125   -4.2372   -1.0644 C.ar     1 ZINC000000602803    0.1300
6      N6     -2.2621   -3.6322   -1.7656 N.am     1 ZINC000000602803   -0.6600
7      C7     -2.6580   -4.1347   -2.9518 C.2      1 ZINC000000602803    0.5500
8      O8     -2.1777   -5.1738   -3.3629 O.2      1 ZINC000000602803   -0.5200
9      C9     -3.6708   -3.4266   -3.7492 C.2      1 ZINC000000602803   -0.2200
10     C10    -4.0615   -3.9225   -4.9200 C.2      1 ZINC000000602803   -0.0300
11     C11    -5.0993   -3.1970   -5.7371 C.3      1 ZINC000000602803    0.0700
12     N12    -4.5702   -2.9387   -7.0829 N.3      1 ZINC000000602803   -0.5400
13     C13    -5.6264   -2.4490   -7.9788 C.3      1 ZINC000000602803    0.0200
14     C14    -3.4433   -1.9975   -7.0338 C.3      1 ZINC000000602803    0.0200
15     C15    -0.2689   -4.9729   -1.7460 C.ar     1 ZINC000000602803   -0.0700
16     C16     0.7818   -5.5782   -1.0418 C.ar     1 ZINC000000602803   -0.1300
17     C17     0.8685   -5.4310    0.3639 C.ar     1 ZINC000000602803    0.1800
18     C18    -0.1014   -4.6715    1.0357 C.ar     1 ZINC000000602803   -0.1900
19     N19     1.8721   -6.0073    1.0421 N.ar     1 ZINC000000602803   -0.4800
20     C20     2.7959   -6.7163    0.4453 C.ar     1 ZINC000000602803    0.1900
21     C21     2.7884   -6.9144   -0.9448 C.ar     1 ZINC000000602803   -0.1100
22     C22     3.8127   -7.6959   -1.5699 C.1      1 ZINC000000602803    0.2500
23     N23     4.6253   -8.3158   -2.0658 N.1      1 ZINC000000602803   -0.3900
24     C24     1.7659   -6.3394   -1.7146 C.ar     1 ZINC000000602803    0.2900
25     N25     1.7221   -6.5106   -3.0837 N.pl3    1 ZINC000000602803   -0.7000
26     C26     1.4820   -7.7785   -3.6225 C.ar     1 ZINC000000602803    0.1900
27     C27     0.6478   -8.6692   -2.9595 C.ar     1 ZINC000000602803   -0.1200
28     C28     0.4113   -9.9212   -3.4933 C.ar     1 ZINC000000602803   -0.1100
29     C29     1.0054  -10.2891   -4.6882 C.ar     1 ZINC000000602803    0.0800
30     F30     0.7726  -11.5140   -5.2083 F        1 ZINC000000602803   -0.1300
31     C31     1.8386   -9.4022   -5.3521 C.ar     1 ZINC000000602803   -0.0400
32     Cl32    2.5823   -9.8664   -6.8504 Cl       1 ZINC000000602803   -0.0400
33     C33     2.0731   -8.1468   -4.8244 C.ar     1 ZINC000000602803   -0.1200
34     H34    -3.0349   -1.3997    2.5093 H        1 ZINC000000602803    0.0700
35     H35    -4.0189   -2.8662    2.7315 H        1 ZINC000000602803    0.0700
36     H36    -2.9555   -2.3010    4.0422 H        1 ZINC000000602803    0.0800
37     H37    -0.9698   -2.7668    2.6321 H        1 ZINC000000602803    0.0700
38     H38    -1.9538   -4.2333    2.8543 H        1 ZINC000000602803    0.0700
39     H39    -2.7046   -2.8512   -1.3977 H        1 ZINC000000602803    0.4200
40     H40    -4.0973   -2.5040   -3.3842 H        1 ZINC000000602803    0.1300
41     H41    -3.6350   -4.8452   -5.2850 H        1 ZINC000000602803    0.1400
42     H42    -5.9973   -3.8103   -5.8113 H        1 ZINC000000602803    0.1000
43     H43    -5.3446   -2.2505   -5.2552 H        1 ZINC000000602803    0.0500
44     H44    -6.0388   -1.5216   -7.5815 H        1 ZINC000000602803    0.0300
45     H45    -5.2074   -2.2659   -8.9683 H        1 ZINC000000602803    0.0700
46     H46    -6.4165   -3.1964   -8.0514 H        1 ZINC000000602803    0.0700
47     H47    -2.6464   -2.4166   -6.4194 H        1 ZINC000000602803    0.0700
48     H48    -3.0707   -1.8239   -8.0433 H        1 ZINC000000602803    0.0700
49     H49    -3.7767   -1.0537   -6.6023 H        1 ZINC000000602803    0.0300
50     H50    -0.3381   -5.0835   -2.8181 H        1 ZINC000000602803    0.1700
51     H51    -0.0470   -4.5514    2.1076 H        1 ZINC000000602803    0.1500
52     H52     3.5837   -7.1596    1.0363 H        1 ZINC000000602803    0.1700
53     H53     1.8579   -5.7514   -3.6720 H        1 ZINC000000602803    0.4200
54     H54     0.1844   -8.3832   -2.0268 H        1 ZINC000000602803    0.1400
55     H55    -0.2375  -10.6137   -2.9777 H        1 ZINC000000602803    0.1500
56     H56     2.7220   -7.4556   -5.3417 H        1 ZINC000000602803    0.1500
@<TRIPOS>BOND
1     1     2     1
2     1     34    1
3     1     35    1
4     1     36    1
5     2     3     1
6     2     37    1
7     2     38    1
8     3     4     1
9     4     18    ar
10    4     5     ar
11    5     6     1
12    5     15    ar
13    6     7     am
14    6     39    1
15    7     8     2
16    7     9     1
17    9     10    2
18    9     40    1
19    10    11    1
20    10    41    1
21    11    12    1
22    11    42    1
23    11    43    1
24    12    13    1
25    12    14    1
26    13    44    1
27    13    45    1
28    13    46    1
29    14    47    1
30    14    48    1
31    14    49    1
32    15    16    ar
33    15    50    1
34    16    24    ar
35    16    17    ar
36    17    18    ar
37    17    19    ar
38    18    51    1
39    19    20    ar
40    20    21    ar
41    20    52    1
42    21    22    1
43    21    24    ar
44    22    23    3
45    24    25    1
46    25    26    1
47    25    53    1
48    26    33    ar
49    26    27    ar
50    27    28    ar
51    27    54    1
52    28    29    ar
53    28    55    1
54    29    30    1
55    29    31    ar
56    31    32    1
57    31    33    ar
58    33    56    1
@<TRIPOS>SUBSTRUCTURE
1   ZINC000000602803 1     RESIDUE    1   A     ZIN   1
