@<TRIPOS>MOLECULE
ZINC000034016620
69    69    1     0     0
SMALL
USER_CHARGES
@<TRIPOS>ATOM
1      C1      1.7148    2.9002   -0.7208 C.3      1 ZINC000034016620   -0.1200
2      S2      1.0171    1.2435   -0.4774 S.3      1 ZINC000034016620   -0.2700
3      C3      1.6331    0.7784    1.1642 C.3      1 ZINC000034016620   -0.0800
4      C4      1.1238   -0.6190    1.5229 C.3      1 ZINC000034016620   -0.1000
5      C5      1.6433   -1.0113    2.9075 C.3      1 ZINC000034016620    0.0800
6      H6      1.3612   -0.2468    3.6314 H        1 ZINC000034016620    0.0800
7      N7      3.1029   -1.1297    2.8659 N.am     1 ZINC000034016620   -0.6800
8      C8      3.8247   -0.9648    3.9921 C.2      1 ZINC000034016620    0.5000
9      O9      3.2659   -0.7184    5.0399 O.2      1 ZINC000034016620   -0.5500
10     C10     5.3262   -1.0865    3.9493 C.3      1 ZINC000034016620    0.0800
11     H11     5.7318   -0.3412    3.2651 H        1 ZINC000034016620    0.0800
12     C12     5.7108   -2.4860    3.4653 C.3      1 ZINC000034016620   -0.0700
13     C13     7.2051   -2.5623    3.2854 C.ar     1 ZINC000034016620   -0.0600
14     C14     7.7715   -2.2438    2.0653 C.ar     1 ZINC000034016620   -0.1200
15     C15     9.1422   -2.3138    1.9003 C.ar     1 ZINC000034016620   -0.1200
16     C16     9.9465   -2.7018    2.9555 C.ar     1 ZINC000034016620   -0.1300
17     C17     9.3802   -3.0194    4.1758 C.ar     1 ZINC000034016620   -0.1300
18     C18     8.0098   -2.9453    4.3421 C.ar     1 ZINC000034016620   -0.0900
19     N19     5.8739   -0.8658    5.2944 N.3      1 ZINC000034016620   -0.6700
20     C20     6.8651    0.2184    5.2879 C.3      1 ZINC000034016620    0.0500
21     C21     7.3343    0.4890    6.7187 C.3      1 ZINC000034016620    0.1000
22     H22     6.4994    0.8651    7.3099 H        1 ZINC000034016620    0.0600
23     N23     7.8337   -0.7576    7.3143 N.3      1 ZINC000034016620   -0.7000
24     C24     7.7357   -0.7172    8.7794 C.3      1 ZINC000034016620    0.0300
25     C25     8.2639   -2.0296    9.3622 C.3      1 ZINC000034016620    0.0600
26     H26     7.6176   -2.8509    9.0525 H        1 ZINC000034016620    0.1500
27     N27     9.6282   -2.2687    8.8728 N.4      1 ZINC000034016620   -0.6300
28     H28    10.2265   -1.5085    9.1595 H        1 ZINC000034016620    0.4300
29     H29     9.9765   -3.1342    9.2571 H        1 ZINC000034016620    0.4300
30     H30     9.6187   -2.3277    7.8655 H        1 ZINC000034016620    0.4400
31     C31     8.2784   -1.9401   10.8895 C.3      1 ZINC000034016620   -0.1100
32     S32     8.9046   -3.4961   11.5805 S.3      1 ZINC000034016620   -0.2500
33     C33     8.4555    1.5300    6.6995 C.3      1 ZINC000034016620   -0.0800
34     C34     9.5746    1.0571    5.7696 C.3      1 ZINC000034016620   -0.1400
35     C35     7.9034    2.8648    6.1954 C.3      1 ZINC000034016620   -0.1600
36     C36     1.0435   -2.3330    3.3132 C.2      1 ZINC000034016620    0.4900
37     O37     1.6124   -3.3733    3.0295 O.co2    1 ZINC000034016620   -0.6900
38     O38    -0.0106   -2.3619    3.9251 O.co2    1 ZINC000034016620   -0.6900
39     H39     2.8027    2.8456   -0.6815 H        1 ZINC000034016620    0.0700
40     H40     1.4052    3.2858   -1.6921 H        1 ZINC000034016620    0.1000
41     H41     1.3558    3.5647    0.0651 H        1 ZINC000034016620    0.0700
42     H42     2.7230    0.7769    1.1562 H        1 ZINC000034016620    0.0800
43     H43     1.2761    1.4960    1.9029 H        1 ZINC000034016620    0.0800
44     H44     0.0338   -0.6175    1.5308 H        1 ZINC000034016620    0.0900
45     H45     1.4808   -1.3366    0.7842 H        1 ZINC000034016620    0.0800
46     H46     3.5498   -1.3267    2.0278 H        1 ZINC000034016620    0.3900
47     H47     5.3954   -3.2247    4.2021 H        1 ZINC000034016620    0.0900
48     H48     5.2195   -2.6892    2.5138 H        1 ZINC000034016620    0.0800
49     H49     7.1432   -1.9407    1.2409 H        1 ZINC000034016620    0.1200
50     H50     9.5847   -2.0657    0.9468 H        1 ZINC000034016620    0.1200
51     H51    11.0173   -2.7572    2.8263 H        1 ZINC000034016620    0.1100
52     H52    10.0085   -3.3229    5.0001 H        1 ZINC000034016620    0.1100
53     H53     7.5674   -3.1935    5.2955 H        1 ZINC000034016620    0.1200
54     H54     5.1376   -0.6786    5.9584 H        1 ZINC000034016620    0.3600
55     H55     7.7179   -0.0727    4.6747 H        1 ZINC000034016620    0.0900
56     H56     6.4133    1.1212    4.8768 H        1 ZINC000034016620    0.0400
57     H57     7.3452   -1.5577    6.9411 H        1 ZINC000034016620    0.3700
58     H58     8.3287    0.1142    9.1605 H        1 ZINC000034016620    0.1000
59     H59     6.6938   -0.5838    9.0704 H        1 ZINC000034016620    0.0800
60     H60     8.9247   -1.1189   11.1993 H        1 ZINC000034016620    0.1100
61     H61     7.2661   -1.7627   11.2527 H        1 ZINC000034016620    0.1300
62     H62     8.8623   -3.2769   12.9068 H        1 ZINC000034016620    0.1300
63     H63     8.8502    1.6575    7.7075 H        1 ZINC000034016620    0.0700
64     H64     9.1799    0.9295    4.7616 H        1 ZINC000034016620    0.0600
65     H65    10.3733    1.7987    5.7559 H        1 ZINC000034016620    0.0500
66     H66     9.9679    0.1061    6.1287 H        1 ZINC000034016620    0.0600
67     H67     8.7021    3.6064    6.1817 H        1 ZINC000034016620    0.0600
68     H68     7.5086    2.7373    5.1874 H        1 ZINC000034016620    0.0600
69     H69     7.1061    3.2017    6.8579 H        1 ZINC000034016620    0.0500
@<TRIPOS>BOND
1     1     2     1
2     1     39    1
3     1     40    1
4     1     41    1
5     2     3     1
6     3     4     1
7     3     42    1
8     3     43    1
9     4     5     1
10    4     44    1
11    4     45    1
12    5     6     1
13    5     7     1
14    5     36    1
15    7     8     am
16    7     46    1
17    8     9     2
18    8     10    1
19    10    11    1
20    10    12    1
21    10    19    1
22    12    13    1
23    12    47    1
24    12    48    1
25    13    18    ar
26    13    14    ar
27    14    15    ar
28    14    49    1
29    15    16    ar
30    15    50    1
31    16    17    ar
32    16    51    1
33    17    18    ar
34    17    52    1
35    18    53    1
36    19    20    1
37    19    54    1
38    20    21    1
39    20    55    1
40    20    56    1
41    21    22    1
42    21    23    1
43    21    33    1
44    23    24    1
45    23    57    1
46    24    25    1
47    24    58    1
48    24    59    1
49    25    26    1
50    25    27    1
51    25    31    1
52    27    28    1
53    27    29    1
54    27    30    1
55    31    32    1
56    31    60    1
57    31    61    1
58    32    62    1
59    33    34    1
60    33    35    1
61    33    63    1
62    34    64    1
63    34    65    1
64    34    66    1
65    35    67    1
66    35    68    1
67    35    69    1
68    36    37    ar
69    36    38    ar
@<TRIPOS>SUBSTRUCTURE
1   ZINC000034016620 1     RESIDUE    1   A     ZIN   1
