@<TRIPOS>MOLECULE
ZINC000096902468
  35   37    0    0    0
SMALL
USER_CHARGES
NO_NAME
@<TRIPOS>ATOM
    1 C1       -0.0187     1.5258     0.0104 C.3    1 <0>      -0.1200
    2 C2        0.0021    -0.0041     0.0020 C.3    1 <0>      -0.1200
    3 C3       -1.2387    -0.6776    -0.5878 C.3    1 <0>      -0.0800
    4 C4       -1.7853     0.1750    -1.7345 C.3    1 <0>      -0.1000
    5 C5       -3.0260    -0.4985    -2.3243 C.3    1 <0>      -0.1000
    6 C6       -3.5645     0.3413    -3.4538 C.2    1 <0>       0.1300
    7 C7       -3.2180     0.0759    -4.7455 C.2    1 <0>      -0.3800
    8 C8       -3.7346     0.8750    -5.7801 C.2    1 <0>       0.5200
    9 O9       -3.4248     0.6369    -6.9345 O.2    1 <0>      -0.5100
   10 O10      -4.5665     1.8986    -5.5146 O.3    1 <0>      -0.2700
   11 C11      -4.9262     2.1854    -4.2560 C.2    1 <0>       0.4700
   12 C12      -4.4420     1.4149    -3.1982 C.2    1 <0>      -0.4300
   13 C13      -4.8567     1.7582    -1.8322 C.2    1 <0>       0.5800
   14 O14      -4.4601     1.1155    -0.8782 O.2    1 <0>      -0.5400
   15 N15      -5.6908     2.8082    -1.6640 N.am   1 <0>      -0.6900
   16 C16      -6.1257     3.5151    -2.7200 C.2    1 <0>       0.6700
   17 O17      -6.8747     4.4526    -2.5257 O.2    1 <0>      -0.5700
   18 N18      -5.7707     3.2248    -3.9825 N.pl3  1 <0>      -0.6300
   19 C19       1.3513    -0.6911    -0.2180 C.3    1 <0>      -0.1800
   20 C20       0.7014    -0.7075     1.1670 C.3    1 <0>      -0.1800
   21 H21       1.0039     1.9031     0.0027 H      1 <0>       0.0500
   22 H22      -0.5459     1.8868    -0.8726 H      1 <0>       0.0700
   23 H23      -0.5289     1.8773     0.9072 H      1 <0>       0.0600
   24 H24      -0.9716    -1.6650    -0.9644 H      1 <0>       0.0600
   25 H25      -2.0001    -0.7775     0.1857 H      1 <0>       0.0700
   26 H26      -2.0523     1.1624    -1.3579 H      1 <0>       0.0700
   27 H27      -1.0238     0.2749    -2.5080 H      1 <0>       0.0600
   28 H28      -2.7590    -1.4859    -2.7010 H      1 <0>       0.0700
   29 H29      -3.7875    -0.5984    -1.5508 H      1 <0>       0.1100
   30 H30      -2.5509    -0.7426    -4.9721 H      1 <0>       0.1400
   31 H31      -5.9787     3.0538    -0.7708 H      1 <0>       0.4000
   32 H32       1.3553    -1.6231    -0.7832 H      1 <0>       0.0900
   33 H33       2.2242    -0.0532    -0.3568 H      1 <0>       0.0900
   34 H34       1.1466    -0.0804     1.9393 H      1 <0>       0.0900
   35 H35       0.2777    -1.6503     1.5129 H      1 <0>       0.0900
@<TRIPOS>BOND
   1    1    2 1
   2    1   21 1
   3    1   22 1
   4    1   23 1
   5    2   20 1
   6    2    3 1
   7    2   19 1
   8    3    4 1
   9    3   24 1
  10    3   25 1
  11    4    5 1
  12    4   26 1
  13    4   27 1
  14    5    6 1
  15    5   28 1
  16    5   29 1
  17    6   12 1
  18    6    7 2
  19    7    8 1
  20    7   30 1
  21    8    9 2
  22    8   10 1
  23   10   11 1
  24   11   18 1
  25   11   12 2
  26   12   13 1
  27   13   14 2
  28   13   15 am
  29   15   16 am
  30   15   31 1
  31   16   17 2
  32   16   18 1
  33   19   20 1
  34   19   32 1
  35   19   33 1
  36   20   34 1
  37   20   35 1
