@<TRIPOS>MOLECULE
ZINC000003995845
48    51    1     0     0
SMALL
USER_CHARGES
@<TRIPOS>ATOM
1      C1     -0.0178    1.4608    0.0101 C.3      1 ZINC000003995845    0.0900
2      N2      0.0021   -0.0041    0.0020 N.am     1 ZINC000003995845   -0.7300
3      C3      0.5851   -0.6645   -1.0180 C.2      1 ZINC000003995845    0.5200
4      O4      1.0933   -0.0461   -1.9292 O.2      1 ZINC000003995845   -0.5000
5      C5      0.6055   -2.1713   -1.0263 C.3      1 ZINC000003995845    0.0300
6      H6     -0.4077   -2.5643   -0.9421 H        1 ZINC000003995845    0.1200
7      O7      1.2354   -2.6590   -2.2309 O.3      1 ZINC000003995845   -0.3300
8      C8      1.6454   -4.0098   -1.9259 C.3      1 ZINC000003995845    0.3100
9      H9      0.7924   -4.6863   -1.9787 H        1 ZINC000003995845    0.1300
10     N10     2.6973   -4.4441   -2.8484 N.pl3    1 ZINC000003995845   -0.4700
11     C11     3.5492   -3.6344   -3.5394 C.2      1 ZINC000003995845    0.2700
12     N12     4.3555   -4.3533   -4.2650 N.2      1 ZINC000003995845   -0.4500
13     C13     4.0731   -5.6664   -4.0865 C.ar     1 ZINC000003995845   -0.1000
14     C14     4.5971   -6.8673   -4.5941 C.ar     1 ZINC000003995845    0.5200
15     N15     5.6484   -6.8564   -5.4939 N.pl3    1 ZINC000003995845   -0.6800
16     C16     6.1817   -8.1185   -6.0125 C.3      1 ZINC000003995845    0.1700
17     C17     7.3123   -7.8316   -6.9668 C.ar     1 ZINC000003995845   -0.1100
18     C18     7.0520   -7.6499   -8.3120 C.ar     1 ZINC000003995845   -0.0800
19     C19     8.0890   -7.3867   -9.1878 C.ar     1 ZINC000003995845   -0.1200
20     C20     9.3862   -7.3053   -8.7183 C.ar     1 ZINC000003995845   -0.0700
21     C21     9.6471   -7.4866   -7.3721 C.ar     1 ZINC000003995845   -0.1000
22     I22    11.6135   -7.3633   -6.6600 I        1 ZINC000003995845   -0.0400
23     C23     8.6091   -7.7446   -6.4957 C.ar     1 ZINC000003995845   -0.0600
24     N24     4.0602   -8.0139   -4.1899 N.ar     1 ZINC000003995845   -0.5700
25     C25     3.0563   -8.0339   -3.3305 C.ar     1 ZINC000003995845    0.4300
26     Cl26    2.4022   -9.5668   -2.8447 Cl       1 ZINC000003995845    0.0400
27     N27     2.5339   -6.9333   -2.8286 N.ar     1 ZINC000003995845   -0.5300
28     C28     3.0098   -5.7405   -3.1709 C.ar     1 ZINC000003995845    0.3300
29     C29     2.1884   -3.9408   -0.4814 C.3      1 ZINC000003995845    0.0800
30     H30     3.2698   -3.8039   -0.4860 H        1 ZINC000003995845    0.0900
31     O31     1.8377   -5.1220    0.2424 O.3      1 ZINC000003995845   -0.5200
32     C32     1.4862   -2.7036    0.1259 C.3      1 ZINC000003995845    0.0500
33     H33     2.2206   -1.9541    0.4210 H        1 ZINC000003995845    0.0900
34     O34     0.6824   -3.0830    1.2449 O.3      1 ZINC000003995845   -0.5300
35     H35     1.0048    1.8381    0.0023 H        1 ZINC000003995845    0.0600
36     H36    -0.5450    1.8219   -0.8730 H        1 ZINC000003995845    0.0700
37     H37    -0.5280    1.8123    0.9069 H        1 ZINC000003995845    0.0800
38     H38    -0.4044   -0.4986    0.7308 H        1 ZINC000003995845    0.4000
39     H39     3.5540   -2.5554   -3.4917 H        1 ZINC000003995845    0.2300
40     H40     6.0321   -6.0132   -5.7812 H        1 ZINC000003995845    0.4200
41     H41     6.5498   -8.7248   -5.1849 H        1 ZINC000003995845    0.0900
42     H42     5.3928   -8.6586   -6.5359 H        1 ZINC000003995845    0.0900
43     H43     6.0383   -7.7139   -8.6792 H        1 ZINC000003995845    0.1300
44     H44     7.8853   -7.2451  -10.2389 H        1 ZINC000003995845    0.1400
45     H45    10.1963   -7.1004   -9.4025 H        1 ZINC000003995845    0.1300
46     H46     8.8124   -7.8859   -5.4444 H        1 ZINC000003995845    0.1300
47     H47     2.1538   -5.1318    1.1562 H        1 ZINC000003995845    0.3900
48     H48     0.2189   -2.3452    1.6644 H        1 ZINC000003995845    0.3800
@<TRIPOS>BOND
1     1     2     1
2     1     35    1
3     1     36    1
4     1     37    1
5     2     3     am
6     2     38    1
7     3     4     2
8     3     5     1
9     5     6     1
10    5     32    1
11    5     7     1
12    7     8     1
13    8     9     1
14    8     10    1
15    8     29    1
16    10    28    1
17    10    11    1
18    11    12    2
19    11    39    1
20    12    13    1
21    13    28    ar
22    13    14    ar
23    14    15    1
24    14    24    ar
25    15    16    1
26    15    40    1
27    16    17    1
28    16    41    1
29    16    42    1
30    17    23    ar
31    17    18    ar
32    18    19    ar
33    18    43    1
34    19    20    ar
35    19    44    1
36    20    21    ar
37    20    45    1
38    21    22    1
39    21    23    ar
40    23    46    1
41    24    25    ar
42    25    26    1
43    25    27    ar
44    27    28    ar
45    29    30    1
46    29    31    1
47    29    32    1
48    31    47    1
49    32    33    1
50    32    34    1
51    34    48    1
@<TRIPOS>SUBSTRUCTURE
1   ZINC000003995845 1     RESIDUE    1   A     ZIN   1
