@<TRIPOS>MOLECULE
ZINC000001546399
39    39    1     0     0
SMALL
USER_CHARGES
@<TRIPOS>ATOM
1      C1     -0.2636    1.4449    0.0366 C.3      1 ZINC000001546399   -0.1900
2      C2     -0.0339   -0.0673   -0.0010 C.3      1 ZINC000001546399   -0.0200
3      N3      0.8228   -0.4606    1.1256 N.4      1 ZINC000001546399   -0.3800
4      H4      1.6714    0.0850    1.1094 H        1 ZINC000001546399    0.4300
5      C5      0.1113   -0.2220    2.3885 C.3      1 ZINC000001546399   -0.0100
6      C6      1.0525   -0.4946    3.5635 C.3      1 ZINC000001546399   -0.1900
7      C7      1.1556   -1.8870    1.0130 C.3      1 ZINC000001546399   -0.0300
8      C8      2.0039   -2.1155   -0.2396 C.3      1 ZINC000001546399    0.1000
9      N9      2.3358   -3.5379   -0.3519 N.am     1 ZINC000001546399   -0.7300
10     C10     3.0814   -3.9764   -1.3854 C.2      1 ZINC000001546399    0.5800
11     O11     3.4786   -3.1914   -2.2248 O.2      1 ZINC000001546399   -0.5300
12     C12     3.4156   -5.4088   -1.4985 C.ar     1 ZINC000001546399   -0.2100
13     C13     2.9551   -6.3132   -0.5377 C.ar     1 ZINC000001546399   -0.0300
14     C14     3.2684   -7.6493   -0.6455 C.ar     1 ZINC000001546399   -0.2000
15     C15     4.0434   -8.1004   -1.7095 C.ar     1 ZINC000001546399    0.2700
16     N16     4.3582   -9.4513   -1.8154 N.pl3    1 ZINC000001546399   -0.8500
17     C17     4.5044   -7.2018   -2.6693 C.ar     1 ZINC000001546399   -0.1300
18     Cl18    5.4706   -7.7690   -3.9954 Cl       1 ZINC000001546399   -0.0500
19     C19     4.1891   -5.8652   -2.5702 C.ar     1 ZINC000001546399    0.0100
20     H20     0.6976    1.9575    0.0745 H        1 ZINC000001546399    0.0800
21     H21    -0.8045    1.7526   -0.8583 H        1 ZINC000001546399    0.1100
22     H22    -0.8475    1.7018    0.9204 H        1 ZINC000001546399    0.0800
23     H23    -0.9917   -0.5823    0.0738 H        1 ZINC000001546399    0.1300
24     H24     0.4518   -0.3379   -0.9386 H        1 ZINC000001546399    0.1300
25     H25    -0.2256    0.8139    2.4255 H        1 ZINC000001546399    0.1400
26     H26    -0.7502   -0.8867    2.4513 H        1 ZINC000001546399    0.1300
27     H27     1.3017   -1.5554    3.5909 H        1 ZINC000001546399    0.0800
28     H28     1.9645    0.0898    3.4417 H        1 ZINC000001546399    0.0800
29     H29     0.5619   -0.2124    4.4950 H        1 ZINC000001546399    0.1100
30     H30     1.7165   -2.1998    1.8937 H        1 ZINC000001546399    0.1400
31     H31     0.2373   -2.4698    0.9412 H        1 ZINC000001546399    0.1400
32     H32     1.4430   -1.8026   -1.1203 H        1 ZINC000001546399    0.0900
33     H33     2.9223   -1.5327   -0.1678 H        1 ZINC000001546399    0.0900
34     H34     2.0190   -4.1642    0.3177 H        1 ZINC000001546399    0.4100
35     H35     2.3541   -5.9641    0.2889 H        1 ZINC000001546399    0.1300
36     H36     2.9125   -8.3483    0.0970 H        1 ZINC000001546399    0.1400
37     H37     4.0375  -10.0778   -1.1478 H        1 ZINC000001546399    0.4100
38     H38     4.8984   -9.7668   -2.5567 H        1 ZINC000001546399    0.4100
39     H39     4.5462   -5.1688   -3.3145 H        1 ZINC000001546399    0.1500
@<TRIPOS>BOND
1     1     2     1
2     1     20    1
3     1     21    1
4     1     22    1
5     2     3     1
6     2     23    1
7     2     24    1
8     3     4     1
9     3     5     1
10    3     7     1
11    5     6     1
12    5     25    1
13    5     26    1
14    6     27    1
15    6     28    1
16    6     29    1
17    7     8     1
18    7     30    1
19    7     31    1
20    8     9     1
21    8     32    1
22    8     33    1
23    9     10    am
24    9     34    1
25    10    11    2
26    10    12    1
27    12    19    ar
28    12    13    ar
29    13    14    ar
30    13    35    1
31    14    15    ar
32    14    36    1
33    15    16    1
34    15    17    ar
35    16    37    1
36    16    38    1
37    17    18    1
38    17    19    ar
39    19    39    1
@<TRIPOS>SUBSTRUCTURE
1   ZINC000001546399 1     RESIDUE    1   A     ZIN   1
