@<TRIPOS>MOLECULE
ZINC000022012325
  59   61    0    0    0
SMALL
USER_CHARGES
NO_NAME
@<TRIPOS>ATOM
    1 C1       -0.0173     1.4248     0.0099 C.3    1 <0>       0.0300
    2 O2        0.0021    -0.0041     0.0020 O.3    1 <0>      -0.3100
    3 C3       -1.2011    -0.6379     0.0101 C.ar   1 <0>       0.1000
    4 C4       -2.3739     0.0992     0.0195 C.ar   1 <0>      -0.1700
    5 C5       -3.5965    -0.5469     0.0272 C.ar   1 <0>      -0.1100
    6 C6       -3.6519    -1.9279     0.0261 C.ar   1 <0>      -0.0800
    7 C7       -4.9869    -2.6268     0.0350 C.3    1 <0>      -0.0800
    8 C8       -5.4493    -2.8618    -1.4044 C.3    1 <0>       0.0600
    9 N9       -6.7507    -3.5431    -1.3957 N.3    1 <0>      -0.5400
   10 C10      -6.7511    -4.6657    -0.4473 C.3    1 <0>       0.0500
   11 C11      -8.1445    -5.2977    -0.4096 C.3    1 <0>       0.0600
   12 N12      -8.5104    -5.7515    -1.7586 N.3    1 <0>      -0.5400
   13 C13      -9.8118    -6.4328    -1.7499 C.3    1 <0>       0.0600
   14 C14     -10.0447    -7.1049    -3.1044 C.3    1 <0>      -0.1100
   15 C15     -11.4002    -7.8145    -3.0954 C.3    1 <0>      -0.0800
   16 C16     -11.6295    -8.4766    -4.4296 C.ar   1 <0>      -0.0800
   17 C17     -12.2544    -7.7812    -5.4479 C.ar   1 <0>      -0.1200
   18 C18     -12.4648    -8.3884    -6.6717 C.ar   1 <0>      -0.1200
   19 C19     -12.0499    -9.6909    -6.8775 C.ar   1 <0>      -0.1300
   20 C20     -11.4243   -10.3860    -5.8595 C.ar   1 <0>      -0.1200
   21 C21     -11.2100    -9.7773    -4.6370 C.ar   1 <0>      -0.1200
   22 C22      -8.5100    -4.6289    -2.7069 C.3    1 <0>       0.0600
   23 C23      -7.1166    -3.9969    -2.7447 C.3    1 <0>       0.0600
   24 C24      -2.4848    -2.6697     0.0163 C.ar   1 <0>      -0.1700
   25 C25      -1.2569    -2.0287     0.0032 C.ar   1 <0>       0.1000
   26 O26      -0.1082    -2.7567    -0.0065 O.3    1 <0>      -0.3100
   27 C27      -0.2418    -4.1795    -0.0024 C.3    1 <0>       0.0300
   28 H28       1.0053     1.8021     0.0021 H      1 <0>       0.1000
   29 H29      -0.5445     1.7859    -0.8732 H      1 <0>       0.0500
   30 H30      -0.5275     1.7763     0.9067 H      1 <0>       0.0600
   31 H31      -2.3334     1.1784     0.0211 H      1 <0>       0.1400
   32 H32      -4.5102     0.0290     0.0345 H      1 <0>       0.1300
   33 H33      -4.8923    -3.5844     0.5471 H      1 <0>       0.0700
   34 H34      -5.7178    -2.0074     0.5549 H      1 <0>       0.0800
   35 H35      -5.5439    -1.9042    -1.9165 H      1 <0>       0.0800
   36 H36      -4.7184    -3.4811    -1.9243 H      1 <0>       0.0400
   37 H37      -6.0222    -5.4110    -0.7658 H      1 <0>       0.0400
   38 H38      -6.4895    -4.3023     0.5465 H      1 <0>       0.0900
   39 H39      -8.1395    -6.1486     0.2715 H      1 <0>       0.0800
   40 H40      -8.8692    -4.5599    -0.0650 H      1 <0>       0.0400
   41 H41      -9.8216    -7.1874    -0.9634 H      1 <0>       0.0800
   42 H42     -10.6018    -5.7049    -1.5648 H      1 <0>       0.0400
   43 H43     -10.0349    -6.3503    -3.8909 H      1 <0>       0.0600
   44 H44      -9.2547    -7.8328    -3.2895 H      1 <0>       0.0700
   45 H45     -11.4099    -8.5692    -2.3089 H      1 <0>       0.0700
   46 H46     -12.1901    -7.0867    -2.9103 H      1 <0>       0.0700
   47 H47     -12.5785    -6.7636    -5.2871 H      1 <0>       0.1200
   48 H48     -12.9536    -7.8454    -7.4671 H      1 <0>       0.1200
   49 H49     -12.2150   -10.1656    -7.8334 H      1 <0>       0.1200
   50 H50     -11.1004   -11.4037    -6.0201 H      1 <0>       0.1200
   51 H51     -10.7212   -10.3203    -3.8417 H      1 <0>       0.1200
   52 H52      -8.7715    -4.9923    -3.7007 H      1 <0>       0.0800
   53 H53      -9.2389    -3.8836    -2.3885 H      1 <0>       0.0400
   54 H54      -7.1216    -3.1459    -3.4258 H      1 <0>       0.0800
   55 H55      -6.3919    -4.7346    -3.0892 H      1 <0>       0.0400
   56 H56      -2.5308    -3.7487     0.0154 H      1 <0>       0.1300
   57 H57      -0.7788    -4.4914     0.8934 H      1 <0>       0.0500
   58 H58      -0.7960    -4.4949    -0.8864 H      1 <0>       0.0500
   59 H59       0.7473    -4.6373    -0.0110 H      1 <0>       0.1000
@<TRIPOS>BOND
   1    1    2 1
   2    1   28 1
   3    1   29 1
   4    1   30 1
   5    2    3 1
   6    3   25 ar
   7    3    4 ar
   8    4    5 ar
   9    4   31 1
  10    5    6 ar
  11    5   32 1
  12    6    7 1
  13    6   24 ar
  14    7    8 1
  15    7   33 1
  16    7   34 1
  17    8    9 1
  18    8   35 1
  19    8   36 1
  20    9   23 1
  21    9   10 1
  22   10   11 1
  23   10   37 1
  24   10   38 1
  25   11   12 1
  26   11   39 1
  27   11   40 1
  28   12   13 1
  29   12   22 1
  30   13   14 1
  31   13   41 1
  32   13   42 1
  33   14   15 1
  34   14   43 1
  35   14   44 1
  36   15   16 1
  37   15   45 1
  38   15   46 1
  39   16   21 ar
  40   16   17 ar
  41   17   18 ar
  42   17   47 1
  43   18   19 ar
  44   18   48 1
  45   19   20 ar
  46   19   49 1
  47   20   21 ar
  48   20   50 1
  49   21   51 1
  50   22   23 1
  51   22   52 1
  52   22   53 1
  53   23   54 1
  54   23   55 1
  55   24   25 ar
  56   24   56 1
  57   25   26 1
  58   26   27 1
  59   27   57 1
  60   27   58 1
  61   27   59 1
