@<TRIPOS>MOLECULE
ZINC000002383344
  29   30    0    0    0
SMALL
USER_CHARGES
NO_NAME
@<TRIPOS>ATOM
    1 N1        0.3324     1.0416     0.2237 N.4    1 <0>      -0.6400
    2 H2        0.4858     0.0477     0.3060 H      1 <0>       0.4300
    3 H3        1.2177     1.5235     0.2688 H      1 <0>       0.4400
    4 H4       -0.1145     1.2410    -0.6587 H      1 <0>       0.4400
    5 C5       -0.5294     1.4967     1.3229 C.3    1 <0>       0.0300
    6 C6       -1.8728     0.7669     1.2532 C.3    1 <0>      -0.1600
    7 C7       -2.7812     1.2691     2.3799 C.3    1 <0>       0.1300
    8 N8       -2.0764     1.1150     3.6598 N.pl3  1 <0>      -0.6200
    9 C9       -2.6656     0.4272     4.7144 C.ar   1 <0>       0.4100
   10 C10      -4.0092     0.0758     4.6427 C.ar   1 <0>      -0.2300
   11 C11      -4.5837    -0.6087     5.6992 C.ar   1 <0>      -0.0200
   12 C12      -3.7923    -0.9199     6.7958 C.ar   1 <0>      -0.2000
   13 C13      -2.4631    -0.5400     6.8009 C.ar   1 <0>       0.2200
   14 Cl14     -1.4666    -0.9256     8.1691 Cl     1 <0>      -0.0200
   15 N15      -1.9407     0.1078     5.7759 N.ar   1 <0>      -0.5400
   16 C16      -0.7369     1.7012     3.8038 C.3    1 <0>       0.1300
   17 C17       0.1486     1.1942     2.6611 C.3    1 <0>      -0.1600
   18 H18      -0.6946     2.5705     1.2340 H      1 <0>       0.1400
   19 H19      -2.3444     0.9640     0.2905 H      1 <0>       0.1000
   20 H20      -1.7108    -0.3050     1.3669 H      1 <0>       0.0900
   21 H21      -3.0177     2.3206     2.2173 H      1 <0>       0.0800
   22 H22      -3.7006     0.6839     2.3962 H      1 <0>       0.1100
   23 H23      -4.5966     0.3341     3.7740 H      1 <0>       0.1400
   24 H24      -5.6249    -0.8941     5.6711 H      1 <0>       0.1500
   25 H25      -4.2105    -1.4531     7.6368 H      1 <0>       0.1500
   26 H26      -0.8067     2.7880     3.7573 H      1 <0>       0.0800
   27 H27      -0.3075     1.4011     4.7596 H      1 <0>       0.1200
   28 H28       0.2915     0.1183     2.7615 H      1 <0>       0.0900
   29 H29       1.1157     1.6954     2.7005 H      1 <0>       0.1000
@<TRIPOS>BOND
   1    1    2 1
   2    1    3 1
   3    1    4 1
   4    1    5 1
   5    5   17 1
   6    5    6 1
   7    5   18 1
   8    6    7 1
   9    6   19 1
  10    6   20 1
  11    7    8 1
  12    7   21 1
  13    7   22 1
  14    8    9 1
  15    8   16 1
  16    9   15 ar
  17    9   10 ar
  18   10   11 ar
  19   10   23 1
  20   11   12 ar
  21   11   24 1
  22   12   13 ar
  23   12   25 1
  24   13   14 1
  25   13   15 ar
  26   16   17 1
  27   16   26 1
  28   16   27 1
  29   17   28 1
  30   17   29 1
