@<TRIPOS>MOLECULE
ZINC000012503245
45    46    1     0     0
SMALL
USER_CHARGES
@<TRIPOS>ATOM
1      C1     -0.0187    1.5258    0.0104 C.3      1 ZINC000012503245   -0.1600
2      C2      0.0021   -0.0041    0.0020 C.3      1 ZINC000012503245   -0.1300
3      C3      0.7182   -0.4975   -1.2568 C.3      1 ZINC000012503245   -0.1200
4      C4      0.7390   -2.0273   -1.2652 C.3      1 ZINC000012503245   -0.1300
5      C5      1.4551   -2.5207   -2.5240 C.3      1 ZINC000012503245    0.1200
6      N6      1.4750   -3.9856   -2.5321 N.pl3    1 ZINC000012503245   -0.7100
7      C7      2.0724   -4.6624   -3.5773 C.2      1 ZINC000012503245    0.6100
8      N8      2.6511   -3.9582   -4.6149 N.pl3    1 ZINC000012503245   -0.8800
9      N9      2.0901   -5.9669   -3.5845 N.2      1 ZINC000012503245   -0.4300
10     N10     2.6961   -6.6534   -4.6447 N.pl3    1 ZINC000012503245   -0.5000
11     C11     2.7143   -7.9949   -4.6521 C.2      1 ZINC000012503245    0.3400
12     C12     3.3154   -8.6758   -5.7038 C.2      1 ZINC000012503245   -0.3100
13     C13     3.9559   -8.1204   -6.8355 C.2      1 ZINC000012503245    0.1400
14     N14     4.3973   -9.0829   -7.6036 N.2      1 ZINC000012503245   -0.5000
15     C15     4.1182  -10.3073   -7.1020 C.ar     1 ZINC000012503245    0.0600
16     C16     4.3812  -11.6063   -7.5535 C.ar     1 ZINC000012503245   -0.0800
17     C17     3.9650  -12.6871   -6.8119 C.ar     1 ZINC000012503245   -0.1100
18     C18     3.2834  -12.5094   -5.6151 C.ar     1 ZINC000012503245   -0.1000
19     C19     2.8380  -13.7104   -4.8212 C.3      1 ZINC000012503245    0.1200
20     O20     3.8683  -14.0839   -3.9041 O.3      1 ZINC000012503245   -0.5700
21     C21     3.0122  -11.2409   -5.1490 C.ar     1 ZINC000012503245   -0.0800
22     C22     3.4302  -10.1352   -5.8800 C.ar     1 ZINC000012503245   -0.0800
23     H23     1.0039    1.9031    0.0027 H        1 ZINC000012503245    0.0500
24     H24    -0.5459    1.8868   -0.8726 H        1 ZINC000012503245    0.0500
25     H25    -0.5289    1.8773    0.9072 H        1 ZINC000012503245    0.0600
26     H26     0.5293   -0.3651    0.8851 H        1 ZINC000012503245    0.0600
27     H27    -1.0205   -0.3814    0.0098 H        1 ZINC000012503245    0.0600
28     H28     0.1910   -0.1364   -2.1398 H        1 ZINC000012503245    0.0700
29     H29     1.7408   -0.1202   -1.2645 H        1 ZINC000012503245    0.0700
30     H30     1.2661   -2.3884   -0.3821 H        1 ZINC000012503245    0.0700
31     H31    -0.2836   -2.4046   -1.2575 H        1 ZINC000012503245    0.0700
32     H32     0.9279   -2.1597   -3.4071 H        1 ZINC000012503245    0.0700
33     H33     2.4777   -2.1435   -2.5317 H        1 ZINC000012503245    0.0700
34     H34     1.0685   -4.4802   -1.8033 H        1 ZINC000012503245    0.4200
35     H35     2.6379   -2.9883   -4.6096 H        1 ZINC000012503245    0.4100
36     H36     3.0707   -4.4335   -5.3490 H        1 ZINC000012503245    0.4100
37     H37     3.1026   -6.1588   -5.3735 H        1 ZINC000012503245    0.3800
38     H38     2.2618   -8.5456   -3.8407 H        1 ZINC000012503245    0.1700
39     H39     4.0638   -7.0645   -7.0351 H        1 ZINC000012503245    0.1500
40     H40     4.9098  -11.7593   -8.4828 H        1 ZINC000012503245    0.1200
41     H41     4.1706  -13.6868   -7.1649 H        1 ZINC000012503245    0.1200
42     H42     1.9312  -13.4646   -4.2685 H        1 ZINC000012503245    0.0500
43     H43     2.6368  -14.5398   -5.4991 H        1 ZINC000012503245    0.0500
44     H44     3.6498  -14.8518   -3.3585 H        1 ZINC000012503245    0.3800
45     H45     2.4818  -11.1068   -4.2178 H        1 ZINC000012503245    0.1100
@<TRIPOS>BOND
1     1     2     1
2     1     23    1
3     1     24    1
4     1     25    1
5     2     3     1
6     2     26    1
7     2     27    1
8     3     4     1
9     3     28    1
10    3     29    1
11    4     5     1
12    4     30    1
13    4     31    1
14    5     6     1
15    5     32    1
16    5     33    1
17    6     7     1
18    6     34    1
19    7     8     1
20    7     9     2
21    8     35    1
22    8     36    1
23    9     10    1
24    10    11    1
25    10    37    1
26    11    12    2
27    11    38    1
28    12    22    1
29    12    13    1
30    13    14    2
31    13    39    1
32    14    15    1
33    15    22    ar
34    15    16    ar
35    16    17    ar
36    16    40    1
37    17    18    ar
38    17    41    1
39    18    19    1
40    18    21    ar
41    19    20    1
42    19    42    1
43    19    43    1
44    20    44    1
45    21    22    ar
46    21    45    1
@<TRIPOS>SUBSTRUCTURE
1   ZINC000012503245 1     RESIDUE    1   A     ZIN   1
