@<TRIPOS>MOLECULE
ZINC000003797539
  49   51    0    0    0
SMALL
USER_CHARGES
NO_NAME
@<TRIPOS>ATOM
    1 C1       -0.0173     1.4248     0.0099 C.3    1 <0>       0.0200
    2 O2        0.0021    -0.0041     0.0020 O.3    1 <0>      -0.3200
    3 C3        0.6258    -0.6184     1.0415 C.ar   1 <0>       0.1300
    4 C4        1.2031     0.1359     2.0524 C.ar   1 <0>      -0.2000
    5 C5        1.8362    -0.4971     3.1010 C.ar   1 <0>      -0.0700
    6 C6        1.9023    -1.8836     3.1545 C.ar   1 <0>      -0.1200
    7 C7        2.6234    -2.5057     4.3218 C.3    1 <0>      -0.0800
    8 C8        2.2443    -3.9783     4.4645 C.3    1 <0>      -0.1100
    9 C9        2.4294    -4.6597     3.1035 C.3    1 <0>      -0.1100
   10 H10       3.4153    -4.4209     2.7045 H      1 <0>       0.1000
   11 C11       2.2913    -6.1750     3.2629 C.3    1 <0>      -0.0100
   12 N12       2.5873    -6.8311     1.9823 N.4    1 <0>      -0.5100
   13 H13       1.9393    -6.5063     1.2803 H      1 <0>       0.4300
   14 H14       3.5296    -6.6071     1.6995 H      1 <0>       0.4300
   15 C15       2.4547    -8.2861     2.1353 C.3    1 <0>      -0.0400
   16 C16       2.7629    -8.9694     0.8015 C.3    1 <0>       0.1400
   17 H17       3.7808    -8.7274     0.4960 H      1 <0>       0.1300
   18 O18       1.8452    -8.5094    -0.1926 O.3    1 <0>      -0.5500
   19 C19       2.6268   -10.4620     0.9585 C.ar   1 <0>      -0.1300
   20 C20       1.3888   -11.0612     0.8218 C.ar   1 <0>      -0.1000
   21 C21       1.2633   -12.4306     0.9653 C.ar   1 <0>      -0.1000
   22 C22       2.3756   -13.2010     1.2459 C.ar   1 <0>      -0.0900
   23 C23       3.6153   -12.6018     1.3829 C.ar   1 <0>      -0.0300
   24 Cl24      5.0133   -13.5691     1.7348 Cl     1 <0>      -0.0500
   25 C25       3.7412   -11.2323     1.2336 C.ar   1 <0>      -0.0900
   26 C26       1.3510    -4.1411     2.1544 C.3    1 <0>      -0.0900
   27 C27       1.3250    -2.6349     2.1546 C.ar   1 <0>      -0.0500
   28 C28       0.6835    -2.0006     1.0999 C.ar   1 <0>      -0.1500
   29 H29       1.0053     1.8021     0.0021 H      1 <0>       0.0600
   30 H30      -0.5445     1.7859    -0.8732 H      1 <0>       0.1100
   31 H31      -0.5275     1.7763     0.9067 H      1 <0>       0.0600
   32 H32       1.1571     1.2144     2.0182 H      1 <0>       0.1300
   33 H33       2.2852     0.0906     3.8880 H      1 <0>       0.1300
   34 H34       3.6990    -2.4251     4.1642 H      1 <0>       0.0800
   35 H35       2.3539    -1.9751     5.2349 H      1 <0>       0.0800
   36 H36       2.8893    -4.4534     5.2036 H      1 <0>       0.0800
   37 H37       1.2036    -4.0607     4.7777 H      1 <0>       0.0800
   38 H38       2.9913    -6.5259     4.0212 H      1 <0>       0.1400
   39 H39       1.2734    -6.4170     3.5684 H      1 <0>       0.1300
   40 H40       3.1547    -8.6369     2.8936 H      1 <0>       0.1500
   41 H41       1.4367    -8.5280     2.4408 H      1 <0>       0.1400
   42 H42       0.9181    -8.6913     0.0137 H      1 <0>       0.3900
   43 H43       0.5191   -10.4594     0.6032 H      1 <0>       0.1300
   44 H44       0.2956   -12.8982     0.8583 H      1 <0>       0.1400
   45 H45       2.2773   -14.2706     1.3586 H      1 <0>       0.1400
   46 H46       4.7085   -10.7640     1.3404 H      1 <0>       0.1400
   47 H47       1.5590    -4.4969     1.1453 H      1 <0>       0.0700
   48 H48       0.3794    -4.5174     2.4745 H      1 <0>       0.0900
   49 H49       0.2304    -2.5895     0.3162 H      1 <0>       0.1300
@<TRIPOS>BOND
   1    1    2 1
   2    1   29 1
   3    1   30 1
   4    1   31 1
   5    2    3 1
   6    3   28 ar
   7    3    4 ar
   8    4    5 ar
   9    4   32 1
  10    5    6 ar
  11    5   33 1
  12    6   27 ar
  13    6    7 1
  14    7    8 1
  15    7   34 1
  16    7   35 1
  17    8    9 1
  18    8   36 1
  19    8   37 1
  20    9   10 1
  21    9   11 1
  22    9   26 1
  23   11   12 1
  24   11   38 1
  25   11   39 1
  26   12   13 1
  27   12   14 1
  28   12   15 1
  29   15   16 1
  30   15   40 1
  31   15   41 1
  32   16   17 1
  33   16   18 1
  34   16   19 1
  35   18   42 1
  36   19   25 ar
  37   19   20 ar
  38   20   21 ar
  39   20   43 1
  40   21   22 ar
  41   21   44 1
  42   22   23 ar
  43   22   45 1
  44   23   24 1
  45   23   25 ar
  46   25   46 1
  47   26   27 1
  48   26   47 1
  49   26   48 1
  50   27   28 ar
  51   28   49 1
