@<TRIPOS>MOLECULE
ZINC000016052398
  41   44    0    0    0
SMALL
USER_CHARGES
NO_NAME
@<TRIPOS>ATOM
    1 N1       -0.0247    -1.1358     0.4586 N.1    1 <0>      -0.4300
    2 C2       -0.0365    -0.0003     0.4272 C.1    1 <0>       0.3000
    3 C3       -0.0513     1.4311     0.3877 C.2    1 <0>      -0.2200
    4 C4       -1.1668     2.2493     0.1522 C.2    1 <0>       0.4100
    5 N5       -2.4565     1.9997    -0.0896 N.2    1 <0>      -0.6000
    6 C6       -3.3024     3.0012    -0.2774 C.2    1 <0>       0.6400
    7 N7       -4.6317     2.7298    -0.5263 N.pl3  1 <0>      -0.6700
    8 C8       -5.0981     1.3421    -0.5813 C.3    1 <0>       0.1700
    9 C9       -6.5780     1.3204    -0.8654 C.ar   1 <0>      -0.1100
   10 C10      -7.4826     1.3456     0.1796 C.ar   1 <0>      -0.0800
   11 C11      -8.8399     1.3258    -0.0803 C.ar   1 <0>      -0.1100
   12 C12      -9.2932     1.2806    -1.3867 C.ar   1 <0>      -0.0200
   13 Cl13    -10.9979     1.2563    -1.7140 Cl     1 <0>      -0.0600
   14 C14      -8.3874     1.2554    -2.4321 C.ar   1 <0>      -0.1100
   15 C15      -7.0303     1.2810    -2.1711 C.ar   1 <0>      -0.0800
   16 N16      -2.8883     4.2701    -0.2291 N.2    1 <0>      -0.6100
   17 C17      -1.6225     4.5596     0.0072 C.2    1 <0>       0.7000
   18 N18      -1.2094     5.8664     0.0539 N.pl3  1 <0>      -0.6100
   19 C19      -2.1478     6.8998    -0.0316 C.ar   1 <0>       0.1400
   20 C20      -3.3866     6.7676     0.5825 C.ar   1 <0>      -0.1000
   21 C21      -4.3109     7.7902     0.4966 C.ar   1 <0>      -0.1000
   22 C22      -4.0043     8.9446    -0.2003 C.ar   1 <0>      -0.1200
   23 C23      -2.7720     9.0793    -0.8131 C.ar   1 <0>      -0.1000
   24 C24      -1.8409     8.0630    -0.7258 C.ar   1 <0>      -0.1300
   25 N25      -0.7252     3.5451     0.2047 N.pl3  1 <0>      -0.3900
   26 N26       0.6467     3.5248     0.4695 N.2    1 <0>      -0.3100
   27 C27       1.0510     2.2882     0.5840 C.2    1 <0>       0.1700
   28 H28      -5.2577     3.4577    -0.6650 H      1 <0>       0.4200
   29 H29      -4.5684     0.8118    -1.3727 H      1 <0>       0.0900
   30 H30      -4.9045     0.8556     0.3747 H      1 <0>       0.0900
   31 H31      -7.1286     1.3805     1.1994 H      1 <0>       0.1400
   32 H32      -9.5465     1.3451     0.7362 H      1 <0>       0.1400
   33 H33      -8.7406     1.2199    -3.4521 H      1 <0>       0.1400
   34 H34      -6.3231     1.2617    -2.9871 H      1 <0>       0.1400
   35 H35      -0.2664     6.0740     0.1462 H      1 <0>       0.4400
   36 H36      -3.6269     5.8659     1.1262 H      1 <0>       0.1300
   37 H37      -5.2743     7.6880     0.9738 H      1 <0>       0.1300
   38 H38      -4.7289     9.7426    -0.2662 H      1 <0>       0.1300
   39 H39      -2.5358     9.9820    -1.3569 H      1 <0>       0.1300
   40 H40      -0.8787     8.1687    -1.2047 H      1 <0>       0.1300
   41 H41       2.0638     1.9738     0.7888 H      1 <0>       0.2100
@<TRIPOS>BOND
   1    1    2 3
   2    2    3 1
   3    3   27 1
   4    3    4 2
   5    4   25 1
   6    4    5 1
   7    5    6 2
   8    6    7 1
   9    6   16 1
  10    7    8 1
  11    7   28 1
  12    8    9 1
  13    8   29 1
  14    8   30 1
  15    9   15 ar
  16    9   10 ar
  17   10   11 ar
  18   10   31 1
  19   11   12 ar
  20   11   32 1
  21   12   13 1
  22   12   14 ar
  23   14   15 ar
  24   14   33 1
  25   15   34 1
  26   16   17 2
  27   17   18 1
  28   17   25 1
  29   18   19 1
  30   18   35 1
  31   19   24 ar
  32   19   20 ar
  33   20   21 ar
  34   20   36 1
  35   21   22 ar
  36   21   37 1
  37   22   23 ar
  38   22   38 1
  39   23   24 ar
  40   23   39 1
  41   24   40 1
  42   25   26 1
  43   26   27 2
  44   27   41 1
