@<TRIPOS>MOLECULE
ZINC000001494900
68    74    1     0     0
SMALL
USER_CHARGES
@<TRIPOS>ATOM
1      C1     -0.0178    1.4608    0.0101 C.3      1 ZINC000001494900    0.0800
2      N2      0.0021   -0.0041    0.0020 N.pl3    1 ZINC000001494900   -0.4800
3      C3      0.0078   -0.7756   -1.1193 C.2      1 ZINC000001494900    0.1000
4      C4      0.0272   -2.0937   -0.7697 C.2      1 ZINC000001494900   -0.1400
5      C5      0.0390   -3.2475   -1.6846 C.2      1 ZINC000001494900   -0.0300
6      C6      1.1165   -3.7121   -2.4297 C.2      1 ZINC000001494900   -0.0300
7      C7      2.4773   -3.1505   -2.4636 C.2      1 ZINC000001494900   -0.1400
8      C8      3.4356   -3.2757   -1.5013 C.2      1 ZINC000001494900    0.1100
9      N9      4.5635   -2.6200   -1.8895 N.pl3    1 ZINC000001494900   -0.4700
10     C10     5.7982   -2.5416   -1.1049 C.3      1 ZINC000001494900    0.1400
11     C11     5.5066   -1.8756    0.2427 C.3      1 ZINC000001494900   -0.1200
12     C12     6.7863   -1.8514    1.0817 C.3      1 ZINC000001494900    0.0600
13     N13     7.2642   -3.2246    1.2873 N.3      1 ZINC000001494900   -0.5300
14     C14     8.4123   -3.2508    2.2034 C.3      1 ZINC000001494900    0.1100
15     C15     9.0264   -4.6270    2.2000 C.ar     1 ZINC000001494900    0.1300
16     C16    10.1029   -4.8924    1.3753 C.ar     1 ZINC000001494900   -0.1700
17     C17    10.6610   -6.1619    1.3800 C.ar     1 ZINC000001494900   -0.0700
18     C18    10.1126   -7.1206    2.2179 C.ar     1 ZINC000001494900   -0.1700
19     C19     9.0354   -6.7817    3.0151 C.ar     1 ZINC000001494900    0.1000
20     N20     8.5336   -5.5626    2.9882 N.ar     1 ZINC000001494900   -0.4600
21     C21     7.5956   -3.8684    0.0098 C.3      1 ZINC000001494900    0.0600
22     C22     6.3401   -3.9528   -0.8612 C.3      1 ZINC000001494900   -0.1300
23     C23     4.3781   -2.0403   -3.1275 C.ar     1 ZINC000001494900    0.1000
24     C24     5.1971   -1.2767   -3.9524 C.ar     1 ZINC000001494900   -0.1300
25     C25     4.7226   -0.8253   -5.1651 C.ar     1 ZINC000001494900   -0.1000
26     C26     3.4315   -1.1244   -5.5747 C.ar     1 ZINC000001494900   -0.1400
27     C27     2.6043   -1.8791   -4.7716 C.ar     1 ZINC000001494900   -0.0700
28     C28     3.0730   -2.3482   -3.5466 C.ar     1 ZINC000001494900   -0.0700
29     C29     0.6203   -4.8839   -3.1806 C.2      1 ZINC000001494900    0.5600
30     O30     1.2740   -5.5635   -3.9466 O.2      1 ZINC000001494900   -0.4500
31     N31    -0.6746   -5.0727   -2.8750 N.am     1 ZINC000001494900   -0.6900
32     C32    -1.0904   -4.1494   -1.9916 C.2      1 ZINC000001494900    0.5600
33     O33    -2.2107   -4.0648   -1.5293 O.2      1 ZINC000001494900   -0.4500
34     C34     0.0340   -2.1368    0.7032 C.ar     1 ZINC000001494900   -0.0800
35     C35     0.0519   -3.1678    1.6397 C.ar     1 ZINC000001494900   -0.0700
36     C36     0.0535   -2.8677    2.9846 C.ar     1 ZINC000001494900   -0.1400
37     C37     0.0369   -1.5466    3.4072 C.ar     1 ZINC000001494900   -0.1000
38     C38     0.0190   -0.5165    2.4917 C.ar     1 ZINC000001494900   -0.1200
39     C39     0.0236   -0.7983    1.1297 C.ar     1 ZINC000001494900    0.1000
40     H40     1.0048    1.8381    0.0023 H        1 ZINC000001494900    0.0700
41     H41    -0.5450    1.8219   -0.8730 H        1 ZINC000001494900    0.0900
42     H42    -0.5280    1.8123    0.9069 H        1 ZINC000001494900    0.0800
43     H43    -0.0015   -0.4009   -2.1322 H        1 ZINC000001494900    0.1700
44     H44     3.3174   -3.8134   -0.5721 H        1 ZINC000001494900    0.1700
45     H45     6.5390   -1.9558   -1.6491 H        1 ZINC000001494900    0.1000
46     H46     5.1608   -0.8552    0.0771 H        1 ZINC000001494900    0.0800
47     H47     4.7371   -2.4404    0.7688 H        1 ZINC000001494900    0.0800
48     H48     7.5510   -1.2748    0.5613 H        1 ZINC000001494900    0.0400
49     H49     6.5787   -1.3907    2.0475 H        1 ZINC000001494900    0.0900
50     H50     9.1537   -2.5213    1.8777 H        1 ZINC000001494900    0.0500
51     H51     8.0785   -3.0044    3.2114 H        1 ZINC000001494900    0.1000
52     H52    10.5044   -4.1210    0.7349 H        1 ZINC000001494900    0.1300
53     H53    11.5026   -6.3981    0.7458 H        1 ZINC000001494900    0.1400
54     H54    10.5216   -8.1197    2.2471 H        1 ZINC000001494900    0.1400
55     H55     8.6022   -7.5229    3.6703 H        1 ZINC000001494900    0.1600
56     H56     8.3565   -3.2824   -0.5056 H        1 ZINC000001494900    0.0400
57     H57     7.9759   -4.8726    0.1970 H        1 ZINC000001494900    0.0800
58     H58     5.5837   -4.5503   -0.3524 H        1 ZINC000001494900    0.0800
59     H59     6.5898   -4.4165   -1.8155 H        1 ZINC000001494900    0.0800
60     H60     6.2037   -1.0375   -3.6429 H        1 ZINC000001494900    0.1200
61     H61     5.3621   -0.2327   -5.8025 H        1 ZINC000001494900    0.1300
62     H62     3.0727   -0.7638   -6.5274 H        1 ZINC000001494900    0.1200
63     H63     1.5993   -2.1099   -5.0925 H        1 ZINC000001494900    0.1200
64     H64    -1.2305   -5.7798   -3.2380 H        1 ZINC000001494900    0.4300
65     H65     0.0642   -4.1972    1.3134 H        1 ZINC000001494900    0.1200
66     H66     0.0674   -3.6649    3.7131 H        1 ZINC000001494900    0.1200
67     H67     0.0376   -1.3230    4.4638 H        1 ZINC000001494900    0.1300
68     H68     0.0062    0.5086    2.8315 H        1 ZINC000001494900    0.1200
@<TRIPOS>BOND
1     1     2     1
2     1     40    1
3     1     41    1
4     1     42    1
5     2     39    1
6     2     3     1
7     3     4     2
8     3     43    1
9     4     5     1
10    4     34    1
11    5     32    1
12    5     6     2
13    6     7     1
14    6     29    1
15    7     28    1
16    7     8     2
17    8     9     1
18    8     44    1
19    9     10    1
20    9     23    1
21    10    22    1
22    10    11    1
23    10    45    1
24    11    12    1
25    11    46    1
26    11    47    1
27    12    13    1
28    12    48    1
29    12    49    1
30    13    14    1
31    13    21    1
32    14    15    1
33    14    50    1
34    14    51    1
35    15    20    ar
36    15    16    ar
37    16    17    ar
38    16    52    1
39    17    18    ar
40    17    53    1
41    18    19    ar
42    18    54    1
43    19    20    ar
44    19    55    1
45    21    22    1
46    21    56    1
47    21    57    1
48    22    58    1
49    22    59    1
50    23    28    ar
51    23    24    ar
52    24    25    ar
53    24    60    1
54    25    26    ar
55    25    61    1
56    26    27    ar
57    26    62    1
58    27    28    ar
59    27    63    1
60    29    30    2
61    29    31    am
62    31    32    am
63    31    64    1
64    32    33    2
65    34    39    ar
66    34    35    ar
67    35    36    ar
68    35    65    1
69    36    37    ar
70    36    66    1
71    37    38    ar
72    37    67    1
73    38    39    ar
74    38    68    1
@<TRIPOS>SUBSTRUCTURE
1   ZINC000001494900 1     RESIDUE    1   A     ZIN   1
