@<TRIPOS>MOLECULE
ZINC000003930598
70    75    1     0     0
SMALL
USER_CHARGES
@<TRIPOS>ATOM
1      C1    -11.0639  -10.3176    5.3403 C.3      1 ZINC000003930598   -0.1500
2      C2    -10.1496  -10.8443    4.2644 C.2      1 ZINC000003930598    0.4800
3      O3     -9.3606  -11.7233    4.5190 O.2      1 ZINC000003930598   -0.4900
4      O4    -10.2117  -10.3371    3.0232 O.3      1 ZINC000003930598   -0.3700
5      C5     -9.3013  -10.8924    2.0378 C.3      1 ZINC000003930598    0.2300
6      N6     -9.5081  -10.2242    0.7506 N.ar     1 ZINC000003930598   -0.3400
7      C7    -10.3913  -10.7182   -0.0947 C.ar     1 ZINC000003930598    0.1500
8      C8    -10.6134  -10.1148   -1.3183 C.ar     1 ZINC000003930598   -0.1100
9      C9     -9.8944   -8.9772   -1.6508 C.ar     1 ZINC000003930598    0.0500
10     C10    -8.9747   -8.4868   -0.7361 C.ar     1 ZINC000003930598   -0.1100
11     C11    -8.1690   -7.2528   -1.0510 C.3      1 ZINC000003930598    0.2000
12     H12    -7.4911   -7.0189   -0.2301 H        1 ZINC000003930598    0.1400
13     S13    -7.2377   -7.4719   -2.6143 S.3      1 ZINC000003930598   -0.1800
14     C14    -7.5062   -5.7446   -3.1700 C.3      1 ZINC000003930598   -0.0200
15     C15    -8.7500   -5.3367   -2.3854 C.2      1 ZINC000003930598    0.0900
16     C16    -9.6842   -4.3217   -2.4878 C.2      1 ZINC000003930598   -0.2000
17     C17    -9.7178   -3.2489   -3.4969 C.2      1 ZINC000003930598    0.5000
18     O18    -8.8106   -3.1414   -4.3015 O.2      1 ZINC000003930598   -0.4500
19     C19   -10.8471   -2.3079   -3.5321 C.2      1 ZINC000003930598   -0.2100
20     C20   -10.8232   -0.9945   -3.1711 C.2      1 ZINC000003930598    0.1100
21     N21   -12.0593   -0.4484   -3.3409 N.am     1 ZINC000003930598   -0.4700
22     C22   -12.3788    0.8340   -3.0769 C.2      1 ZINC000003930598    0.7100
23     O23   -12.9066    1.5172   -3.9321 O.2      1 ZINC000003930598   -0.5100
24     N24   -12.1130    1.3588   -1.8643 N.am     1 ZINC000003930598   -0.6100
25     C25   -12.3491    2.7829   -1.6147 C.3      1 ZINC000003930598    0.0900
26     C26   -11.5880    0.5050   -0.7957 C.3      1 ZINC000003930598    0.0700
27     C27   -12.9407   -1.4015   -3.8248 C.ar     1 ZINC000003930598    0.1200
28     C28   -14.2862   -1.3649   -4.1604 C.ar     1 ZINC000003930598   -0.1000
29     C29   -14.9103   -2.5150   -4.6314 C.ar     1 ZINC000003930598   -0.0200
30     C30   -16.3489   -2.4794   -4.9912 C.ar     1 ZINC000003930598   -0.0600
31     C31   -17.0723   -1.2949   -4.8631 C.ar     1 ZINC000003930598   -0.0800
32     C32   -18.4102   -1.2664   -5.1989 C.ar     1 ZINC000003930598   -0.1500
33     C33   -19.0348   -2.4130   -5.6625 C.ar     1 ZINC000003930598    0.1000
34     F34   -20.3451   -2.3806   -5.9901 F        1 ZINC000003930598   -0.1400
35     C35   -18.3196   -3.5926   -5.7914 C.ar     1 ZINC000003930598   -0.1500
36     C36   -16.9798   -3.6288   -5.4638 C.ar     1 ZINC000003930598   -0.0800
37     C37   -14.1888   -3.7037   -4.7678 C.ar     1 ZINC000003930598   -0.1200
38     C38   -12.8637   -3.7473   -4.4389 C.ar     1 ZINC000003930598   -0.0700
39     C39   -12.2248   -2.6009   -3.9714 C.ar     1 ZINC000003930598   -0.0600
40     C40   -10.6318   -4.5281   -1.3942 C.2      1 ZINC000003930598   -0.1100
41     C41   -10.2120   -5.6136   -0.7342 C.2      1 ZINC000003930598   -0.0100
42     N42    -9.0649   -6.1012   -1.3339 N.pl3    1 ZINC000003930598   -0.4700
43     C43    -8.8100   -9.1411    0.4698 C.ar     1 ZINC000003930598    0.1600
44     H44   -10.8695  -10.8464    6.2734 H        1 ZINC000003930598    0.1200
45     H45   -10.8824   -9.2522    5.4819 H        1 ZINC000003930598    0.1100
46     H46   -12.1012  -10.4731    5.0439 H        1 ZINC000003930598    0.1100
47     H47    -8.2732  -10.7390    2.3658 H        1 ZINC000003930598    0.1400
48     H48    -9.4921  -11.9599    1.9278 H        1 ZINC000003930598    0.1500
49     H49   -10.9474  -11.6049    0.1719 H        1 ZINC000003930598    0.2100
50     H50   -11.3376  -10.5246   -2.0067 H        1 ZINC000003930598    0.2000
51     H51   -10.0466   -8.4847   -2.5999 H        1 ZINC000003930598    0.1800
52     H52    -6.6568   -5.1156   -2.9038 H        1 ZINC000003930598    0.1300
53     H53    -7.6957   -5.7078   -4.2428 H        1 ZINC000003930598    0.1400
54     H54    -9.9553   -0.4661   -2.8051 H        1 ZINC000003930598    0.1800
55     H55   -13.3668    2.9242   -1.2508 H        1 ZINC000003930598    0.0700
56     H56   -11.6426    3.1427   -0.8667 H        1 ZINC000003930598    0.0800
57     H57   -12.2135    3.3415   -2.5408 H        1 ZINC000003930598    0.0800
58     H58   -10.5003    0.5727   -0.7779 H        1 ZINC000003930598    0.0700
59     H59   -11.9884    0.8351    0.1628 H        1 ZINC000003930598    0.0800
60     H60   -11.8849   -0.5280   -0.9771 H        1 ZINC000003930598    0.0800
61     H61   -14.8465   -0.4476   -4.0561 H        1 ZINC000003930598    0.1300
62     H62   -16.5864   -0.4009   -4.5012 H        1 ZINC000003930598    0.1400
63     H63   -18.9715   -0.3491   -5.0999 H        1 ZINC000003930598    0.1400
64     H64   -18.8106   -4.4841   -6.1528 H        1 ZINC000003930598    0.1400
65     H65   -16.4231   -4.5487   -5.5647 H        1 ZINC000003930598    0.1400
66     H66   -14.6810   -4.5922   -5.1347 H        1 ZINC000003930598    0.1300
67     H67   -12.3105   -4.6687   -4.5455 H        1 ZINC000003930598    0.1300
68     H68   -11.4976   -3.9248   -1.1645 H        1 ZINC000003930598    0.1600
69     H69   -10.6922   -6.0419    0.1332 H        1 ZINC000003930598    0.1700
70     H70    -8.0960   -8.7653    1.1878 H        1 ZINC000003930598    0.2100
@<TRIPOS>BOND
1     1     2     1
2     1     44    1
3     1     45    1
4     1     46    1
5     2     3     2
6     2     4     1
7     4     5     1
8     5     6     1
9     5     47    1
10    5     48    1
11    6     43    ar
12    6     7     ar
13    7     8     ar
14    7     49    1
15    8     9     ar
16    8     50    1
17    9     10    ar
18    9     51    1
19    10    11    1
20    10    43    ar
21    11    12    1
22    11    42    1
23    11    13    1
24    13    14    1
25    14    15    1
26    14    52    1
27    14    53    1
28    15    42    1
29    15    16    2
30    16    17    1
31    16    40    1
32    17    18    2
33    17    19    1
34    19    39    1
35    19    20    2
36    20    21    1
37    20    54    1
38    21    22    am
39    21    27    1
40    22    23    2
41    22    24    am
42    24    25    1
43    24    26    1
44    25    55    1
45    25    56    1
46    25    57    1
47    26    58    1
48    26    59    1
49    26    60    1
50    27    39    ar
51    27    28    ar
52    28    29    ar
53    28    61    1
54    29    30    1
55    29    37    ar
56    30    36    ar
57    30    31    ar
58    31    32    ar
59    31    62    1
60    32    33    ar
61    32    63    1
62    33    34    1
63    33    35    ar
64    35    36    ar
65    35    64    1
66    36    65    1
67    37    38    ar
68    37    66    1
69    38    39    ar
70    38    67    1
71    40    41    2
72    40    68    1
73    41    42    1
74    41    69    1
75    43    70    1
@<TRIPOS>SUBSTRUCTURE
1   ZINC000003930598 1     RESIDUE    1   A     ZIN   1
