@<TRIPOS>MOLECULE
ZINC000053006885
66    71    1     0     0
SMALL
USER_CHARGES
@<TRIPOS>ATOM
1      C1     -0.0173    1.4248    0.0099 C.3      1 ZINC000053006885    0.0300
2      O2      0.0021   -0.0041    0.0020 O.3      1 ZINC000053006885   -0.3900
3      C3      0.6734   -0.5824    1.1231 C.3      1 ZINC000053006885    0.0600
4      C4      0.6327   -2.1077    1.0107 C.3      1 ZINC000053006885    0.0600
5      O5      1.3824   -2.5212   -0.1334 O.3      1 ZINC000053006885   -0.3100
6      C6      1.4474   -3.8573   -0.3792 C.ar     1 ZINC000053006885    0.1100
7      C7      0.7975   -4.7490    0.4612 C.ar     1 ZINC000053006885   -0.1800
8      C8      0.8626   -6.1059    0.2121 C.ar     1 ZINC000053006885   -0.1000
9      C9      1.5789   -6.5773   -0.8801 C.ar     1 ZINC000053006885    0.0700
10     N10     1.6450   -7.9520   -1.1335 N.3      1 ZINC000053006885   -0.4900
11     C11     2.1724   -8.6773    0.0307 C.3      1 ZINC000053006885    0.0600
12     C12     2.1542  -10.1804   -0.2570 C.3      1 ZINC000053006885    0.0600
13     N13     2.9590  -10.4570   -1.4551 N.3      1 ZINC000053006885   -0.5300
14     C14     3.0283  -11.9001   -1.7211 C.3      1 ZINC000053006885    0.0400
15     C15     4.0657  -12.1680   -2.8133 C.3      1 ZINC000053006885    0.1400
16     N16     4.1349  -13.6072   -3.0786 N.pl3    1 ZINC000053006885   -0.3500
17     N17     4.9752  -14.5216   -2.4314 N.2      1 ZINC000053006885   -0.2600
18     C18     4.7740  -15.7161   -2.9165 C.2      1 ZINC000053006885    0.1300
19     C19     3.7835  -15.6313   -3.9114 C.2      1 ZINC000053006885   -0.2700
20     C20     3.3885  -14.2874   -3.9936 C.2      1 ZINC000053006885    0.3700
21     N21     2.4449  -13.9281   -4.8751 N.2      1 ZINC000053006885   -0.5600
22     C22     1.8684  -14.7920   -5.6741 C.2      1 ZINC000053006885    0.6900
23     N23     0.9084  -14.3439   -6.5511 N.pl3    1 ZINC000053006885   -0.8000
24     N24     2.1849  -16.1195   -5.6692 N.pl3    1 ZINC000053006885   -0.3800
25     N25     1.7334  -17.2268   -6.3985 N.2      1 ZINC000053006885   -0.3000
26     C26     2.4042  -18.2765   -5.9629 C.2      1 ZINC000053006885    0.3500
27     C27     2.2451  -19.6597   -6.4586 C.2      1 ZINC000053006885    0.0400
28     C28     1.3924  -20.0632   -7.4375 C.2      1 ZINC000053006885   -0.1400
29     C29     1.5718  -21.4530   -7.5845 C.2      1 ZINC000053006885   -0.2200
30     C30     2.5153  -21.8253   -6.6974 C.2      1 ZINC000053006885    0.0000
31     O31     2.9239  -20.7385   -6.0230 O.3      1 ZINC000053006885   -0.1500
32     N32     3.2517  -17.8905   -5.0007 N.2      1 ZINC000053006885   -0.5200
33     C33     3.1341  -16.5940   -4.8016 C.2      1 ZINC000053006885    0.4100
34     C34     2.4315   -9.7316   -2.6193 C.3      1 ZINC000053006885    0.0500
35     C35     2.4497   -8.2285   -2.3316 C.3      1 ZINC000053006885    0.0500
36     C36     2.2292   -5.6838   -1.7209 C.ar     1 ZINC000053006885   -0.1300
37     C37     2.1587   -4.3269   -1.4734 C.ar     1 ZINC000053006885   -0.1200
38     H38     1.0053    1.8021    0.0021 H        1 ZINC000053006885    0.0400
39     H39    -0.5445    1.7859   -0.8732 H        1 ZINC000053006885    0.0900
40     H40    -0.5275    1.7763    0.9067 H        1 ZINC000053006885    0.0400
41     H41     1.7103   -0.2468    1.1385 H        1 ZINC000053006885    0.0600
42     H42     0.1775   -0.2725    2.0430 H        1 ZINC000053006885    0.0700
43     H43     1.0656   -2.5499    1.9080 H        1 ZINC000053006885    0.0800
44     H44    -0.4012   -2.4369    0.9060 H        1 ZINC000053006885    0.0700
45     H45     0.2408   -4.3822    1.3109 H        1 ZINC000053006885    0.1300
46     H46     0.3568   -6.8001    0.8668 H        1 ZINC000053006885    0.1300
47     H47     3.1957   -8.3568    0.2258 H        1 ZINC000053006885    0.0500
48     H48     1.5524   -8.4663    0.9021 H        1 ZINC000053006885    0.0900
49     H49     2.5719  -10.7186    0.5939 H        1 ZINC000053006885    0.0900
50     H50     1.1277  -10.5061   -0.4253 H        1 ZINC000053006885    0.0500
51     H51     3.3166  -12.4241   -0.8098 H        1 ZINC000053006885    0.0900
52     H52     2.0525  -12.2559   -2.0517 H        1 ZINC000053006885    0.0400
53     H53     3.7775  -11.6440   -3.7246 H        1 ZINC000053006885    0.1000
54     H54     5.0415  -11.8122   -2.4828 H        1 ZINC000053006885    0.1100
55     H55     5.2820  -16.6173   -2.6065 H        1 ZINC000053006885    0.2000
56     H56     0.6696  -13.4039   -6.5700 H        1 ZINC000053006885    0.4300
57     H57     0.4700  -14.9678   -7.1507 H        1 ZINC000053006885    0.4300
58     H58     0.7092  -19.4392   -7.9945 H        1 ZINC000053006885    0.1600
59     H59     1.0513  -22.0980   -8.2770 H        1 ZINC000053006885    0.1600
60     H60     2.8844  -22.8303   -6.5552 H        1 ZINC000053006885    0.2100
61     H61     3.0515   -9.9426   -3.4907 H        1 ZINC000053006885    0.0900
62     H62     1.4082  -10.0522   -2.8144 H        1 ZINC000053006885    0.0500
63     H63     2.0320   -7.6903   -3.1824 H        1 ZINC000053006885    0.0900
64     H64     3.4763   -7.9029   -2.1633 H        1 ZINC000053006885    0.0600
65     H65     2.7865   -6.0496   -2.5706 H        1 ZINC000053006885    0.1300
66     H66     2.6641   -3.6319   -2.1274 H        1 ZINC000053006885    0.1300
@<TRIPOS>BOND
1     1     2     1
2     1     38    1
3     1     39    1
4     1     40    1
5     2     3     1
6     3     4     1
7     3     41    1
8     3     42    1
9     4     5     1
10    4     43    1
11    4     44    1
12    5     6     1
13    6     37    ar
14    6     7     ar
15    7     8     ar
16    7     45    1
17    8     9     ar
18    8     46    1
19    9     10    1
20    9     36    ar
21    10    35    1
22    10    11    1
23    11    12    1
24    11    47    1
25    11    48    1
26    12    13    1
27    12    49    1
28    12    50    1
29    13    14    1
30    13    34    1
31    14    15    1
32    14    51    1
33    14    52    1
34    15    16    1
35    15    53    1
36    15    54    1
37    16    20    1
38    16    17    1
39    17    18    2
40    18    19    1
41    18    55    1
42    19    33    1
43    19    20    2
44    20    21    1
45    21    22    2
46    22    23    1
47    22    24    1
48    23    56    1
49    23    57    1
50    24    33    1
51    24    25    1
52    25    26    2
53    26    27    1
54    26    32    1
55    27    31    1
56    27    28    2
57    28    29    1
58    28    58    1
59    29    30    2
60    29    59    1
61    30    31    1
62    30    60    1
63    32    33    2
64    34    35    1
65    34    61    1
66    34    62    1
67    35    63    1
68    35    64    1
69    36    37    ar
70    36    65    1
71    37    66    1
@<TRIPOS>SUBSTRUCTURE
1   ZINC000053006885 1     RESIDUE    1   A     ZIN   1
