@<TRIPOS>MOLECULE
ZINC000034962169
62    66    1     0     0
SMALL
USER_CHARGES
@<TRIPOS>ATOM
1      O1      0.0021   -0.0041    0.0020 O.2      1 ZINC000034962169   -0.5100
2      C2     -0.0144    1.2086    0.0087 C.2      1 ZINC000034962169    0.5300
3      C3     -1.3332    1.9332    0.0314 C.3      1 ZINC000034962169   -0.1400
4      C4     -1.2088    3.2108    0.8630 C.3      1 ZINC000034962169   -0.0700
5      C5      0.0203    3.9689    0.4379 C.ar     1 ZINC000034962169   -0.2100
6      C6      0.0307    5.3521    0.4617 C.ar     1 ZINC000034962169   -0.0100
7      C7      1.1832    6.0112    0.0621 C.ar     1 ZINC000034962169   -0.2100
8      C8      2.2810    5.2667   -0.3459 C.ar     1 ZINC000034962169    0.3600
9      O9      3.4133    5.9028   -0.7384 O.3      1 ZINC000034962169   -0.3000
10     C10     4.5097    5.0826   -1.1474 C.3      1 ZINC000034962169    0.0700
11     C11     5.6881    5.9709   -1.5514 C.3      1 ZINC000034962169   -0.1200
12     C12     6.8620    5.0927   -1.9893 C.3      1 ZINC000034962169   -0.1200
13     C13     8.0405    5.9810   -2.3933 C.3      1 ZINC000034962169    0.0600
14     N14     9.1676    5.1378   -2.8137 N.3      1 ZINC000034962169   -0.5400
15     C15     9.3872    4.0394   -1.8624 C.3      1 ZINC000034962169    0.0500
16     C16    10.5148    3.1411   -2.3761 C.3      1 ZINC000034962169    0.0600
17     N17    11.7364    3.9404   -2.5443 N.3      1 ZINC000034962169   -0.5000
18     C18    12.8053    3.1408   -2.9430 C.ar     1 ZINC000034962169    0.1000
19     C19    13.9627    3.0471   -2.1406 C.ar     1 ZINC000034962169   -0.0300
20     C20    14.0683    3.7493   -0.9299 C.ar     1 ZINC000034962169   -0.0800
21     C21    15.1997    3.6351   -0.1810 C.ar     1 ZINC000034962169   -0.1300
22     C22    16.2575    2.8297   -0.5985 C.ar     1 ZINC000034962169   -0.1100
23     C23    16.1901    2.1348   -1.7668 C.ar     1 ZINC000034962169   -0.1100
24     C24    15.0374    2.2279   -2.5661 C.ar     1 ZINC000034962169   -0.0500
25     C25    14.9330    1.5242   -3.7778 C.ar     1 ZINC000034962169   -0.1100
26     C26    13.8045    1.6325   -4.5322 C.ar     1 ZINC000034962169   -0.1100
27     C27    12.7400    2.4294   -4.1223 C.ar     1 ZINC000034962169   -0.1500
28     C28    11.5168    5.0388   -3.4955 C.3      1 ZINC000034962169    0.0600
29     C29    10.3892    5.9372   -2.9819 C.3      1 ZINC000034962169    0.0600
30     N30     2.2377    3.9446   -0.3564 N.ar     1 ZINC000034962169   -0.5700
31     C31     1.1529    3.2820    0.0191 C.ar     1 ZINC000034962169    0.4100
32     N32     1.1463    1.8880    0.0013 N.am     1 ZINC000034962169   -0.6500
33     H33    -1.6226    2.1908   -0.9874 H        1 ZINC000034962169    0.1100
34     H34    -2.0938    1.2876    0.4706 H        1 ZINC000034962169    0.1200
35     H35    -2.0907    3.8323    0.7081 H        1 ZINC000034962169    0.1000
36     H36    -1.1284    2.9508    1.9185 H        1 ZINC000034962169    0.0900
37     H37    -0.8390    5.9056    0.7837 H        1 ZINC000034962169    0.1500
38     H38     1.2259    7.0903    0.0680 H        1 ZINC000034962169    0.1500
39     H39     4.8080    4.4366   -0.3217 H        1 ZINC000034962169    0.0700
40     H40     4.2082    4.4703   -1.9972 H        1 ZINC000034962169    0.0700
41     H41     5.3898    6.6169   -2.3771 H        1 ZINC000034962169    0.0800
42     H42     5.9897    6.5832   -0.7016 H        1 ZINC000034962169    0.0700
43     H43     7.1603    4.4467   -1.1636 H        1 ZINC000034962169    0.0700
44     H44     6.5605    4.4804   -2.8391 H        1 ZINC000034962169    0.0800
45     H45     7.7422    6.6270   -3.2190 H        1 ZINC000034962169    0.0800
46     H46     8.3420    6.5933   -1.5435 H        1 ZINC000034962169    0.0400
47     H47     9.6628    4.4495   -0.8908 H        1 ZINC000034962169    0.0400
48     H48     8.4724    3.4548   -1.7645 H        1 ZINC000034962169    0.0900
49     H49    10.6990    2.3421   -1.6579 H        1 ZINC000034962169    0.0800
50     H50    10.2277    2.7095   -3.3350 H        1 ZINC000034962169    0.0500
51     H51    13.2564    4.3775   -0.5943 H        1 ZINC000034962169    0.1300
52     H52    15.2785    4.1768    0.7500 H        1 ZINC000034962169    0.1200
53     H53    17.1440    2.7562    0.0139 H        1 ZINC000034962169    0.1200
54     H54    17.0179    1.5151   -2.0782 H        1 ZINC000034962169    0.1300
55     H55    15.7475    0.8980   -4.1109 H        1 ZINC000034962169    0.1300
56     H56    13.7330    1.0880   -5.4621 H        1 ZINC000034962169    0.1200
57     H57    11.8561    2.4981   -4.7390 H        1 ZINC000034962169    0.1200
58     H58    12.4316    5.6234   -3.5934 H        1 ZINC000034962169    0.0800
59     H59    11.2411    4.6288   -4.4671 H        1 ZINC000034962169    0.0500
60     H60    10.2050    6.7362   -3.7001 H        1 ZINC000034962169    0.0800
61     H61    10.6763    6.3688   -2.0230 H        1 ZINC000034962169    0.0500
62     H62     1.9865    1.4037   -0.0205 H        1 ZINC000034962169    0.4200
@<TRIPOS>BOND
1     1     2     2
2     2     32    am
3     2     3     1
4     3     4     1
5     3     33    1
6     3     34    1
7     4     5     1
8     4     35    1
9     4     36    1
10    5     31    ar
11    5     6     ar
12    6     7     ar
13    6     37    1
14    7     8     ar
15    7     38    1
16    8     9     1
17    8     30    ar
18    9     10    1
19    10    11    1
20    10    39    1
21    10    40    1
22    11    12    1
23    11    41    1
24    11    42    1
25    12    13    1
26    12    43    1
27    12    44    1
28    13    14    1
29    13    45    1
30    13    46    1
31    14    29    1
32    14    15    1
33    15    16    1
34    15    47    1
35    15    48    1
36    16    17    1
37    16    49    1
38    16    50    1
39    17    18    1
40    17    28    1
41    18    27    ar
42    18    19    ar
43    19    24    ar
44    19    20    ar
45    20    21    ar
46    20    51    1
47    21    22    ar
48    21    52    1
49    22    23    ar
50    22    53    1
51    23    24    ar
52    23    54    1
53    24    25    ar
54    25    26    ar
55    25    55    1
56    26    27    ar
57    26    56    1
58    27    57    1
59    28    29    1
60    28    58    1
61    28    59    1
62    29    60    1
63    29    61    1
64    30    31    ar
65    31    32    1
66    32    62    1
@<TRIPOS>SUBSTRUCTURE
1   ZINC000034962169 1     RESIDUE    1   A     ZIN   1
