@<TRIPOS>MOLECULE
ZINC000003780500
47    50    1     0     0
SMALL
USER_CHARGES
@<TRIPOS>ATOM
1      O1      0.0021   -0.0041    0.0020 O.2      1 ZINC000003780500   -0.4700
2      C2     -0.0144    1.2081    0.0087 C.2      1 ZINC000003780500    0.5200
3      C3     -1.2595    2.0676    0.0318 C.3      1 ZINC000003780500   -0.1600
4      C4     -0.7052    3.5069    0.0317 C.3      1 ZINC000003780500   -0.1600
5      C5      0.7948    3.3092    0.0086 C.2      1 ZINC000003780500    0.5200
6      O6      1.6200    4.1973    0.0018 O.2      1 ZINC000003780500   -0.4800
7      N7      1.0663    1.9983    0.0026 N.am     1 ZINC000003780500   -0.5700
8      C8      2.4333    1.4719   -0.0190 C.3      1 ZINC000003780500    0.1100
9      C9      2.9311    1.2866    1.4158 C.3      1 ZINC000003780500   -0.1000
10     H10     2.8368    2.2269    1.9589 H        1 ZINC000003780500    0.0800
11     C11     2.0973    0.2067    2.1122 C.3      1 ZINC000003780500   -0.1100
12     C12     2.2758   -1.1159    1.3639 C.3      1 ZINC000003780500   -0.1100
13     C13     3.7604   -1.4916    1.3308 C.3      1 ZINC000003780500    0.0900
14     H14     4.1233   -1.6318    2.3490 H        1 ZINC000003780500    0.0500
15     C15     3.9159   -2.7984    0.5477 C.3      1 ZINC000003780500    0.0800
16     N16     5.3377   -3.1517    0.4487 N.3      1 ZINC000003780500   -0.4600
17     C17     5.5033   -4.3672   -0.1922 C.ar     1 ZINC000003780500    0.4900
18     N18     4.4348   -5.0243   -0.6187 N.ar     1 ZINC000003780500   -0.5500
19     C19     4.5582   -6.1880   -1.2353 C.ar     1 ZINC000003780500    0.1700
20     C20     5.8237   -6.7177   -1.4328 C.ar     1 ZINC000003780500   -0.2600
21     C21     6.9197   -6.0040   -0.9741 C.ar     1 ZINC000003780500    0.1700
22     N22     6.7269   -4.8433   -0.3696 N.ar     1 ZINC000003780500   -0.5300
23     C23     6.0865   -2.0881   -0.2368 C.3      1 ZINC000003780500    0.0700
24     C24     5.9491   -0.7890    0.5582 C.3      1 ZINC000003780500    0.0600
25     N25     4.5289   -0.4238    0.6789 N.3      1 ZINC000003780500   -0.5300
26     C26     4.3970    0.8516    1.3966 C.3      1 ZINC000003780500    0.0600
27     H27    -1.8650    1.8897   -0.8569 H        1 ZINC000003780500    0.1200
28     H28    -1.8387    1.8796    0.9358 H        1 ZINC000003780500    0.1200
29     H29    -1.0350    4.0449   -0.8570 H        1 ZINC000003780500    0.1200
30     H30    -1.0087    4.0348    0.9357 H        1 ZINC000003780500    0.1200
31     H31     2.4447    0.5115   -0.5344 H        1 ZINC000003780500    0.1100
32     H32     3.0842    2.1726   -0.5418 H        1 ZINC000003780500    0.0900
33     H33     2.4352    0.0921    3.1422 H        1 ZINC000003780500    0.0600
34     H34     1.0457    0.4935    2.1009 H        1 ZINC000003780500    0.0600
35     H35     1.7145   -1.8994    1.8729 H        1 ZINC000003780500    0.0700
36     H36     1.9057   -1.0088    0.3443 H        1 ZINC000003780500    0.0900
37     H37     3.3793   -3.5955    1.0624 H        1 ZINC000003780500    0.0900
38     H38     3.5032   -2.6725   -0.4533 H        1 ZINC000003780500    0.0600
39     H39     3.6834   -6.7192   -1.5803 H        1 ZINC000003780500    0.1700
40     H40     5.9529   -7.6662   -1.9330 H        1 ZINC000003780500    0.1500
41     H41     7.9193   -6.3891   -1.1119 H        1 ZINC000003780500    0.1700
42     H42     7.1384   -2.3665   -0.3016 H        1 ZINC000003780500    0.1000
43     H43     5.6831   -1.9464   -1.2394 H        1 ZINC000003780500    0.0500
44     H44     6.3714   -0.9268    1.5536 H        1 ZINC000003780500    0.0500
45     H45     6.4862    0.0086    0.0449 H        1 ZINC000003780500    0.0900
46     H46     4.9940    1.6130    0.8947 H        1 ZINC000003780500    0.0800
47     H47     4.7532    0.7300    2.4195 H        1 ZINC000003780500    0.0400
@<TRIPOS>BOND
1     1     2     2
2     2     7     am
3     2     3     1
4     3     4     1
5     3     27    1
6     3     28    1
7     4     5     1
8     4     29    1
9     4     30    1
10    5     6     2
11    5     7     am
12    7     8     1
13    8     9     1
14    8     31    1
15    8     32    1
16    9     10    1
17    9     26    1
18    9     11    1
19    11    12    1
20    11    33    1
21    11    34    1
22    12    13    1
23    12    35    1
24    12    36    1
25    13    14    1
26    13    25    1
27    13    15    1
28    15    16    1
29    15    37    1
30    15    38    1
31    16    17    1
32    16    23    1
33    17    22    ar
34    17    18    ar
35    18    19    ar
36    19    20    ar
37    19    39    1
38    20    21    ar
39    20    40    1
40    21    22    ar
41    21    41    1
42    23    24    1
43    23    42    1
44    23    43    1
45    24    25    1
46    24    44    1
47    24    45    1
48    25    26    1
49    26    46    1
50    26    47    1
@<TRIPOS>SUBSTRUCTURE
1   ZINC000003780500 1     RESIDUE    1   A     ZIN   1
