@<TRIPOS>MOLECULE
ZINC000043206499
39    41    1     0     0
SMALL
USER_CHARGES
@<TRIPOS>ATOM
1      O1     -0.0735    0.3494   -0.0403 O.2      1 ZINC000043206499   -0.5100
2      C2     -0.2394    1.5444    0.1204 C.2      1 ZINC000043206499    0.5900
3      N3      0.8227    2.3733    0.1565 N.am     1 ZINC000043206499   -0.5900
4      O4      2.1354    1.8446    0.1082 O.3      1 ZINC000043206499   -0.1300
5      C5      3.1635    2.8361    0.1545 C.3      1 ZINC000043206499    0.0300
6      C6      4.5321    2.1547    0.0963 C.3      1 ZINC000043206499    0.0800
7      O7      4.6884    1.5068   -1.1678 O.3      1 ZINC000043206499   -0.5700
8      C8     -1.5961    2.0834    0.2689 C.2      1 ZINC000043206499   -0.1700
9      C9     -2.6889    1.2270    0.3269 C.2      1 ZINC000043206499    0.4100
10     N10    -2.5011   -0.1297    0.2450 N.pl3    1 ZINC000043206499   -0.6600
11     C11    -3.0917   -0.8564   -0.7948 C.ar     1 ZINC000043206499    0.1800
12     C12    -3.7531   -0.1928   -1.8189 C.ar     1 ZINC000043206499   -0.1500
13     C13    -4.3355   -0.9128   -2.8444 C.ar     1 ZINC000043206499   -0.0400
14     C14    -4.2609   -2.2937   -2.8520 C.ar     1 ZINC000043206499   -0.1100
15     I15    -5.1460   -3.3796   -4.4098 I        1 ZINC000043206499   -0.0200
16     C16    -3.6027   -2.9598   -1.8333 C.ar     1 ZINC000043206499   -0.0800
17     C17    -3.0124   -2.2453   -0.8074 C.ar     1 ZINC000043206499    0.0600
18     F18    -2.3696   -2.8954    0.1872 F        1 ZINC000043206499   -0.1300
19     N19    -3.9530    1.7348    0.4660 N.pl3    1 ZINC000043206499   -0.3900
20     C20    -5.1765    1.1434    0.5485 C.2      1 ZINC000043206499    0.1700
21     N21    -6.0915    2.0675    0.6759 N.2      1 ZINC000043206499   -0.4400
22     C22    -5.5208    3.2750    0.6823 C.2      1 ZINC000043206499    0.0000
23     C23    -4.1600    3.0967    0.5502 C.2      1 ZINC000043206499    0.0100
24     C24    -3.0744    4.0002    0.4953 C.2      1 ZINC000043206499   -0.0700
25     C25    -1.8113    3.5290    0.3637 C.2      1 ZINC000043206499   -0.1000
26     H26     0.6879    3.3320    0.2156 H        1 ZINC000043206499    0.4100
27     H27     3.0567    3.5100   -0.6955 H        1 ZINC000043206499    0.0700
28     H28     3.0793    3.4038    1.0811 H        1 ZINC000043206499    0.0800
29     H29     5.3157    2.9022    0.2208 H        1 ZINC000043206499    0.0700
30     H30     4.6045    1.4161    0.8946 H        1 ZINC000043206499    0.0600
31     H31     5.5354    1.0528   -1.2750 H        1 ZINC000043206499    0.3900
32     H32    -1.9588   -0.5851    0.9080 H        1 ZINC000043206499    0.4300
33     H33    -3.8128    0.8855   -1.8140 H        1 ZINC000043206499    0.1300
34     H34    -4.8501   -0.3963   -3.6412 H        1 ZINC000043206499    0.1400
35     H35    -3.5461   -4.0383   -1.8420 H        1 ZINC000043206499    0.1500
36     H36    -5.3615    0.0799    0.5138 H        1 ZINC000043206499    0.2100
37     H37    -6.0333    4.2213    0.7737 H        1 ZINC000043206499    0.1900
38     H38    -3.2512    5.0636    0.5621 H        1 ZINC000043206499    0.1600
39     H39    -0.9747    4.2107    0.3210 H        1 ZINC000043206499    0.1400
@<TRIPOS>BOND
1     1     2     2
2     2     3     am
3     2     8     1
4     3     4     1
5     3     26    1
6     4     5     1
7     5     6     1
8     5     27    1
9     5     28    1
10    6     7     1
11    6     29    1
12    6     30    1
13    7     31    1
14    8     25    1
15    8     9     2
16    9     10    1
17    9     19    1
18    10    11    1
19    10    32    1
20    11    17    ar
21    11    12    ar
22    12    13    ar
23    12    33    1
24    13    14    ar
25    13    34    1
26    14    15    1
27    14    16    ar
28    16    17    ar
29    16    35    1
30    17    18    1
31    19    23    1
32    19    20    1
33    20    21    2
34    20    36    1
35    21    22    1
36    22    23    2
37    22    37    1
38    23    24    1
39    24    25    2
40    24    38    1
41    25    39    1
@<TRIPOS>SUBSTRUCTURE
1   ZINC000043206499 1     RESIDUE    1   A     ZIN   1
