@<TRIPOS>MOLECULE
ZINC000014210886
61    64    1     0     0
SMALL
USER_CHARGES
@<TRIPOS>ATOM
1      C1      0.3971    1.2384   -2.4073 C.3      1 ZINC000014210886    0.0200
2      O2      0.3631   -0.1343   -2.0118 O.3      1 ZINC000014210886   -0.2800
3      C3     -0.8621   -0.6881   -1.8088 C.ar     1 ZINC000014210886    0.0900
4      C4     -0.9847   -2.0245   -1.4144 C.ar     1 ZINC000014210886   -0.0100
5      C5     -0.0424   -3.1176   -1.1276 C.2      1 ZINC000014210886   -0.2800
6      C6      1.4172   -3.0596   -1.1934 C.2      1 ZINC000014210886    0.4200
7      O7      1.9706   -2.0257   -1.5133 O.2      1 ZINC000014210886   -0.4200
8      C8      2.2271   -4.2693   -0.8682 C.2      1 ZINC000014210886    0.4900
9      O9      1.6795   -5.3401   -0.7039 O.2      1 ZINC000014210886   -0.5000
10     N10     3.5668   -4.1733   -0.7566 N.am     1 ZINC000014210886   -0.5900
11     C11     4.2271   -2.8605   -0.7790 C.3      1 ZINC000014210886    0.0600
12     C12     5.0797   -2.7191    0.4879 C.3      1 ZINC000014210886    0.0800
13     N13     5.9064   -3.9253    0.6347 N.am     1 ZINC000014210886   -0.6100
14     C14     7.2460   -3.8293    0.7472 C.2      1 ZINC000014210886    0.5600
15     O15     7.9290   -4.8348    0.7540 O.2      1 ZINC000014210886   -0.5300
16     C16     7.8849   -2.5009    0.8622 C.ar     1 ZINC000014210886   -0.1300
17     C17     7.2563   -1.4805    1.5776 C.ar     1 ZINC000014210886   -0.0900
18     C18     7.8581   -0.2434    1.6815 C.ar     1 ZINC000014210886   -0.1300
19     C19     9.0817   -0.0130    1.0781 C.ar     1 ZINC000014210886   -0.1000
20     C20     9.7098   -1.0201    0.3671 C.ar     1 ZINC000014210886   -0.1300
21     C21     9.1219   -2.2636    0.2608 C.ar     1 ZINC000014210886   -0.0600
22     C22     5.2461   -5.2381    0.6572 C.3      1 ZINC000014210886    0.1000
23     C23     4.3930   -5.3791   -0.6042 C.3      1 ZINC000014210886    0.0900
24     C24    -0.8167   -4.2115   -0.7823 C.2      1 ZINC000014210886    0.2000
25     N25    -2.1177   -3.8767   -0.8359 N.pl3    1 ZINC000014210886   -0.4300
26     C26    -3.2248   -4.7868   -0.5326 C.3      1 ZINC000014210886    0.3600
27     O27    -2.7036   -6.0689   -0.1765 O.3      1 ZINC000014210886   -0.7700
28     P28    -3.6402   -7.3170    0.2196 P.3      1 ZINC000014210886    2.2200
29     O29    -4.6580   -7.5771   -0.9133 O.2      1 ZINC000014210886   -1.1000
30     O30    -4.3968   -6.9983    1.5285 O.3      1 ZINC000014210886   -1.0900
31     O31    -2.7278   -8.6264    0.4324 O.3      1 ZINC000014210886   -0.8900
32     C32    -2.2677   -2.5584   -1.2153 C.ar     1 ZINC000014210886    0.0500
33     C33    -3.3721   -1.7304   -1.4194 C.ar     1 ZINC000014210886    0.3200
34     O34    -4.6251   -2.2197   -1.2338 O.3      1 ZINC000014210886   -0.3100
35     C35    -5.7126   -1.3206   -1.4592 C.3      1 ZINC000014210886    0.0400
36     N36    -3.2073   -0.4740   -1.7913 N.ar     1 ZINC000014210886   -0.5000
37     C37    -2.0115    0.0598   -1.9823 C.ar     1 ZINC000014210886    0.0100
38     H38     1.4325    1.5542   -2.5352 H        1 ZINC000014210886    0.1000
39     H39    -0.1383    1.3586   -3.3491 H        1 ZINC000014210886    0.0500
40     H40    -0.0770    1.8497   -1.6393 H        1 ZINC000014210886    0.0500
41     H41     4.8653   -2.7870   -1.6596 H        1 ZINC000014210886    0.0700
42     H42     3.4742   -2.0727   -0.8031 H        1 ZINC000014210886    0.1500
43     H43     5.7228   -1.8433    0.4003 H        1 ZINC000014210886    0.1100
44     H44     4.4297   -2.6132    1.3565 H        1 ZINC000014210886    0.0800
45     H45     6.3009   -1.6588    2.0484 H        1 ZINC000014210886    0.1300
46     H46     7.3728    0.5471    2.2347 H        1 ZINC000014210886    0.1300
47     H47     9.5483    0.9573    1.1622 H        1 ZINC000014210886    0.1300
48     H48    10.6647   -0.8337   -0.1018 H        1 ZINC000014210886    0.1300
49     H49     9.6134   -3.0490   -0.2942 H        1 ZINC000014210886    0.1300
50     H50     5.9990   -6.0259    0.6812 H        1 ZINC000014210886    0.1100
51     H51     4.6079   -5.3115    1.5377 H        1 ZINC000014210886    0.0800
52     H52     3.7505   -6.2552   -0.5152 H        1 ZINC000014210886    0.1100
53     H53     5.0410   -5.4845   -1.4743 H        1 ZINC000014210886    0.0800
54     H54    -0.4346   -5.1848   -0.5120 H        1 ZINC000014210886    0.2100
55     H55    -3.8063   -4.3874    0.2984 H        1 ZINC000014210886    0.0900
56     H56    -3.8647   -4.8856   -1.4094 H        1 ZINC000014210886    0.1000
57     H57    -3.2270   -9.4187    0.6736 H        1 ZINC000014210886    0.4200
58     H58    -6.6549   -1.8370   -1.2762 H        1 ZINC000014210886    0.1000
59     H59    -5.6272   -0.4701   -0.7827 H        1 ZINC000014210886    0.0600
60     H60    -5.6854   -0.9687   -2.4905 H        1 ZINC000014210886    0.0600
61     H61    -1.9328    1.0931   -2.2862 H        1 ZINC000014210886    0.1600
@<TRIPOS>BOND
1     1     2     1
2     1     38    1
3     1     39    1
4     1     40    1
5     2     3     1
6     3     37    ar
7     3     4     ar
8     4     32    ar
9     4     5     1
10    5     6     1
11    5     24    2
12    6     7     2
13    6     8     1
14    8     9     2
15    8     10    am
16    10    23    1
17    10    11    1
18    11    12    1
19    11    41    1
20    11    42    1
21    12    13    1
22    12    43    1
23    12    44    1
24    13    14    am
25    13    22    1
26    14    15    2
27    14    16    1
28    16    21    ar
29    16    17    ar
30    17    18    ar
31    17    45    1
32    18    19    ar
33    18    46    1
34    19    20    ar
35    19    47    1
36    20    21    ar
37    20    48    1
38    21    49    1
39    22    23    1
40    22    50    1
41    22    51    1
42    23    52    1
43    23    53    1
44    24    25    1
45    24    54    1
46    25    26    1
47    25    32    1
48    26    27    1
49    26    55    1
50    26    56    1
51    27    28    1
52    28    29    2
53    28    30    1
54    28    31    1
55    31    57    1
56    32    33    ar
57    33    34    1
58    33    36    ar
59    34    35    1
60    35    58    1
61    35    59    1
62    35    60    1
63    36    37    ar
64    37    61    1
@<TRIPOS>SUBSTRUCTURE
1   ZINC000014210886 1     RESIDUE    1   A     ZIN   1
