@<TRIPOS>MOLECULE
ZINC000001530690
  57   59    0    0    0
SMALL
USER_CHARGES
NO_NAME
@<TRIPOS>ATOM
    1 C1       -0.9241    -1.4142     0.5015 C.3    1 <0>      -0.1500
    2 C2       -0.2101    -0.1048     0.1603 C.3    1 <0>      -0.0900
    3 C3        0.6591    -0.3081    -1.0538 C.2    1 <0>      -0.0600
    4 C4        1.9645    -0.6423    -0.9047 C.2    1 <0>      -0.0400
    5 C5        2.7826    -0.9781    -2.0913 C.ar   1 <0>      -0.0300
    6 C6        2.4809    -2.1074    -2.8535 C.ar   1 <0>      -0.1000
    7 C7        3.2472    -2.4146    -3.9589 C.ar   1 <0>      -0.1200
    8 C8        4.3127    -1.6058    -4.3122 C.ar   1 <0>      -0.1200
    9 C9        4.6173    -0.4850    -3.5603 C.ar   1 <0>      -0.1200
   10 C10       3.8553    -0.1635    -2.4560 C.ar   1 <0>      -0.1000
   11 C11       2.5711    -0.6713     0.4443 C.ar   1 <0>      -0.0800
   12 C12       2.6962     0.5079     1.1808 C.ar   1 <0>      -0.0700
   13 C13       3.2616     0.4768     2.4375 C.ar   1 <0>      -0.1500
   14 C14       3.7065    -0.7257     2.9712 C.ar   1 <0>       0.1400
   15 O15       4.2628    -0.7525     4.2103 O.3    1 <0>      -0.3000
   16 C16       4.6990    -2.0228     4.6983 C.3    1 <0>       0.0700
   17 C17       5.2932    -1.8547     6.0982 C.3    1 <0>       0.0500
   18 N18       4.2475    -1.3957     7.0222 N.3    1 <0>      -0.5400
   19 C19       3.3577    -2.5014     7.4013 C.3    1 <0>       0.0200
   20 C20       4.8355    -0.7622     8.2099 C.3    1 <0>       0.0200
   21 C21       3.5838    -1.9010     2.2415 C.ar   1 <0>      -0.2100
   22 C22       3.0147    -1.8789     0.9863 C.ar   1 <0>      -0.0600
   23 C23       0.0913    -0.1441    -2.4004 C.ar   1 <0>      -0.0400
   24 C24       0.5484     0.8803    -3.2362 C.ar   1 <0>      -0.1000
   25 C25       0.0112     1.0271    -4.4976 C.ar   1 <0>      -0.1200
   26 C26      -0.9779     0.1646    -4.9373 C.ar   1 <0>      -0.1200
   27 C27      -1.4359    -0.8512    -4.1162 C.ar   1 <0>      -0.1200
   28 C28      -0.9046    -1.0152    -2.8545 C.ar   1 <0>      -0.1100
   29 H29      -1.6302    -1.6604    -0.2915 H      1 <0>       0.0600
   30 H30      -0.1900    -2.2145     0.5957 H      1 <0>       0.0600
   31 H31      -1.4607    -1.3007     1.4435 H      1 <0>       0.0600
   32 H32      -0.9495     0.6687    -0.0476 H      1 <0>       0.0700
   33 H33       0.4092     0.2018     1.0033 H      1 <0>       0.0800
   34 H34       1.6497    -2.7397    -2.5785 H      1 <0>       0.1200
   35 H35       3.0150    -3.2885    -4.5494 H      1 <0>       0.1200
   36 H36       4.9095    -1.8507    -5.1784 H      1 <0>       0.1200
   37 H37       5.4505     0.1421    -3.8411 H      1 <0>       0.1200
   38 H38       4.0940     0.7116    -1.8699 H      1 <0>       0.1200
   39 H39       2.3508     1.4435     0.7663 H      1 <0>       0.1300
   40 H40       3.3590     1.3888     3.0078 H      1 <0>       0.1300
   41 H41       3.8506    -2.7056     4.7434 H      1 <0>       0.0600
   42 H42       5.4569    -2.4286     4.0283 H      1 <0>       0.0700
   43 H43       5.6883    -2.8105     6.4424 H      1 <0>       0.0600
   44 H44       6.0974    -1.1196     6.0656 H      1 <0>       0.0900
   45 H45       3.9382    -3.2833     7.8910 H      1 <0>       0.0300
   46 H46       2.5930    -2.1341     8.0856 H      1 <0>       0.0700
   47 H47       2.8818    -2.9073     6.5086 H      1 <0>       0.0700
   48 H48       5.3674     0.1420     7.9137 H      1 <0>       0.0700
   49 H49       4.0439    -0.5041     8.9135 H      1 <0>       0.0700
   50 H50       5.5314    -1.4543     8.6839 H      1 <0>       0.0300
   51 H51       3.9309    -2.8342     2.6599 H      1 <0>       0.1300
   52 H52       2.9196    -2.7932     0.4195 H      1 <0>       0.1200
   53 H53       1.3196     1.5546    -2.8943 H      1 <0>       0.1200
   54 H54       0.3630     1.8175    -5.1441 H      1 <0>       0.1200
   55 H55      -1.3949     0.2851    -5.9262 H      1 <0>       0.1200
   56 H56      -2.2082    -1.5199    -4.4665 H      1 <0>       0.1200
   57 H57      -1.2627    -1.8086    -2.2152 H      1 <0>       0.1200
@<TRIPOS>BOND
   1    1    2 1
   2    1   29 1
   3    1   30 1
   4    1   31 1
   5    2    3 1
   6    2   32 1
   7    2   33 1
   8    3    4 2
   9    3   23 1
  10    4    5 1
  11    4   11 1
  12    5   10 ar
  13    5    6 ar
  14    6    7 ar
  15    6   34 1
  16    7    8 ar
  17    7   35 1
  18    8    9 ar
  19    8   36 1
  20    9   10 ar
  21    9   37 1
  22   10   38 1
  23   11   22 ar
  24   11   12 ar
  25   12   13 ar
  26   12   39 1
  27   13   14 ar
  28   13   40 1
  29   14   15 1
  30   14   21 ar
  31   15   16 1
  32   16   17 1
  33   16   41 1
  34   16   42 1
  35   17   18 1
  36   17   43 1
  37   17   44 1
  38   18   19 1
  39   18   20 1
  40   19   45 1
  41   19   46 1
  42   19   47 1
  43   20   48 1
  44   20   49 1
  45   20   50 1
  46   21   22 ar
  47   21   51 1
  48   22   52 1
  49   23   28 ar
  50   23   24 ar
  51   24   25 ar
  52   24   53 1
  53   25   26 ar
  54   25   54 1
  55   26   27 ar
  56   26   55 1
  57   27   28 ar
  58   27   56 1
  59   28   57 1
