@<TRIPOS>MOLECULE
ZINC000001536124
64    68    1     0     0
SMALL
USER_CHARGES
@<TRIPOS>ATOM
1      C1      0.0013    1.2002    0.7502 C.3      1 ZINC000001536124   -0.1500
2      C2      0.0455   -0.3229    0.6120 C.3      1 ZINC000001536124   -0.1200
3      C3      0.7111   -0.6956   -0.7142 C.3      1 ZINC000001536124    0.0600
4      O4      0.7523   -2.1182   -0.8433 O.3      1 ZINC000001536124   -0.3200
5      C5      1.3166   -2.6191   -1.9736 C.ar     1 ZINC000001536124    0.1200
6      C6      1.8255   -1.7600   -2.9364 C.ar     1 ZINC000001536124   -0.2200
7      C7      2.3976   -2.2735   -4.0830 C.ar     1 ZINC000001536124   -0.0700
8      C8      2.4658   -3.6433   -4.2765 C.ar     1 ZINC000001536124   -0.0900
9      C9      1.9592   -4.5019   -3.3179 C.ar     1 ZINC000001536124    0.0000
10     C10     1.3902   -3.9902   -2.1650 C.ar     1 ZINC000001536124   -0.1400
11     C11     2.1536   -5.9360   -3.7617 C.3      1 ZINC000001536124    0.0200
12     H12     2.5128   -6.5436   -2.9311 H        1 ZINC000001536124    0.0900
13     C13     0.8620   -6.4969   -4.2985 C.ar     1 ZINC000001536124   -0.1300
14     C14    -0.3244   -5.8211   -4.0878 C.ar     1 ZINC000001536124   -0.0500
15     C15    -1.5104   -6.3327   -4.5792 C.ar     1 ZINC000001536124   -0.2600
16     C16    -1.5123   -7.5269   -5.2857 C.ar     1 ZINC000001536124    0.1500
17     O17    -2.6788   -8.0292   -5.7690 O.3      1 ZINC000001536124   -0.3200
18     C18    -3.8654   -7.2753   -5.5127 C.3      1 ZINC000001536124    0.0300
19     C19    -0.3229   -8.2071   -5.4984 C.ar     1 ZINC000001536124   -0.2500
20     C20     0.8661   -7.6892   -5.0091 C.ar     1 ZINC000001536124    0.1800
21     O21     2.0334   -8.3535   -5.2160 O.3      1 ZINC000001536124   -0.2500
22     C22     1.9613   -9.5799   -5.9460 C.3      1 ZINC000001536124   -0.0100
23     C23     3.3422  -10.1692   -6.0756 C.2      1 ZINC000001536124    0.4900
24     O24     4.2994   -9.5925   -5.5880 O.co2    1 ZINC000001536124   -0.6200
25     O25     3.5023  -11.2228   -6.6681 O.co2    1 ZINC000001536124   -0.7100
26     C26     3.2174   -5.8727   -4.8782 C.3      1 ZINC000001536124   -0.1300
27     H27     3.0133   -6.6145   -5.6503 H        1 ZINC000001536124    0.1000
28     C28     4.6010   -6.0600   -4.3110 C.2      1 ZINC000001536124    0.5000
29     O29     5.4206   -6.7326   -4.9129 O.co2    1 ZINC000001536124   -0.6600
30     O30     4.9007   -5.5389   -3.2503 O.co2    1 ZINC000001536124   -0.7100
31     C31     3.0347   -4.4427   -5.4293 C.3      1 ZINC000001536124    0.0100
32     H32     3.9956   -4.0306   -5.7376 H        1 ZINC000001536124    0.0900
33     C33     2.0728   -4.4483   -6.5894 C.ar     1 ZINC000001536124   -0.0300
34     C34     0.7291   -4.2087   -6.3722 C.ar     1 ZINC000001536124   -0.0900
35     C35    -0.1574   -4.2128   -7.4334 C.ar     1 ZINC000001536124   -0.1000
36     C36     0.2998   -4.4578   -8.7176 C.ar     1 ZINC000001536124    0.0100
37     O37    -0.3530   -4.5179   -9.9149 O.3      1 ZINC000001536124   -0.3200
38     C38     0.6721   -4.3933  -10.9184 C.3      1 ZINC000001536124    0.2100
39     O39     1.8494   -4.9107  -10.2709 O.3      1 ZINC000001536124   -0.3100
40     C40     1.6542   -4.6994   -8.9365 C.ar     1 ZINC000001536124    0.0300
41     C41     2.5374   -4.6877   -7.8697 C.ar     1 ZINC000001536124   -0.0900
42     H42     1.0165    1.5965    0.7293 H        1 ZINC000001536124    0.0600
43     H43    -0.5710    1.6235   -0.0752 H        1 ZINC000001536124    0.0600
44     H44    -0.4729    1.4657    1.6951 H        1 ZINC000001536124    0.0600
45     H45     0.6178   -0.7462    1.4374 H        1 ZINC000001536124    0.0700
46     H46    -0.9697   -0.7192    0.6330 H        1 ZINC000001536124    0.0700
47     H47     0.1388   -0.2723   -1.5396 H        1 ZINC000001536124    0.0600
48     H48     1.7263   -0.2993   -0.7352 H        1 ZINC000001536124    0.0600
49     H49     1.7739   -0.6913   -2.7894 H        1 ZINC000001536124    0.1200
50     H50     2.7933   -1.6043   -4.8326 H        1 ZINC000001536124    0.1200
51     H51     0.9948   -4.6605   -1.4162 H        1 ZINC000001536124    0.1200
52     H52    -0.3250   -4.8916   -3.5379 H        1 ZINC000001536124    0.1300
53     H53    -2.4366   -5.8027   -4.4129 H        1 ZINC000001536124    0.1200
54     H54    -4.0107   -7.1811   -4.4366 H        1 ZINC000001536124    0.0500
55     H55    -3.7683   -6.2836   -5.9545 H        1 ZINC000001536124    0.0500
56     H56    -4.7224   -7.7862   -5.9517 H        1 ZINC000001536124    0.0900
57     H57    -0.3224   -9.1369   -6.0478 H        1 ZINC000001536124    0.1300
58     H58     1.3155  -10.2804   -5.4166 H        1 ZINC000001536124    0.0500
59     H59     1.5534   -9.3885   -6.9385 H        1 ZINC000001536124    0.0500
60     H60     0.3707   -4.0182   -5.3714 H        1 ZINC000001536124    0.1400
61     H61    -1.2069   -4.0251   -7.2607 H        1 ZINC000001536124    0.1200
62     H62     0.4237   -4.9905  -11.7957 H        1 ZINC000001536124    0.1200
63     H63     0.8141   -3.3481  -11.1930 H        1 ZINC000001536124    0.0700
64     H64     3.5888   -4.8687   -8.0373 H        1 ZINC000001536124    0.1400
@<TRIPOS>BOND
1     1     2     1
2     1     42    1
3     1     43    1
4     1     44    1
5     2     3     1
6     2     45    1
7     2     46    1
8     3     4     1
9     3     47    1
10    3     48    1
11    4     5     1
12    5     10    ar
13    5     6     ar
14    6     7     ar
15    6     49    1
16    7     8     ar
17    7     50    1
18    8     31    1
19    8     9     ar
20    9     10    ar
21    9     11    1
22    10    51    1
23    11    12    1
24    11    13    1
25    11    26    1
26    13    20    ar
27    13    14    ar
28    14    15    ar
29    14    52    1
30    15    16    ar
31    15    53    1
32    16    17    1
33    16    19    ar
34    17    18    1
35    18    54    1
36    18    55    1
37    18    56    1
38    19    20    ar
39    19    57    1
40    20    21    1
41    21    22    1
42    22    23    1
43    22    58    1
44    22    59    1
45    23    24    ar
46    23    25    ar
47    26    27    1
48    26    28    1
49    26    31    1
50    28    29    ar
51    28    30    ar
52    31    32    1
53    31    33    1
54    33    41    ar
55    33    34    ar
56    34    35    ar
57    34    60    1
58    35    36    ar
59    35    61    1
60    36    40    ar
61    36    37    1
62    37    38    1
63    38    39    1
64    38    62    1
65    38    63    1
66    39    40    1
67    40    41    ar
68    41    64    1
@<TRIPOS>SUBSTRUCTURE
1   ZINC000001536124 1     RESIDUE    1   A     ZIN   1
