@<TRIPOS>MOLECULE
ZINC000003830626
  30   31    0    0    0
SMALL
USER_CHARGES
NO_NAME
@<TRIPOS>ATOM
    1 N1        0.1828     1.3675     0.0845 N.pl3  1 <0>      -0.8200
    2 C2        0.1270    -0.0065     0.0485 C.2    1 <0>       0.5000
    3 N3        0.9820    -0.7278     0.7618 N.2    1 <0>      -0.6100
    4 C4        0.9368    -2.0586     0.7348 C.2    1 <0>       0.6700
    5 O5        1.7337    -2.6995     1.3999 O.2    1 <0>      -0.5200
    6 N6        0.0264    -2.7078    -0.0137 N.am   1 <0>      -0.5400
    7 C7        0.0011    -4.1726    -0.0226 C.3    1 <0>       0.3000
    8 H8        0.9978    -4.5674    -0.2195 H      1 <0>       0.1500
    9 O9       -0.9346    -4.6533    -1.0121 O.3    1 <0>      -0.3300
   10 C10      -2.2379    -4.5025    -0.4083 C.3    1 <0>       0.0300
   11 H11      -2.5625    -3.4633    -0.4609 H      1 <0>       0.0900
   12 C12      -3.2543    -5.4126    -1.1008 C.3    1 <0>       0.0800
   13 O13      -3.4508    -4.9707    -2.4455 O.3    1 <0>      -0.5600
   14 C14      -2.0433    -4.9313     1.0630 C.3    1 <0>       0.0400
   15 H15      -2.6413    -4.3055     1.7255 H      1 <0>       0.0900
   16 O16      -2.3859    -6.3082     1.2327 O.3    1 <0>      -0.5500
   17 C17      -0.5337    -4.7093     1.3237 C.3    1 <0>       0.0900
   18 H18      -0.0481    -5.6506     1.5811 H      1 <0>       0.1000
   19 O19      -0.3411    -3.7475     2.3628 O.3    1 <0>      -0.5300
   20 C20      -0.8725    -2.0099    -0.7632 C.2    1 <0>       0.1800
   21 C21      -0.8429    -0.6563    -0.7422 C.2    1 <0>      -0.3100
   22 H22      -0.4462     1.8922    -0.4350 H      1 <0>       0.4100
   23 H23       0.8486     1.8117     0.6325 H      1 <0>       0.4100
   24 H24      -2.8810    -6.4366    -1.1058 H      1 <0>       0.0700
   25 H25      -4.2019    -5.3739    -0.5636 H      1 <0>       0.0600
   26 H26      -4.0844    -5.5030    -2.9458 H      1 <0>       0.3900
   27 H27      -3.3078    -6.5127     1.0246 H      1 <0>       0.3800
   28 H28      -0.7139    -4.0098     3.2156 H      1 <0>       0.3900
   29 H29      -1.6034    -2.5306    -1.3641 H      1 <0>       0.1800
   30 H30      -1.5462    -0.0833    -1.3283 H      1 <0>       0.1500
@<TRIPOS>BOND
   1    1    2 1
   2    1   22 1
   3    1   23 1
   4    2   21 1
   5    2    3 2
   6    3    4 1
   7    4    5 2
   8    4    6 am
   9    6    7 1
  10    6   20 1
  11    7    8 1
  12    7   17 1
  13    7    9 1
  14    9   10 1
  15   10   11 1
  16   10   12 1
  17   10   14 1
  18   12   13 1
  19   12   24 1
  20   12   25 1
  21   13   26 1
  22   14   15 1
  23   14   16 1
  24   14   17 1
  25   16   27 1
  26   17   18 1
  27   17   19 1
  28   19   28 1
  29   20   21 2
  30   20   29 1
  31   21   30 1
