@<TRIPOS>MOLECULE
ZINC000028572103
45    47    1     0     0
SMALL
USER_CHARGES
@<TRIPOS>ATOM
1      C1     -0.0187    1.5258    0.0104 C.3      1 ZINC000028572103   -0.1500
2      C2      0.0021   -0.0041    0.0020 C.3      1 ZINC000028572103    0.0500
3      O3      0.6709   -0.4649   -1.1737 O.3      1 ZINC000028572103   -0.3700
4      C4      0.7457   -1.8880   -1.2798 C.3      1 ZINC000028572103    0.1500
5      C5      1.4669   -2.2599   -2.5497 C.2      1 ZINC000028572103    0.2400
6      N6      0.8982   -2.4489   -3.7059 N.2      1 ZINC000028572103   -0.4400
7      C7      1.8392   -2.7694   -4.6261 C.ar     1 ZINC000028572103   -0.0500
8      C8      3.0706   -2.7716   -3.9634 C.ar     1 ZINC000028572103    0.1200
9      C9      4.2621   -3.0902   -4.7381 C.ar     1 ZINC000028572103   -0.1000
10     C10     5.5343   -3.1164   -4.1587 C.ar     1 ZINC000028572103   -0.1000
11     C11     6.6207   -3.4211   -4.9265 C.ar     1 ZINC000028572103   -0.1400
12     C12     6.4767   -3.7060   -6.2798 C.ar     1 ZINC000028572103   -0.0900
13     C13     5.2499   -3.6887   -6.8743 C.ar     1 ZINC000028572103   -0.1100
14     C14     4.1109   -3.3797   -6.1163 C.ar     1 ZINC000028572103    0.1900
15     N15     2.8937   -3.3572   -6.6802 N.ar     1 ZINC000028572103   -0.5700
16     C16     1.8033   -3.0730   -6.0059 C.ar     1 ZINC000028572103    0.5100
17     N17     0.5851   -3.0720   -6.6644 N.pl3    1 ZINC000028572103   -0.8300
18     N18     2.8111   -2.4429   -2.6616 N.pl3    1 ZINC000028572103   -0.4300
19     C19     3.7965   -2.3197   -1.5846 C.3      1 ZINC000028572103    0.0700
20     C20     4.3127   -0.8805   -1.5277 C.3      1 ZINC000028572103    0.1100
21     C21     3.1440    0.0703   -1.2610 C.3      1 ZINC000028572103   -0.1400
22     C22     5.3418   -0.7518   -0.4029 C.3      1 ZINC000028572103   -0.1800
23     O23     4.9251   -0.5445   -2.7744 O.3      1 ZINC000028572103   -0.5500
24     H24     1.0039    1.9031    0.0027 H        1 ZINC000028572103    0.0600
25     H25    -0.5459    1.8868   -0.8726 H        1 ZINC000028572103    0.0700
26     H26    -0.5289    1.8773    0.9072 H        1 ZINC000028572103    0.0700
27     H27     0.5293   -0.3651    0.8851 H        1 ZINC000028572103    0.0500
28     H28    -1.0205   -0.3814    0.0098 H        1 ZINC000028572103    0.0500
29     H29     1.2883   -2.2882   -0.4233 H        1 ZINC000028572103    0.0700
30     H30    -0.2614   -2.3044   -1.2986 H        1 ZINC000028572103    0.0900
31     H31     5.6567   -2.8963   -3.1085 H        1 ZINC000028572103    0.1100
32     H32     7.6031   -3.4408   -4.4781 H        1 ZINC000028572103    0.1300
33     H33     7.3499   -3.9443   -6.8690 H        1 ZINC000028572103    0.1300
34     H34     5.1554   -3.9120   -7.9267 H        1 ZINC000028572103    0.1400
35     H35     0.5454   -3.2794   -7.6112 H        1 ZINC000028572103    0.4100
36     H36    -0.2285   -2.8639   -6.1790 H        1 ZINC000028572103    0.4200
37     H37     3.3294   -2.5760   -0.6337 H        1 ZINC000028572103    0.1100
38     H38     4.6291   -2.9970   -1.7746 H        1 ZINC000028572103    0.1000
39     H39     2.6769   -0.1860   -0.3101 H        1 ZINC000028572103    0.0700
40     H40     3.5117    1.0956   -1.2205 H        1 ZINC000028572103    0.0600
41     H41     2.4108   -0.0214   -2.0623 H        1 ZINC000028572103    0.0800
42     H42     6.1743   -1.4292   -0.5929 H        1 ZINC000028572103    0.0600
43     H43     5.7095    0.2735   -0.3624 H        1 ZINC000028572103    0.0800
44     H44     4.8746   -1.0081    0.5480 H        1 ZINC000028572103    0.0700
45     H45     5.6755   -1.1077   -3.0084 H        1 ZINC000028572103    0.3700
@<TRIPOS>BOND
1     1     2     1
2     1     24    1
3     1     25    1
4     1     26    1
5     2     3     1
6     2     27    1
7     2     28    1
8     3     4     1
9     4     5     1
10    4     29    1
11    4     30    1
12    5     18    1
13    5     6     2
14    6     7     1
15    7     16    ar
16    7     8     ar
17    8     9     ar
18    8     18    1
19    9     14    ar
20    9     10    ar
21    10    11    ar
22    10    31    1
23    11    12    ar
24    11    32    1
25    12    13    ar
26    12    33    1
27    13    14    ar
28    13    34    1
29    14    15    ar
30    15    16    ar
31    16    17    1
32    17    35    1
33    17    36    1
34    18    19    1
35    19    20    1
36    19    37    1
37    19    38    1
38    20    21    1
39    20    22    1
40    20    23    1
41    21    39    1
42    21    40    1
43    21    41    1
44    22    42    1
45    22    43    1
46    22    44    1
47    23    45    1
@<TRIPOS>SUBSTRUCTURE
1   ZINC000028572103 1     RESIDUE    1   A     ZIN   1
