@<TRIPOS>MOLECULE
ZINC000001482019
46    48    1     0     0
SMALL
USER_CHARGES
@<TRIPOS>ATOM
1      C1      0.3693    1.0608    0.3779 C.3      1 ZINC000001482019    0.0200
2      N2      0.1394   -0.3719    0.1487 N.3      1 ZINC000001482019   -0.5300
3      C3      0.5980   -1.1686    1.2945 C.3      1 ZINC000001482019    0.0100
4      C4     -1.2752   -0.6377   -0.1448 C.3      1 ZINC000001482019    0.1300
5      H5     -1.6178    0.0405   -0.9264 H        1 ZINC000001482019    0.0900
6      C6     -1.4349   -2.0838   -0.6184 C.3      1 ZINC000001482019   -0.1100
7      C7     -0.7037   -2.2681   -1.9497 C.3      1 ZINC000001482019    0.0700
8      O8     -0.8528   -3.6187   -2.3920 O.3      1 ZINC000001482019   -0.3100
9      C9     -0.2592   -3.9517   -3.5672 C.ar     1 ZINC000001482019    0.1500
10     C10    -0.3678   -5.2640   -4.0703 C.ar     1 ZINC000001482019   -0.0700
11     C11    -1.0849   -6.2534   -3.3785 C.ar     1 ZINC000001482019   -0.0800
12     C12    -1.1687   -7.5101   -3.8951 C.ar     1 ZINC000001482019   -0.1300
13     C13    -0.5525   -7.8317   -5.1030 C.ar     1 ZINC000001482019   -0.1000
14     C14     0.1512   -6.8986   -5.8006 C.ar     1 ZINC000001482019   -0.1200
15     C15     0.2590   -5.5903   -5.2985 C.ar     1 ZINC000001482019   -0.0200
16     C16     0.9766   -4.6002   -5.9909 C.ar     1 ZINC000001482019   -0.1500
17     C17     1.0611   -3.3421   -5.4766 C.ar     1 ZINC000001482019   -0.0700
18     C18     0.4429   -3.0154   -4.2730 C.ar     1 ZINC000001482019   -0.2200
19     C19    -2.0956   -0.4237    1.1010 C.ar     1 ZINC000001482019   -0.1200
20     C20    -2.9918    0.6268    1.1665 C.ar     1 ZINC000001482019   -0.1100
21     C21    -3.7443    0.8231    2.3094 C.ar     1 ZINC000001482019   -0.1200
22     C22    -3.6009   -0.0313    3.3866 C.ar     1 ZINC000001482019   -0.1200
23     C23    -2.7054   -1.0823    3.3207 C.ar     1 ZINC000001482019   -0.1200
24     C24    -1.9560   -1.2812    2.1763 C.ar     1 ZINC000001482019   -0.1100
25     H25     1.4347    1.2390    0.5234 H        1 ZINC000001482019    0.0700
26     H26     0.0208    1.6274   -0.4856 H        1 ZINC000001482019    0.0700
27     H27    -0.1769    1.3789    1.2658 H        1 ZINC000001482019    0.0300
28     H28     0.1376   -0.7907    2.2073 H        1 ZINC000001482019    0.0400
29     H29     0.3143   -2.2110    1.1491 H        1 ZINC000001482019    0.0700
30     H30     1.6824   -1.0953    1.3772 H        1 ZINC000001482019    0.0700
31     H31    -1.0111   -2.7586    0.1253 H        1 ZINC000001482019    0.0800
32     H32    -2.4933   -2.3079   -0.7511 H        1 ZINC000001482019    0.0800
33     H33    -1.1275   -1.5933   -2.6935 H        1 ZINC000001482019    0.0600
34     H34     0.3547   -2.0440   -1.8170 H        1 ZINC000001482019    0.0800
35     H35    -1.5673   -6.0186   -2.4412 H        1 ZINC000001482019    0.1300
36     H36    -1.7206   -8.2692   -3.3608 H        1 ZINC000001482019    0.1200
37     H37    -0.6342   -8.8362   -5.4910 H        1 ZINC000001482019    0.1200
38     H38     0.6242   -7.1622   -6.7351 H        1 ZINC000001482019    0.1300
39     H39     1.4597   -4.8362   -6.9276 H        1 ZINC000001482019    0.1300
40     H40     1.6141   -2.5850   -6.0126 H        1 ZINC000001482019    0.1200
41     H41     0.5258   -2.0099   -3.8876 H        1 ZINC000001482019    0.1300
42     H42    -3.1038    1.2943    0.3249 H        1 ZINC000001482019    0.1200
43     H43    -4.4439    1.6442    2.3608 H        1 ZINC000001482019    0.1200
44     H44    -4.1883    0.1225    4.2797 H        1 ZINC000001482019    0.1200
45     H45    -2.5932   -1.7496    4.1624 H        1 ZINC000001482019    0.1200
46     H46    -1.2564   -2.1023    2.1249 H        1 ZINC000001482019    0.1300
@<TRIPOS>BOND
1     1     2     1
2     1     25    1
3     1     26    1
4     1     27    1
5     2     3     1
6     2     4     1
7     3     28    1
8     3     29    1
9     3     30    1
10    4     5     1
11    4     6     1
12    4     19    1
13    6     7     1
14    6     31    1
15    6     32    1
16    7     8     1
17    7     33    1
18    7     34    1
19    8     9     1
20    9     18    ar
21    9     10    ar
22    10    15    ar
23    10    11    ar
24    11    12    ar
25    11    35    1
26    12    13    ar
27    12    36    1
28    13    14    ar
29    13    37    1
30    14    15    ar
31    14    38    1
32    15    16    ar
33    16    17    ar
34    16    39    1
35    17    18    ar
36    17    40    1
37    18    41    1
38    19    24    ar
39    19    20    ar
40    20    21    ar
41    20    42    1
42    21    22    ar
43    21    43    1
44    22    23    ar
45    22    44    1
46    23    24    ar
47    23    45    1
48    24    46    1
@<TRIPOS>SUBSTRUCTURE
1   ZINC000001482019 1     RESIDUE    1   A     ZIN   1
