@<TRIPOS>MOLECULE
ZINC000000001484
31    32    1     0     0
SMALL
USER_CHARGES
@<TRIPOS>ATOM
1      C1     -0.0184    1.5028    0.0103 C.3      1 ZINC000000001484   -0.0800
2      C2      0.0021   -0.0041    0.0020 C.2      1 ZINC000000001484   -0.2600
3      C3     -1.1526   -0.7039    0.0037 C.2      1 ZINC000000001484    0.1800
4      N4     -1.1160   -2.0718   -0.0039 N.am     1 ZINC000000001484   -0.5300
5      C5     -2.3687   -2.8312   -0.0021 C.3      1 ZINC000000001484    0.2900
6      H6     -2.4291   -3.4601    0.8862 H        1 ZINC000000001484    0.1300
7      O7     -3.4999   -1.9353   -0.0616 O.3      1 ZINC000000001484   -0.3500
8      C8     -4.5971   -2.7395   -0.5466 C.3      1 ZINC000000001484    0.0900
9      H9     -5.0003   -3.3556    0.2571 H        1 ZINC000000001484    0.1100
10     C10    -5.6929   -1.8472   -1.1332 C.3      1 ZINC000000001484    0.0900
11     O11    -6.2803   -1.0663   -0.0905 O.3      1 ZINC000000001484   -0.5600
12     C12    -3.9781   -3.6291   -1.6474 C.3      1 ZINC000000001484    0.0600
13     H13    -4.1131   -3.1728   -2.6281 H        1 ZINC000000001484    0.1000
14     O14    -4.5571   -4.9352   -1.6202 O.3      1 ZINC000000001484   -0.5400
15     C15    -2.4770   -3.6931   -1.2795 C.3      1 ZINC000000001484    0.0200
16     H16    -2.1770   -4.7211   -1.0765 H        1 ZINC000000001484    0.1300
17     F17    -1.6971   -3.1498   -2.3061 F        1 ZINC000000001484   -0.1900
18     C18     0.0598   -2.7257   -0.0134 C.2      1 ZINC000000001484    0.7100
19     O19     0.0693   -3.9416   -0.0204 O.2      1 ZINC000000001484   -0.5400
20     N20     1.2256   -2.0531   -0.0157 N.am     1 ZINC000000001484   -0.6500
21     C21     1.2322   -0.7047   -0.0135 C.2      1 ZINC000000001484    0.5500
22     O22     2.2865   -0.0953   -0.0160 O.2      1 ZINC000000001484   -0.5100
23     H23     1.0042    1.8801    0.0026 H        1 ZINC000000001484    0.0800
24     H24    -0.5455    1.8639   -0.8728 H        1 ZINC000000001484    0.0700
25     H25    -0.5286    1.8543    0.9071 H        1 ZINC000000001484    0.0700
26     H26    -2.1006   -0.1866    0.0113 H        1 ZINC000000001484    0.1900
27     H27    -5.2597   -1.1851   -1.8830 H        1 ZINC000000001484    0.0600
28     H28    -6.4586   -2.4692   -1.5966 H        1 ZINC000000001484    0.0700
29     H29    -6.9846   -0.4756   -0.3906 H        1 ZINC000000001484    0.3900
30     H30    -4.2046   -5.5358   -2.2911 H        1 ZINC000000001484    0.3900
31     H31     2.0644   -2.5402   -0.0226 H        1 ZINC000000001484    0.4300
@<TRIPOS>BOND
1     1     2     1
2     1     23    1
3     1     24    1
4     1     25    1
5     2     21    1
6     2     3     2
7     3     4     1
8     3     26    1
9     4     5     1
10    4     18    am
11    5     6     1
12    5     15    1
13    5     7     1
14    7     8     1
15    8     9     1
16    8     10    1
17    8     12    1
18    10    11    1
19    10    27    1
20    10    28    1
21    11    29    1
22    12    13    1
23    12    14    1
24    12    15    1
25    14    30    1
26    15    16    1
27    15    17    1
28    18    19    2
29    18    20    am
30    20    21    am
31    20    31    1
32    21    22    2
@<TRIPOS>SUBSTRUCTURE
1   ZINC000000001484 1     RESIDUE    1   A     ZIN   1
