@<TRIPOS>MOLECULE
ZINC000002379217
21    21    1     0     0
SMALL
USER_CHARGES
@<TRIPOS>ATOM
1      O1     -0.0173    1.4248    0.0099 O.3      1 ZINC000002379217   -0.5800
2      C2      0.0021   -0.0041    0.0020 C.3      1 ZINC000002379217    0.0800
3      C3     -1.4333   -0.5336    0.0129 C.3      1 ZINC000002379217   -0.0800
4      C4     -1.4129   -2.0405    0.0046 C.ar     1 ZINC000002379217   -0.0800
5      C5     -1.4093   -2.7234   -1.1970 C.ar     1 ZINC000002379217   -0.1100
6      C6     -1.3910   -4.1061   -1.2099 C.ar     1 ZINC000002379217   -0.1300
7      C7     -1.3758   -4.8097   -0.0168 C.ar     1 ZINC000002379217    0.0800
8      O8     -1.3574   -6.1695   -0.0277 O.3      1 ZINC000002379217   -0.4900
9      C9     -1.3790   -4.1219    1.1934 C.ar     1 ZINC000002379217    0.0800
10     O10    -1.3636   -4.8082    2.3673 O.3      1 ZINC000002379217   -0.4900
11     C11    -1.3921   -2.7367    1.1992 C.ar     1 ZINC000002379217   -0.1300
12     H12     0.8606    1.8301    0.0037 H        1 ZINC000002379217    0.3800
13     H13     0.5123   -0.3556   -0.8948 H        1 ZINC000002379217    0.0500
14     H14     0.5293   -0.3651    0.8851 H        1 ZINC000002379217    0.0500
15     H15    -1.9435   -0.1821    0.9097 H        1 ZINC000002379217    0.0800
16     H16    -1.9605   -0.1726   -0.8702 H        1 ZINC000002379217    0.0800
17     H17    -1.4211   -2.1760   -2.1279 H        1 ZINC000002379217    0.1300
18     H18    -1.3889   -4.6373   -2.1502 H        1 ZINC000002379217    0.1400
19     H19    -0.4687   -6.5507   -0.0351 H        1 ZINC000002379217    0.3900
20     H20    -0.4759   -4.9947    2.7023 H        1 ZINC000002379217    0.3900
21     H21    -1.3946   -2.2007    2.1368 H        1 ZINC000002379217    0.1300
@<TRIPOS>BOND
1     1     2     1
2     1     12    1
3     2     3     1
4     2     13    1
5     2     14    1
6     3     4     1
7     3     15    1
8     3     16    1
9     4     11    ar
10    4     5     ar
11    5     6     ar
12    5     17    1
13    6     7     ar
14    6     18    1
15    7     8     1
16    7     9     ar
17    8     19    1
18    9     10    1
19    9     11    ar
20    10    20    1
21    11    21    1
@<TRIPOS>SUBSTRUCTURE
1   ZINC000002379217 1     RESIDUE    1   A     ZIN   1
