@<TRIPOS>MOLECULE
ZINC000002020114
  52   53    0    0    0
SMALL
USER_CHARGES
NO_NAME
@<TRIPOS>ATOM
    1 C1       -3.2064    -2.8312    -5.1227 C.3    1 <0>       0.0200
    2 O2       -2.2318    -2.9778    -4.0880 O.3    1 <0>      -0.3100
    3 C3       -2.2553    -2.0616    -3.0833 C.ar   1 <0>       0.1100
    4 C4       -3.1992    -1.0477    -3.0905 C.ar   1 <0>      -0.1900
    5 C5       -3.2218    -0.1169    -2.0681 C.ar   1 <0>      -0.0500
    6 C6       -4.2496     0.9852    -2.0773 C.3    1 <0>      -0.0800
    7 C7       -5.5041     0.5187    -1.3361 C.3    1 <0>      -0.0700
    8 H8       -5.8612    -0.4123    -1.7764 H      1 <0>       0.0900
    9 C9       -5.1694     0.2897     0.1392 C.3    1 <0>       0.0700
   10 O10      -6.3262    -0.2012     0.8195 O.3    1 <0>      -0.5700
   11 C11      -6.5923     1.5880    -1.4521 C.3    1 <0>      -0.0700
   12 H12      -7.4455     1.3065    -0.8350 H      1 <0>       0.0900
   13 C13      -7.0358     1.7080    -2.9115 C.3    1 <0>       0.0700
   14 O14      -7.6471     0.4845    -3.3257 O.3    1 <0>      -0.5700
   15 C15      -6.0392     2.9323    -0.9750 C.3    1 <0>      -0.0800
   16 C16      -7.1436     3.9577    -0.9730 C.ar   1 <0>      -0.0500
   17 C17      -7.3845     4.7138    -2.1045 C.ar   1 <0>      -0.1400
   18 C18      -8.3967     5.6560    -2.1077 C.ar   1 <0>      -0.1000
   19 C19      -9.1721     5.8433    -0.9753 C.ar   1 <0>       0.0700
   20 O20     -10.1683     6.7691    -0.9769 O.3    1 <0>      -0.4900
   21 C21      -8.9298     5.0814     0.1642 C.ar   1 <0>       0.1100
   22 O22      -9.6886     5.2613     1.2783 O.3    1 <0>      -0.3100
   23 C23      -9.3831     4.4444     2.4103 C.3    1 <0>       0.0200
   24 C24      -7.9174     4.1360     0.1592 C.ar   1 <0>      -0.1900
   25 C25      -2.3040    -0.1952    -1.0376 C.ar   1 <0>      -0.1400
   26 C26      -1.3592    -1.2049    -1.0244 C.ar   1 <0>      -0.1000
   27 C27      -1.3347    -2.1439    -2.0425 C.ar   1 <0>       0.0700
   28 O28      -0.4062    -3.1375    -2.0310 O.3    1 <0>      -0.4900
   29 H29      -3.0771    -3.6247    -5.8588 H      1 <0>       0.1000
   30 H30      -4.2058    -2.8944    -4.6921 H      1 <0>       0.0600
   31 H31      -3.0798    -1.8627    -5.6065 H      1 <0>       0.0600
   32 H32      -3.9172    -0.9840    -3.8947 H      1 <0>       0.1300
   33 H33      -3.8418     1.8665    -1.5823 H      1 <0>       0.0800
   34 H34      -4.5071     1.2333    -3.1069 H      1 <0>       0.0800
   35 H35      -4.3635    -0.4398     0.2199 H      1 <0>       0.0500
   36 H36      -4.8544     1.2305     0.5906 H      1 <0>       0.0500
   37 H37      -6.1867    -0.3693     1.7615 H      1 <0>       0.3800
   38 H38      -7.7531     2.5231    -3.0074 H      1 <0>       0.0500
   39 H39      -6.1684     1.9115    -3.5393 H      1 <0>       0.0500
   40 H40      -7.9534     0.4887    -4.2429 H      1 <0>       0.3800
   41 H41      -5.6419     2.8242     0.0343 H      1 <0>       0.0800
   42 H42      -5.2436     3.2566    -1.6458 H      1 <0>       0.0800
   43 H43      -6.7807     4.5687    -2.9881 H      1 <0>       0.1300
   44 H44      -8.5825     6.2460    -2.9930 H      1 <0>       0.1400
   45 H45     -11.0247     6.4249    -1.2653 H      1 <0>       0.3900
   46 H46      -9.5001     3.3942     2.1426 H      1 <0>       0.0600
   47 H47      -8.3552     4.6272     2.7234 H      1 <0>       0.0600
   48 H48     -10.0609     4.6885     3.2282 H      1 <0>       0.1000
   49 H49      -7.7273     3.5436     1.0420 H      1 <0>       0.1300
   50 H50      -2.3247     0.5339    -0.2412 H      1 <0>       0.1300
   51 H51      -0.6432    -1.2639    -0.2181 H      1 <0>       0.1400
   52 H52      -0.6916    -3.9372    -1.5684 H      1 <0>       0.3900
@<TRIPOS>BOND
   1    1    2 1
   2    1   29 1
   3    1   30 1
   4    1   31 1
   5    2    3 1
   6    3   27 ar
   7    3    4 ar
   8    4    5 ar
   9    4   32 1
  10    5    6 1
  11    5   25 ar
  12    6    7 1
  13    6   33 1
  14    6   34 1
  15    7    8 1
  16    7    9 1
  17    7   11 1
  18    9   10 1
  19    9   35 1
  20    9   36 1
  21   10   37 1
  22   11   12 1
  23   11   13 1
  24   11   15 1
  25   13   14 1
  26   13   38 1
  27   13   39 1
  28   14   40 1
  29   15   16 1
  30   15   41 1
  31   15   42 1
  32   16   24 ar
  33   16   17 ar
  34   17   18 ar
  35   17   43 1
  36   18   19 ar
  37   18   44 1
  38   19   20 1
  39   19   21 ar
  40   20   45 1
  41   21   22 1
  42   21   24 ar
  43   22   23 1
  44   23   46 1
  45   23   47 1
  46   23   48 1
  47   24   49 1
  48   25   26 ar
  49   25   50 1
  50   26   27 ar
  51   26   51 1
  52   27   28 1
  53   28   52 1
