@<TRIPOS>MOLECULE
ZINC000020621755
55    57    1     0     0
SMALL
USER_CHARGES
@<TRIPOS>ATOM
1      C1     -0.0187    1.5258    0.0104 C.3      1 ZINC000020621755   -0.1500
2      C2      0.0021   -0.0041    0.0020 C.3      1 ZINC000020621755    0.0500
3      O3     -1.3386   -0.4987    0.0122 O.3      1 ZINC000020621755   -0.2800
4      C4     -1.4981   -1.8461    0.0064 C.ar     1 ZINC000020621755    0.2500
5      C5     -0.3912   -2.6756   -0.0028 C.ar     1 ZINC000020621755   -0.3000
6      C6     -0.5562   -4.0549   -0.0081 C.ar     1 ZINC000020621755    0.3000
7      N7      0.5591   -4.8865   -0.0170 N.pl3    1 ZINC000020621755   -0.8500
8      C8     -1.8360   -4.6089   -0.0042 C.ar     1 ZINC000020621755   -0.1600
9      Cl9    -2.0323   -6.3337   -0.0110 Cl       1 ZINC000020621755   -0.0600
10     C10    -2.9433   -3.7927    0.0054 C.ar     1 ZINC000020621755    0.0100
11     C11    -2.7867   -2.4024    0.0158 C.ar     1 ZINC000020621755   -0.2400
12     C12    -3.9695   -1.5259    0.0261 C.2      1 ZINC000020621755    0.5800
13     O13    -3.8310   -0.3176    0.0351 O.2      1 ZINC000020621755   -0.5200
14     N14    -5.2059   -2.0625    0.0256 N.am     1 ZINC000020621755   -0.7300
15     C15    -6.3829   -1.1903    0.0358 C.3      1 ZINC000020621755    0.0800
16     C16    -7.6515   -2.0457    0.0329 C.3      1 ZINC000020621755    0.0600
17     H17    -7.6263   -2.7312   -0.8142 H        1 ZINC000020621755    0.1600
18     C18    -8.8793   -1.1386   -0.0799 C.3      1 ZINC000020621755   -0.0300
19     N19    -8.9417   -0.2545    1.0922 N.4      1 ZINC000020621755   -0.3900
20     H20    -8.1069    0.3108    1.1320 H        1 ZINC000020621755    0.4200
21     C21   -10.1192    0.6174    0.9860 C.3      1 ZINC000020621755    0.0500
22     C22   -10.1163    1.6060    2.1233 C.ar     1 ZINC000020621755   -0.1800
23     C23   -10.7394    1.2886    3.3159 C.ar     1 ZINC000020621755   -0.0700
24     C24   -10.7374    2.1945    4.3596 C.ar     1 ZINC000020621755   -0.1500
25     C25   -10.1108    3.4201    4.2107 C.ar     1 ZINC000020621755    0.1400
26     F26   -10.1079    4.3063    5.2305 F        1 ZINC000020621755   -0.1200
27     C27    -9.4867    3.7367    3.0159 C.ar     1 ZINC000020621755   -0.1500
28     C28    -9.4858    2.8274    1.9753 C.ar     1 ZINC000020621755   -0.0600
29     C29    -9.0419   -1.0670    2.3124 C.3      1 ZINC000020621755   -0.0500
30     C30    -7.8137   -1.9742    2.4207 C.3      1 ZINC000020621755    0.0300
31     O31    -7.7265   -2.7930    1.2501 O.3      1 ZINC000020621755   -0.3400
32     H32     1.0039    1.9031    0.0027 H        1 ZINC000020621755    0.0800
33     H33    -0.5459    1.8868   -0.8726 H        1 ZINC000020621755    0.0700
34     H34    -0.5289    1.8773    0.9072 H        1 ZINC000020621755    0.0700
35     H35     0.5123   -0.3556   -0.8948 H        1 ZINC000020621755    0.0700
36     H36     0.5293   -0.3651    0.8851 H        1 ZINC000020621755    0.0700
37     H37     0.6017   -2.2508   -0.0062 H        1 ZINC000020621755    0.1400
38     H38     1.4500   -4.5030   -0.0194 H        1 ZINC000020621755    0.4100
39     H39     0.4457   -5.8499   -0.0207 H        1 ZINC000020621755    0.4100
40     H40    -3.9330   -4.2249    0.0087 H        1 ZINC000020621755    0.1400
41     H41    -5.3163   -3.0262    0.0184 H        1 ZINC000020621755    0.4100
42     H42    -6.3663   -0.5681    0.9306 H        1 ZINC000020621755    0.0600
43     H43    -6.3715   -0.5543   -0.8493 H        1 ZINC000020621755    0.0900
44     H44    -8.8049   -0.5368   -0.9857 H        1 ZINC000020621755    0.1500
45     H45    -9.7806   -1.7502   -0.1224 H        1 ZINC000020621755    0.1500
46     H46   -10.0894    1.1542    0.0378 H        1 ZINC000020621755    0.1400
47     H47   -11.0247    0.0124    1.0327 H        1 ZINC000020621755    0.1400
48     H48   -11.2281    0.3325    3.4319 H        1 ZINC000020621755    0.1400
49     H49   -11.2248    1.9466    5.2910 H        1 ZINC000020621755    0.1500
50     H50    -8.9979    4.6926    2.8985 H        1 ZINC000020621755    0.1500
51     H51    -8.9988    3.0740    1.0434 H        1 ZINC000020621755    0.1400
52     H52    -9.0881   -0.4121    3.1825 H        1 ZINC000020621755    0.1400
53     H53    -9.9430   -1.6787    2.2690 H        1 ZINC000020621755    0.1400
54     H54    -6.9155   -1.3624    2.5046 H        1 ZINC000020621755    0.0800
55     H55    -7.9064   -2.6086    3.3023 H        1 ZINC000020621755    0.1400
@<TRIPOS>BOND
1     1     2     1
2     1     32    1
3     1     33    1
4     1     34    1
5     2     3     1
6     2     35    1
7     2     36    1
8     3     4     1
9     4     11    ar
10    4     5     ar
11    5     6     ar
12    5     37    1
13    6     7     1
14    6     8     ar
15    7     38    1
16    7     39    1
17    8     9     1
18    8     10    ar
19    10    11    ar
20    10    40    1
21    11    12    1
22    12    13    2
23    12    14    am
24    14    15    1
25    14    41    1
26    15    16    1
27    15    42    1
28    15    43    1
29    16    17    1
30    16    31    1
31    16    18    1
32    18    19    1
33    18    44    1
34    18    45    1
35    19    20    1
36    19    21    1
37    19    29    1
38    21    22    1
39    21    46    1
40    21    47    1
41    22    28    ar
42    22    23    ar
43    23    24    ar
44    23    48    1
45    24    25    ar
46    24    49    1
47    25    26    1
48    25    27    ar
49    27    28    ar
50    27    50    1
51    28    51    1
52    29    30    1
53    29    52    1
54    29    53    1
55    30    31    1
56    30    54    1
57    30    55    1
@<TRIPOS>SUBSTRUCTURE
1   ZINC000020621755 1     RESIDUE    1   A     ZIN   1
