@<TRIPOS>MOLECULE
ZINC000004214836
38    40    1     0     0
SMALL
USER_CHARGES
@<TRIPOS>ATOM
1      C1     -0.0178    1.4648    0.0101 C.3      1 ZINC000004214836    0.0300
2      N2      0.0021   -0.0041    0.0020 N.3      1 ZINC000004214836   -0.5400
3      C3      0.7859   -0.5261    1.1294 C.3      1 ZINC000004214836    0.0200
4      C4     -1.3620   -0.5491    0.0121 C.3      1 ZINC000004214836    0.0400
5      C5     -1.3110   -2.0562   -0.2470 C.3      1 ZINC000004214836    0.1000
6      N6     -2.6714   -2.5997   -0.2369 N.am     1 ZINC000004214836   -0.5600
7      C7     -3.1886   -3.0319    0.9286 C.2      1 ZINC000004214836    0.5700
8      O8     -2.5255   -2.9653    1.9458 O.2      1 ZINC000004214836   -0.4900
9      C9     -4.5513   -3.5836    0.9789 C.ar     1 ZINC000004214836   -0.1100
10     C10    -5.1177   -4.0382    2.1592 C.ar     1 ZINC000004214836   -0.0700
11     C11    -6.4154   -4.5552    2.1609 C.ar     1 ZINC000004214836    0.2000
12     N12    -6.9708   -5.0086    3.3601 N.pl3    1 ZINC000004214836   -0.8700
13     C13    -7.1601   -4.6262    0.9998 C.ar     1 ZINC000004214836   -0.1600
14     C14    -6.6120   -4.1728   -0.2120 C.ar     1 ZINC000004214836   -0.0200
15     C15    -7.3296   -4.2245   -1.4200 C.ar     1 ZINC000004214836   -0.0700
16     C16    -6.7578   -3.7733   -2.5748 C.ar     1 ZINC000004214836   -0.1200
17     C17    -5.4681   -3.2562   -2.5940 C.ar     1 ZINC000004214836   -0.0300
18     C18    -4.7265   -3.1881   -1.4236 C.ar     1 ZINC000004214836   -0.1400
19     C19    -5.3015   -3.6500   -0.2177 C.ar     1 ZINC000004214836   -0.0400
20     C20    -3.3608   -2.6439   -1.3925 C.2      1 ZINC000004214836    0.5700
21     O21    -2.8492   -2.2361   -2.4176 O.2      1 ZINC000004214836   -0.4800
22     H22     1.0047    1.8421    0.0024 H        1 ZINC000004214836    0.0700
23     H23    -0.5450    1.8259   -0.8730 H        1 ZINC000004214836    0.0700
24     H24    -0.5280    1.8163    0.9069 H        1 ZINC000004214836    0.0300
25     H25     0.3442   -0.1877    2.0667 H        1 ZINC000004214836    0.0300
26     H26     0.7843   -1.6157    1.0994 H        1 ZINC000004214836    0.0700
27     H27     1.8110   -0.1623    1.0586 H        1 ZINC000004214836    0.0700
28     H28    -1.8206   -0.3627    0.9832 H        1 ZINC000004214836    0.0400
29     H29    -1.9520   -0.0663   -0.7669 H        1 ZINC000004214836    0.0800
30     H30    -0.8524   -2.2426   -1.2181 H        1 ZINC000004214836    0.1100
31     H31    -0.7210   -2.5390    0.5321 H        1 ZINC000004214836    0.1000
32     H32    -4.5544   -3.9931    3.0795 H        1 ZINC000004214836    0.1500
33     H33    -6.4561   -4.9627    4.1810 H        1 ZINC000004214836    0.4000
34     H34    -7.8712   -5.3693    3.3718 H        1 ZINC000004214836    0.4000
35     H35    -8.1615   -5.0298    1.0231 H        1 ZINC000004214836    0.1400
36     H36    -8.3338   -4.6218   -1.4345 H        1 ZINC000004214836    0.1400
37     H37    -7.3210   -3.8196   -3.4952 H        1 ZINC000004214836    0.1400
38     H38    -5.0418   -2.9066   -3.5227 H        1 ZINC000004214836    0.1400
@<TRIPOS>BOND
1     1     2     1
2     1     22    1
3     1     23    1
4     1     24    1
5     2     3     1
6     2     4     1
7     3     25    1
8     3     26    1
9     3     27    1
10    4     5     1
11    4     28    1
12    4     29    1
13    5     6     1
14    5     30    1
15    5     31    1
16    6     20    am
17    6     7     am
18    7     8     2
19    7     9     1
20    9     19    ar
21    9     10    ar
22    10    11    ar
23    10    32    1
24    11    12    1
25    11    13    ar
26    12    33    1
27    12    34    1
28    13    14    ar
29    13    35    1
30    14    19    ar
31    14    15    ar
32    15    16    ar
33    15    36    1
34    16    17    ar
35    16    37    1
36    17    18    ar
37    17    38    1
38    18    19    ar
39    18    20    1
40    20    21    2
@<TRIPOS>SUBSTRUCTURE
1   ZINC000004214836 1     RESIDUE    1   A     ZIN   1
