@<TRIPOS>MOLECULE
ZINC000043196377
57    59    1     0     0
SMALL
USER_CHARGES
@<TRIPOS>ATOM
1      C1     -3.1875    4.1115   -2.0685 C.1      1 ZINC000043196377   -0.1800
2      C2     -2.2603    3.7291   -1.4583 C.1      1 ZINC000043196377   -0.1500
3      C3     -1.1294    3.2627   -0.7139 C.ar     1 ZINC000043196377    0.0300
4      C4     -1.2161    2.0815    0.0243 C.ar     1 ZINC000043196377   -0.1100
5      C5     -0.1244    1.6336    0.7407 C.ar     1 ZINC000043196377   -0.1000
6      C6      1.0565    2.3511    0.7302 C.ar     1 ZINC000043196377   -0.1400
7      C7      1.1528    3.5293   -0.0016 C.ar     1 ZINC000043196377    0.1500
8      N8      2.3494    4.2520   -0.0087 N.pl3    1 ZINC000043196377   -0.6400
9      C9      2.3236    5.6290   -0.1048 C.ar     1 ZINC000043196377    0.4600
10     C10     3.5217    6.3707   -0.2316 C.ar     1 ZINC000043196377   -0.1800
11     C11     4.7769    5.7508   -0.2654 C.ar     1 ZINC000043196377   -0.1500
12     C12     5.9040    6.5120   -0.3896 C.ar     1 ZINC000043196377    0.1200
13     O13     7.1223    5.9089   -0.4227 O.3      1 ZINC000043196377   -0.3000
14     C14     7.1436    4.4836   -0.3230 C.3      1 ZINC000043196377    0.0500
15     C15     8.5907    3.9900   -0.3781 C.3      1 ZINC000043196377   -0.1200
16     C16     8.6135    2.4639   -0.2714 C.3      1 ZINC000043196377   -0.1200
17     C17    10.0606    1.9703   -0.3265 C.3      1 ZINC000043196377   -0.1200
18     C18    10.0834    0.4442   -0.2198 C.3      1 ZINC000043196377   -0.1000
19     C19    11.5305   -0.0493   -0.2749 C.3      1 ZINC000043196377   -0.1400
20     C20    11.5530   -1.5525   -0.1698 C.2      1 ZINC000043196377    0.4500
21     O21    10.5138   -2.1684   -0.0614 O.2      1 ZINC000043196377   -0.6000
22     N22    12.7278   -2.2124   -0.1962 N.am     1 ZINC000043196377   -0.5400
23     O23    12.7489   -3.6248   -0.0974 O.3      1 ZINC000043196377   -0.6900
24     C24     5.8188    7.9085   -0.4837 C.ar     1 ZINC000043196377    0.1600
25     O25     6.9543    8.6441   -0.6065 O.3      1 ZINC000043196377   -0.3000
26     C26     6.8020   10.0620   -0.6980 C.3      1 ZINC000043196377    0.0200
27     C27     4.5968    8.5423   -0.4535 C.ar     1 ZINC000043196377   -0.1900
28     C28     3.4278    7.7814   -0.3263 C.ar     1 ZINC000043196377    0.2000
29     N29     2.2129    8.3504   -0.2924 N.ar     1 ZINC000043196377   -0.5400
30     C30     1.1354    7.6115   -0.1728 C.ar     1 ZINC000043196377    0.3400
31     N31     1.1742    6.2916   -0.0863 N.ar     1 ZINC000043196377   -0.5800
32     C32     0.0637    3.9843   -0.7289 C.ar     1 ZINC000043196377   -0.0900
33     H33    -4.0167    4.4535   -2.6143 H        1 ZINC000043196377    0.2200
34     H34    -2.1373    1.5181    0.0353 H        1 ZINC000043196377    0.1300
35     H35    -0.1937    0.7194    1.3116 H        1 ZINC000043196377    0.1300
36     H36     1.9073    1.9958    1.2927 H        1 ZINC000043196377    0.1300
37     H37     3.1978    3.7860    0.0539 H        1 ZINC000043196377    0.4200
38     H38     4.8533    4.6759   -0.1932 H        1 ZINC000043196377    0.1400
39     H39     6.6914    4.1786    0.6207 H        1 ZINC000043196377    0.0600
40     H40     6.5810    4.0530   -1.1513 H        1 ZINC000043196377    0.0600
41     H41     9.0429    4.2950   -1.3219 H        1 ZINC000043196377    0.0800
42     H42     9.1533    4.4206    0.4502 H        1 ZINC000043196377    0.0800
43     H43     8.1613    2.1589    0.6723 H        1 ZINC000043196377    0.0700
44     H44     8.0509    2.0333   -1.0997 H        1 ZINC000043196377    0.0700
45     H45    10.5128    2.2753   -1.2703 H        1 ZINC000043196377    0.0600
46     H46    10.6232    2.4009    0.5018 H        1 ZINC000043196377    0.0600
47     H47     9.6312    0.1392    0.7239 H        1 ZINC000043196377    0.0700
48     H48     9.5208    0.0136   -1.0481 H        1 ZINC000043196377    0.0700
49     H49    11.9827    0.2556   -1.2187 H        1 ZINC000043196377    0.0700
50     H50    12.0931    0.3813    0.5534 H        1 ZINC000043196377    0.0700
51     H51    13.5589   -1.7198   -0.2829 H        1 ZINC000043196377    0.3600
52     H52     6.1984   10.3069   -1.5720 H        1 ZINC000043196377    0.0600
53     H53     6.3084   10.4331    0.2001 H        1 ZINC000043196377    0.0600
54     H54     7.7831   10.5275   -0.7921 H        1 ZINC000043196377    0.1100
55     H55     4.5401    9.6183   -0.5266 H        1 ZINC000043196377    0.1500
56     H56     0.1736    8.1020   -0.1485 H        1 ZINC000043196377    0.2000
57     H57     0.1363    4.8992   -1.2981 H        1 ZINC000043196377    0.1400
@<TRIPOS>BOND
1     1     2     3
2     1     33    1
3     2     3     1
4     3     32    ar
5     3     4     ar
6     4     5     ar
7     4     34    1
8     5     6     ar
9     5     35    1
10    6     7     ar
11    6     36    1
12    7     8     1
13    7     32    ar
14    8     9     1
15    8     37    1
16    9     31    ar
17    9     10    ar
18    10    28    ar
19    10    11    ar
20    11    12    ar
21    11    38    1
22    12    13    1
23    12    24    ar
24    13    14    1
25    14    15    1
26    14    39    1
27    14    40    1
28    15    16    1
29    15    41    1
30    15    42    1
31    16    17    1
32    16    43    1
33    16    44    1
34    17    18    1
35    17    45    1
36    17    46    1
37    18    19    1
38    18    47    1
39    18    48    1
40    19    20    1
41    19    49    1
42    19    50    1
43    20    21    2
44    20    22    am
45    22    23    1
46    22    51    1
47    24    25    1
48    24    27    ar
49    25    26    1
50    26    52    1
51    26    53    1
52    26    54    1
53    27    28    ar
54    27    55    1
55    28    29    ar
56    29    30    ar
57    30    31    ar
58    30    56    1
59    32    57    1
@<TRIPOS>SUBSTRUCTURE
1   ZINC000043196377 1     RESIDUE    1   A     ZIN   1
