@<TRIPOS>MOLECULE
ZINC000003787626
29    30    1     0     0
SMALL
USER_CHARGES
@<TRIPOS>ATOM
1      N1      0.0173   -1.1279   -0.0042 N.pl3    1 ZINC000003787626   -0.1500
2      N2      0.0021   -0.0041    0.0020 N.1      1 ZINC000003787626    0.2800
3      N3     -0.0132    1.1198    0.0082 N.2      1 ZINC000003787626   -0.3700
4      C4      1.2455    1.8695    0.0002 C.3      1 ZINC000003787626    0.0700
5      H5      1.8853    1.5477    0.8219 H        1 ZINC000003787626    0.1100
6      C6      1.9731    1.6923   -1.3547 C.3      1 ZINC000003787626   -0.1800
7      C7      1.5593    2.9773   -2.1161 C.3      1 ZINC000003787626    0.3000
8      H8      0.5687    2.8608   -2.5558 H        1 ZINC000003787626    0.1400
9      N9      2.5451    3.3051   -3.1490 N.am     1 ZINC000003787626   -0.5300
10     C10     3.8196    3.6457   -2.7857 C.2      1 ZINC000003787626    0.1800
11     C11     4.7283    3.9473   -3.7377 C.2      1 ZINC000003787626   -0.2900
12     C12     4.3403    3.9043   -5.0986 C.2      1 ZINC000003787626    0.5500
13     O13     5.1423    4.1718   -5.9751 O.2      1 ZINC000003787626   -0.5100
14     N14     3.0746    3.5639   -5.4153 N.am     1 ZINC000003787626   -0.6600
15     C15     2.1904    3.2630   -4.4461 C.2      1 ZINC000003787626    0.7100
16     O16     1.0526    2.9574   -4.7466 O.2      1 ZINC000003787626   -0.5300
17     O17     1.5424    3.9886   -1.0857 O.3      1 ZINC000003787626   -0.3600
18     C18     0.9721    3.3834    0.0904 C.3      1 ZINC000003787626    0.1100
19     H19    -0.1024    3.5648    0.1167 H        1 ZINC000003787626    0.1100
20     C20     1.6283    3.9641    1.3446 C.3      1 ZINC000003787626    0.0800
21     O21     1.2833    5.3455    1.4666 O.3      1 ZINC000003787626   -0.5600
22     H22     3.0533    1.6543   -1.2140 H        1 ZINC000003787626    0.1100
23     H23     1.6182    0.8016   -1.8732 H        1 ZINC000003787626    0.1000
24     H24     4.0973    3.6735   -1.7424 H        1 ZINC000003787626    0.1800
25     H25     5.7375    4.2181   -3.4648 H        1 ZINC000003787626    0.1800
26     H26     2.8012    3.5322   -6.3454 H        1 ZINC000003787626    0.4300
27     H27     1.2763    3.4228    2.2227 H        1 ZINC000003787626    0.0700
28     H28     2.7111    3.8656    1.2669 H        1 ZINC000003787626    0.0600
29     H29     1.6656    5.7794    2.2416 H        1 ZINC000003787626    0.3900
@<TRIPOS>BOND
1     1     2     2
2     2     3     2
3     3     4     1
4     4     5     1
5     4     18    1
6     4     6     1
7     6     7     1
8     6     22    1
9     6     23    1
10    7     8     1
11    7     9     1
12    7     17    1
13    9     15    am
14    9     10    1
15    10    11    2
16    10    24    1
17    11    12    1
18    11    25    1
19    12    13    2
20    12    14    am
21    14    15    am
22    14    26    1
23    15    16    2
24    17    18    1
25    18    19    1
26    18    20    1
27    20    21    1
28    20    27    1
29    20    28    1
30    21    29    1
@<TRIPOS>SUBSTRUCTURE
1   ZINC000003787626 1     RESIDUE    1   A     ZIN   1
