@<TRIPOS>MOLECULE
ZINC000026746604
52    54    1     0     0
SMALL
USER_CHARGES
@<TRIPOS>ATOM
1      C1     -0.0187    1.5258    0.0104 C.3      1 ZINC000026746604   -0.1500
2      C2      0.0021   -0.0041    0.0020 C.3      1 ZINC000026746604   -0.0200
3      C3     -1.4333   -0.5336    0.0129 C.3      1 ZINC000026746604   -0.1500
4      C4      0.7074   -0.4901   -1.2379 C.2      1 ZINC000026746604   -0.1300
5      C5      0.3482   -0.2376   -2.5240 C.2      1 ZINC000026746604    0.2000
6      C6     -0.7805    0.5453   -2.9284 C.1      1 ZINC000026746604   -0.1400
7      C7     -1.7058    1.1872   -3.2601 C.1      1 ZINC000026746604   -0.5800
8      P8     -3.1356    2.1790   -3.7725 P.3      1 ZINC000026746604    2.3800
9      O9     -3.2015    2.2290   -5.3152 O.co2    1 ZINC000026746604   -1.0500
10     O10    -2.9933    3.6134   -3.2163 O.co2    1 ZINC000026746604   -1.0700
11     C11    -4.6628    1.4243   -3.1232 C.3      1 ZINC000026746604   -0.7800
12     C12    -5.8762    2.1878   -3.6576 C.3      1 ZINC000026746604    0.1600
13     H13    -5.7763    3.2454   -3.4136 H        1 ZINC000026746604    0.1000
14     O14    -5.9506    2.0313   -5.0761 O.3      1 ZINC000026746604   -0.5200
15     C15    -7.1501    1.6345   -3.0159 C.3      1 ZINC000026746604   -0.2100
16     C16    -8.3314    2.4649   -3.4473 C.2      1 ZINC000026746604    0.4900
17     O17    -8.1694    3.4115   -4.1983 O.co2    1 ZINC000026746604   -0.6700
18     O18    -9.4491    2.1900   -3.0452 O.co2    1 ZINC000026746604   -0.7300
19     N19     1.2384   -0.8517   -3.3791 N.pl3    1 ZINC000026746604   -0.4400
20     C20     1.1759   -0.8045   -4.7779 C.ar     1 ZINC000026746604    0.1100
21     C21     0.9365   -1.9644   -5.5027 C.ar     1 ZINC000026746604   -0.0900
22     C22     0.8753   -1.9157   -6.8816 C.ar     1 ZINC000026746604   -0.1400
23     C23     1.0526   -0.7112   -7.5414 C.ar     1 ZINC000026746604    0.1100
24     F24     0.9919   -0.6656   -8.8902 F        1 ZINC000026746604   -0.1300
25     C25     1.2915    0.4467   -6.8204 C.ar     1 ZINC000026746604   -0.1300
26     C26     1.3477    0.4033   -5.4411 C.ar     1 ZINC000026746604   -0.0700
27     C27     2.1996   -1.5196   -2.6496 C.ar     1 ZINC000026746604    0.1100
28     C28     3.3050   -2.2842   -3.0056 C.ar     1 ZINC000026746604   -0.1200
29     C29     4.1001   -2.8377   -2.0250 C.ar     1 ZINC000026746604   -0.1000
30     C30     3.8095   -2.6403   -0.6821 C.ar     1 ZINC000026746604   -0.1500
31     C31     2.7284   -1.8931   -0.3084 C.ar     1 ZINC000026746604   -0.0700
32     C32     1.9114   -1.3172   -1.2856 C.ar     1 ZINC000026746604   -0.0900
33     H33     1.0039    1.9031    0.0027 H        1 ZINC000026746604    0.0500
34     H34    -0.5459    1.8868   -0.8726 H        1 ZINC000026746604    0.0700
35     H35    -0.5289    1.8773    0.9072 H        1 ZINC000026746604    0.0600
36     H36     0.5293   -0.3651    0.8851 H        1 ZINC000026746604    0.0700
37     H37    -1.9605   -0.1726   -0.8702 H        1 ZINC000026746604    0.0700
38     H38    -1.4185   -1.6235    0.0069 H        1 ZINC000026746604    0.0500
39     H39    -1.9435   -0.1821    0.9097 H        1 ZINC000026746604    0.0600
40     H40    -4.7184    0.3838   -3.4433 H        1 ZINC000026746604    0.0600
41     H41    -4.6559    1.4695   -2.0342 H        1 ZINC000026746604    0.0700
42     H42    -6.0406    1.1133   -5.3663 H        1 ZINC000026746604    0.3400
43     H43    -7.2971    0.6017   -3.3321 H        1 ZINC000026746604    0.0500
44     H44    -7.0563    1.6723   -1.9307 H        1 ZINC000026746604    0.0500
45     H45     0.7985   -2.9041   -4.9886 H        1 ZINC000026746604    0.1400
46     H46     0.6894   -2.8177   -7.4457 H        1 ZINC000026746604    0.1400
47     H47     1.4294    1.3852   -7.3368 H        1 ZINC000026746604    0.1500
48     H48     1.5337    1.3066   -4.8792 H        1 ZINC000026746604    0.1400
49     H49     3.5398   -2.4443   -4.0475 H        1 ZINC000026746604    0.1200
50     H50     4.9578   -3.4315   -2.3044 H        1 ZINC000026746604    0.1200
51     H51     4.4429   -3.0812    0.0734 H        1 ZINC000026746604    0.1200
52     H52     2.5082   -1.7445    0.7384 H        1 ZINC000026746604    0.1200
@<TRIPOS>BOND
1     1     2     1
2     1     33    1
3     1     34    1
4     1     35    1
5     2     3     1
6     2     4     1
7     2     36    1
8     3     37    1
9     3     38    1
10    3     39    1
11    4     32    1
12    4     5     2
13    5     6     1
14    5     19    1
15    6     7     3
16    7     8     1
17    8     9     ar
18    8     10    ar
19    8     11    1
20    11    12    1
21    11    40    1
22    11    41    1
23    12    13    1
24    12    14    1
25    12    15    1
26    14    42    1
27    15    16    1
28    15    43    1
29    15    44    1
30    16    17    ar
31    16    18    ar
32    19    20    1
33    19    27    1
34    20    26    ar
35    20    21    ar
36    21    22    ar
37    21    45    1
38    22    23    ar
39    22    46    1
40    23    24    1
41    23    25    ar
42    25    26    ar
43    25    47    1
44    26    48    1
45    27    32    ar
46    27    28    ar
47    28    29    ar
48    28    49    1
49    29    30    ar
50    29    50    1
51    30    31    ar
52    30    51    1
53    31    32    ar
54    31    52    1
@<TRIPOS>SUBSTRUCTURE
1   ZINC000026746604 1     RESIDUE    1   A     ZIN   1
