@<TRIPOS>MOLECULE
ZINC000001545074
43    46    1     0     0
SMALL
USER_CHARGES
@<TRIPOS>ATOM
1      C1     -0.6965    1.6502   -0.6638 C.3      1 ZINC000001545074    0.0200
2      O2     -0.5095    0.2385   -0.5441 O.3      1 ZINC000001545074   -0.3000
3      C3     -1.6253   -0.5208   -0.3992 C.ar     1 ZINC000001545074    0.1800
4      C4     -2.8925    0.0593   -0.3755 C.ar     1 ZINC000001545074   -0.2600
5      C5     -3.9976   -0.7533   -0.2254 C.ar     1 ZINC000001545074    0.1400
6      N6     -3.8691   -2.0611   -0.1040 N.ar     1 ZINC000001545074   -0.5000
7      C7     -2.6818   -2.6444   -0.1220 C.ar     1 ZINC000001545074    0.1900
8      C8     -1.5415   -1.9051   -0.2753 C.ar     1 ZINC000001545074   -0.1800
9      C9     -0.1881   -2.5818   -0.3031 C.3      1 ZINC000001545074   -0.0700
10     C10     0.1323   -3.0825    1.1081 C.3      1 ZINC000001545074   -0.1100
11     C11    -0.4753   -4.4508    1.3463 C.3      1 ZINC000001545074   -0.1400
12     C12    -1.9902   -4.4625    1.4028 C.3      1 ZINC000001545074   -0.0800
13     C13    -2.5931   -4.1502    0.0247 C.3      1 ZINC000001545074   -0.3700
14     H14    -3.5901   -4.5851   -0.0459 H        1 ZINC000001545074    0.1200
15     S15    -1.5332   -4.8412   -1.2751 S.o      1 ZINC000001545074    1.4200
16     O16    -2.2174   -4.7930   -2.5197 O.2      1 ZINC000001545074   -0.8400
17     C17    -1.5157   -6.5625   -0.8990 C.2      1 ZINC000001545074   -0.0700
18     N18    -0.6564   -7.1453   -0.1148 N.2      1 ZINC000001545074   -0.4100
19     C19    -0.9299   -8.4735   -0.0448 C.ar     1 ZINC000001545074    0.0300
20     C20    -0.3419   -9.5438    0.6337 C.ar     1 ZINC000001545074   -0.0500
21     C21    -0.8597  -10.8013    0.5007 C.ar     1 ZINC000001545074   -0.1300
22     C22    -1.9672  -11.0291   -0.3033 C.ar     1 ZINC000001545074   -0.0900
23     C23    -2.5637   -9.9879   -0.9827 C.ar     1 ZINC000001545074   -0.1200
24     C24    -2.0517   -8.7038   -0.8594 C.ar     1 ZINC000001545074    0.0600
25     N25    -2.4021   -7.4747   -1.3815 N.pl3    1 ZINC000001545074   -0.5700
26     H26     0.2725    2.1371   -0.7735 H        1 ZINC000001545074    0.1100
27     H27    -1.3109    1.8624   -1.5388 H        1 ZINC000001545074    0.0600
28     H28    -1.1939    2.0278    0.2296 H        1 ZINC000001545074    0.0600
29     H29    -3.0076    1.1287   -0.4728 H        1 ZINC000001545074    0.1400
30     H30    -4.9832   -0.3121   -0.2066 H        1 ZINC000001545074    0.1600
31     H31    -0.2141   -3.4246   -0.9938 H        1 ZINC000001545074    0.0500
32     H32     0.5721   -1.8678   -0.6199 H        1 ZINC000001545074    0.1000
33     H33     1.2137   -3.1444    1.2296 H        1 ZINC000001545074    0.0800
34     H34    -0.2700   -2.3797    1.8378 H        1 ZINC000001545074    0.0700
35     H35    -0.1541   -5.1161    0.5448 H        1 ZINC000001545074    0.0800
36     H36    -0.0911   -4.8404    2.2890 H        1 ZINC000001545074    0.0800
37     H37    -2.3288   -5.4467    1.7263 H        1 ZINC000001545074    0.0800
38     H38    -2.3273   -3.7150    2.1209 H        1 ZINC000001545074    0.0700
39     H39     0.5208   -9.3778    1.2619 H        1 ZINC000001545074    0.1400
40     H40    -0.4021  -11.6262    1.0265 H        1 ZINC000001545074    0.1300
41     H41    -2.3646  -12.0289   -0.3980 H        1 ZINC000001545074    0.1300
42     H42    -3.4251  -10.1708   -1.6078 H        1 ZINC000001545074    0.1300
43     H43    -3.1425   -7.2950   -1.9819 H        1 ZINC000001545074    0.4300
@<TRIPOS>BOND
1     1     2     1
2     1     26    1
3     1     27    1
4     1     28    1
5     2     3     1
6     3     8     ar
7     3     4     ar
8     4     5     ar
9     4     29    1
10    5     6     ar
11    5     30    1
12    6     7     ar
13    7     13    1
14    7     8     ar
15    8     9     1
16    9     10    1
17    9     31    1
18    9     32    1
19    10    11    1
20    10    33    1
21    10    34    1
22    11    12    1
23    11    35    1
24    11    36    1
25    12    13    1
26    12    37    1
27    12    38    1
28    13    14    1
29    13    15    1
30    15    16    2
31    15    17    1
32    17    25    1
33    17    18    2
34    18    19    1
35    19    24    ar
36    19    20    ar
37    20    21    ar
38    20    39    1
39    21    22    ar
40    21    40    1
41    22    23    ar
42    22    41    1
43    23    24    ar
44    23    42    1
45    24    25    1
46    25    43    1
@<TRIPOS>SUBSTRUCTURE
1   ZINC000001545074 1     RESIDUE    1   A     ZIN   1
