@<TRIPOS>MOLECULE
ZINC000001843612
46    48    1     0     0
SMALL
USER_CHARGES
@<TRIPOS>ATOM
1      C1     -1.4365    1.3980    1.2944 C.3      1 ZINC000001843612   -0.1500
2      C2     -1.3314   -0.1026    1.2026 C.2      1 ZINC000001843612    0.4500
3      O3     -1.4092   -0.7760    2.2028 O.2      1 ZINC000001843612   -0.4900
4      O4     -1.1514   -0.6912    0.0093 O.3      1 ZINC000001843612   -0.2900
5      C5     -0.9571   -2.0358    0.0079 C.ar     1 ZINC000001843612    0.1300
6      C6      0.3271   -2.5580    0.0593 C.ar     1 ZINC000001843612   -0.1500
7      C7      0.5238   -3.9269    0.0584 C.ar     1 ZINC000001843612   -0.0400
8      C8      1.9246   -4.4799    0.1123 C.3      1 ZINC000001843612   -0.1200
9      C9     -0.5543   -4.7936    0.0090 C.ar     1 ZINC000001843612   -0.1400
10     C10    -1.8403   -4.2895   -0.0411 C.ar     1 ZINC000001843612    0.1500
11     C11    -2.0472   -2.9049   -0.0395 C.ar     1 ZINC000001843612   -0.1300
12     C12    -3.4371   -2.3920   -0.1066 C.2      1 ZINC000001843612   -0.0600
13     C13    -4.4238   -3.2285    0.1743 C.2      1 ZINC000001843612   -0.1400
14     C14    -5.8745   -2.8296    0.1168 C.3      1 ZINC000001843612   -0.0700
15     C15    -6.0208   -1.3098    0.1513 C.3      1 ZINC000001843612   -0.1200
16     C16    -5.0952   -0.7143   -0.9173 C.3      1 ZINC000001843612   -0.0900
17     H17    -5.2755   -1.2035   -1.8745 H        1 ZINC000001843612    0.0800
18     C18    -5.3560    0.7877   -1.0477 C.3      1 ZINC000001843612   -0.1500
19     C19    -3.6505   -0.9520   -0.4806 C.3      1 ZINC000001843612   -0.0700
20     C20    -4.0966   -4.6490    0.5841 C.3      1 ZINC000001843612    0.1500
21     C21    -3.8635   -4.6972    2.0955 C.3      1 ZINC000001843612   -0.1700
22     C22    -5.2713   -5.5611    0.2253 C.3      1 ZINC000001843612   -0.1400
23     O23    -2.9238   -5.1066   -0.0829 O.3      1 ZINC000001843612   -0.3000
24     H24    -1.5796    1.6891    2.3350 H        1 ZINC000001843612    0.1100
25     H25    -0.5210    1.8503    0.9131 H        1 ZINC000001843612    0.1000
26     H26    -2.2849    1.7397    0.7016 H        1 ZINC000001843612    0.1000
27     H27     1.1769   -1.8927    0.0999 H        1 ZINC000001843612    0.1300
28     H28     2.2201   -4.6200    1.1521 H        1 ZINC000001843612    0.0800
29     H29     1.9572   -5.4378   -0.4069 H        1 ZINC000001843612    0.0700
30     H30     2.6095   -3.7821   -0.3693 H        1 ZINC000001843612    0.0700
31     H31    -0.3910   -5.8612    0.0091 H        1 ZINC000001843612    0.1400
32     H32    -6.3153   -3.2115   -0.8040 H        1 ZINC000001843612    0.0800
33     H33    -6.3989   -3.2598    0.9700 H        1 ZINC000001843612    0.0800
34     H34    -7.0537   -1.0349   -0.0624 H        1 ZINC000001843612    0.0700
35     H35    -5.7360   -0.9353    1.1345 H        1 ZINC000001843612    0.0600
36     H36    -5.1634    1.2743   -0.0916 H        1 ZINC000001843612    0.0500
37     H37    -4.6963    1.2063   -1.8078 H        1 ZINC000001843612    0.0600
38     H38    -6.3940    0.9525   -1.3368 H        1 ZINC000001843612    0.0600
39     H39    -3.4273   -0.3209    0.3797 H        1 ZINC000001843612    0.0700
40     H40    -2.9805   -0.6909   -1.2997 H        1 ZINC000001843612    0.0800
41     H41    -4.7640   -4.3661    2.6128 H        1 ZINC000001843612    0.0700
42     H42    -3.6276   -5.7186    2.3943 H        1 ZINC000001843612    0.0700
43     H43    -3.0329   -4.0414    2.3562 H        1 ZINC000001843612    0.0600
44     H44    -5.4462   -5.5223   -0.8499 H        1 ZINC000001843612    0.0700
45     H45    -5.0393   -6.5849    0.5189 H        1 ZINC000001843612    0.0700
46     H46    -6.1654   -5.2261    0.7512 H        1 ZINC000001843612    0.0800
@<TRIPOS>BOND
1     1     2     1
2     1     24    1
3     1     25    1
4     1     26    1
5     2     3     2
6     2     4     1
7     4     5     1
8     5     11    ar
9     5     6     ar
10    6     7     ar
11    6     27    1
12    7     8     1
13    7     9     ar
14    8     28    1
15    8     29    1
16    8     30    1
17    9     10    ar
18    9     31    1
19    10    23    1
20    10    11    ar
21    11    12    1
22    12    19    1
23    12    13    2
24    13    14    1
25    13    20    1
26    14    15    1
27    14    32    1
28    14    33    1
29    15    16    1
30    15    34    1
31    15    35    1
32    16    17    1
33    16    18    1
34    16    19    1
35    18    36    1
36    18    37    1
37    18    38    1
38    19    39    1
39    19    40    1
40    20    21    1
41    20    22    1
42    20    23    1
43    21    41    1
44    21    42    1
45    21    43    1
46    22    44    1
47    22    45    1
48    22    46    1
@<TRIPOS>SUBSTRUCTURE
1   ZINC000001843612 1     RESIDUE    1   A     ZIN   1
