@<TRIPOS>MOLECULE
ZINC000011616887
37    38    1     0     0
SMALL
USER_CHARGES
@<TRIPOS>ATOM
1      C1     -0.0187    1.5258    0.0104 C.3      1 ZINC000011616887   -0.1500
2      C2      0.0021   -0.0041    0.0020 C.3      1 ZINC000011616887   -0.0700
3      C3      0.7421   -0.5109    1.2415 C.3      1 ZINC000011616887   -0.1500
4      C4     -1.4333   -0.5336    0.0129 C.3      1 ZINC000011616887   -0.1500
5      C5      0.7182   -0.4975   -1.2568 C.3      1 ZINC000011616887   -0.1000
6      C6      2.1536    0.0321   -1.2676 C.3      1 ZINC000011616887   -0.0200
7      C7      2.8426   -0.4426   -2.4787 C.1      1 ZINC000011616887   -0.1400
8      C8      3.3921   -0.8212   -3.4446 C.1      1 ZINC000011616887   -0.1900
9      C9      4.0811   -1.2959   -4.6557 C.3      1 ZINC000011616887   -0.0100
10     H10     5.1169   -0.9744   -4.7638 H        1 ZINC000011616887    0.1500
11     C11     3.2490   -1.4391   -5.9316 C.3      1 ZINC000011616887   -0.1300
12     C12     3.7151   -2.6869   -5.1774 C.3      1 ZINC000011616887   -0.1100
13     H13     4.5100   -3.2804   -5.6290 H        1 ZINC000011616887    0.1500
14     C14     2.6763   -3.4663   -4.4128 C.2      1 ZINC000011616887    0.1000
15     C15     1.5947   -2.9636   -3.7874 C.2      1 ZINC000011616887    0.0000
16     N16     0.9271   -3.9838   -3.2285 N.pl3    1 ZINC000011616887   -0.4700
17     H17     0.1075   -3.9047   -2.7157 H        1 ZINC000011616887    0.4700
18     C18     1.5538   -5.0996   -3.4837 C.cat    1 ZINC000011616887    0.3000
19     N19     2.6476   -4.8219   -4.2254 N.pl3    1 ZINC000011616887   -0.5100
20     H20     1.0039    1.9031    0.0027 H        1 ZINC000011616887    0.0600
21     H21    -0.5459    1.8868   -0.8726 H        1 ZINC000011616887    0.0600
22     H22    -0.5289    1.8773    0.9072 H        1 ZINC000011616887    0.0600
23     H23     0.2319   -0.1594    2.1383 H        1 ZINC000011616887    0.0600
24     H24     0.7568   -1.6008    1.2356 H        1 ZINC000011616887    0.0500
25     H25     1.7647   -0.1336    1.2338 H        1 ZINC000011616887    0.0600
26     H26    -1.9605   -0.1726   -0.8702 H        1 ZINC000011616887    0.0600
27     H27    -1.4185   -1.6235    0.0069 H        1 ZINC000011616887    0.0500
28     H28    -1.9435   -0.1821    0.9097 H        1 ZINC000011616887    0.0600
29     H29     0.7330   -1.5874   -1.2628 H        1 ZINC000011616887    0.0600
30     H30     0.1910   -0.1364   -2.1398 H        1 ZINC000011616887    0.0700
31     H31     2.1388    1.1220   -1.2617 H        1 ZINC000011616887    0.1000
32     H32     2.6808   -0.3290   -0.3846 H        1 ZINC000011616887    0.0900
33     H33     2.1913   -1.1818   -5.8743 H        1 ZINC000011616887    0.1100
34     H34     3.7375   -1.2121   -6.8792 H        1 ZINC000011616887    0.1300
35     H35     1.3142   -1.9216   -3.7437 H        1 ZINC000011616887    0.2200
36     H36     1.2465   -6.0827   -3.1589 H        1 ZINC000011616887    0.2700
37     H37     3.2955   -5.4628   -4.5578 H        1 ZINC000011616887    0.4700
@<TRIPOS>BOND
1     1     2     1
2     1     20    1
3     1     21    1
4     1     22    1
5     2     3     1
6     2     4     1
7     2     5     1
8     3     23    1
9     3     24    1
10    3     25    1
11    4     26    1
12    4     27    1
13    4     28    1
14    5     6     1
15    5     29    1
16    5     30    1
17    6     7     1
18    6     31    1
19    6     32    1
20    7     8     3
21    8     9     1
22    9     10    1
23    9     12    1
24    9     11    1
25    11    12    1
26    11    33    1
27    11    34    1
28    12    13    1
29    12    14    1
30    14    19    1
31    14    15    2
32    15    16    1
33    15    35    1
34    16    17    1
35    16    18    ar
36    18    19    ar
37    18    36    1
38    19    37    1
@<TRIPOS>SUBSTRUCTURE
1   ZINC000011616887 1     RESIDUE    1   A     ZIN   1
