@<TRIPOS>MOLECULE
ZINC000042833251
75    79    1     0     0
SMALL
USER_CHARGES
@<TRIPOS>ATOM
1      C1      0.7137    0.9252   -0.1192 C.3      1 ZINC000042833251    0.0200
2      O2      0.5308   -0.4920   -0.1042 O.3      1 ZINC000042833251   -0.3100
3      C3     -0.7490   -0.9490   -0.1041 C.ar     1 ZINC000042833251    0.2200
4      C4     -1.8068   -0.0513   -0.1239 C.ar     1 ZINC000042833251   -0.2600
5      C5     -3.1086   -0.5153   -0.1233 C.ar     1 ZINC000042833251    0.0600
6      C6     -3.3601   -1.8736   -0.1030 C.ar     1 ZINC000042833251   -0.7400
7      S7     -5.0212   -2.4613   -0.1018 S.o2     1 ZINC000042833251    2.6700
8      O8     -5.1375   -3.3332    1.0143 O.2      1 ZINC000042833251   -0.9300
9      O9     -5.8500   -1.3221   -0.2877 O.2      1 ZINC000042833251   -0.9200
10     N10    -5.2094   -3.4019   -1.4516 N.am     1 ZINC000042833251   -0.8800
11     C11    -5.6983   -2.9486   -2.6182 C.2      1 ZINC000042833251    0.5500
12     O12    -6.0653   -1.8170   -2.8544 O.2      1 ZINC000042833251   -0.3700
13     C13    -5.7046   -4.1157   -3.5826 C.3      1 ZINC000042833251    0.1900
14     C14    -7.1096   -4.4188   -4.0354 C.ar     1 ZINC000042833251   -0.1100
15     C15    -7.4709   -4.2124   -5.3525 C.ar     1 ZINC000042833251   -0.0500
16     C16    -8.7602   -4.4899   -5.7686 C.ar     1 ZINC000042833251   -0.1600
17     C17    -9.6904   -4.9748   -4.8682 C.ar     1 ZINC000042833251   -0.0700
18     C18    -9.3338   -5.1833   -3.5497 C.ar     1 ZINC000042833251   -0.2100
19     C19    -8.0398   -4.9107   -3.1310 C.ar     1 ZINC000042833251    0.1400
20     O20    -7.6865   -5.1150   -1.8347 O.3      1 ZINC000042833251   -0.3100
21     C21    -8.6988   -5.6124   -0.9571 C.3      1 ZINC000042833251    0.0200
22     N22    -4.8425   -3.8332   -4.7379 N.3      1 ZINC000042833251   -0.4500
23     C23    -4.6905   -5.0366   -5.5957 C.3      1 ZINC000042833251    0.0100
24     C24    -3.4003   -4.7785   -6.4030 C.3      1 ZINC000042833251    0.1100
25     H25    -3.6412   -4.3429   -7.3727 H        1 ZINC000042833251    0.0800
26     O26    -2.6700   -5.9948   -6.5740 O.3      1 ZINC000042833251   -0.5600
27     C27    -2.5890   -3.7788   -5.5533 C.3      1 ZINC000042833251   -0.1400
28     C28    -3.4573   -3.5170   -4.3040 C.3      1 ZINC000042833251    0.0400
29     H29    -3.1558   -4.1729   -3.4872 H        1 ZINC000042833251    0.0900
30     C30    -3.3521   -2.0736   -3.8838 C.2      1 ZINC000042833251    0.5000
31     O31    -4.3359   -1.3646   -3.8980 O.2      1 ZINC000042833251   -0.4800
32     N32    -2.1646   -1.5707   -3.4922 N.am     1 ZINC000042833251   -0.6100
33     C33    -2.0677   -0.1749   -3.0577 C.3      1 ZINC000042833251    0.0600
34     C34    -0.9707   -2.4197   -3.5009 C.3      1 ZINC000042833251    0.0800
35     C35    -5.1498   -5.2648   -2.7727 C.ar     1 ZINC000042833251   -0.1300
36     C36    -4.9035   -6.5860   -3.0695 C.ar     1 ZINC000042833251   -0.0600
37     C37    -4.3780   -7.4252   -2.1005 C.ar     1 ZINC000042833251   -0.0400
38     Cl38   -4.0648   -9.0924   -2.4696 Cl       1 ZINC000042833251   -0.0600
39     C39    -4.1031   -6.9305   -0.8380 C.ar     1 ZINC000042833251   -0.0800
40     C40    -4.3495   -5.6063   -0.5390 C.ar     1 ZINC000042833251   -0.0900
41     C41    -4.8728   -4.7553   -1.5101 C.ar     1 ZINC000042833251    0.1600
42     C42    -2.3054   -2.7757   -0.0841 C.ar     1 ZINC000042833251    0.2600
43     O43    -2.5535   -4.1117   -0.0645 O.3      1 ZINC000042833251   -0.3100
44     C44    -1.4201   -4.9817   -0.0457 C.3      1 ZINC000042833251    0.0200
45     C45    -0.9989   -2.3128   -0.0899 C.ar     1 ZINC000042833251   -0.2600
46     H46     1.7794    1.1540   -0.1176 H        1 ZINC000042833251    0.1100
47     H47     0.2540    1.3413   -1.0156 H        1 ZINC000042833251    0.0600
48     H48     0.2471    1.3611    0.7642 H        1 ZINC000042833251    0.0600
49     H49    -1.6127    1.0110   -0.1394 H        1 ZINC000042833251    0.1500
50     H50    -3.9306    0.1850   -0.1384 H        1 ZINC000042833251    0.1500
51     H51    -6.7461   -3.8337   -6.0579 H        1 ZINC000042833251    0.1500
52     H52    -9.0410   -4.3273   -6.7987 H        1 ZINC000042833251    0.1300
53     H53   -10.6967   -5.1904   -5.1955 H        1 ZINC000042833251    0.1300
54     H54   -10.0609   -5.5618   -2.8465 H        1 ZINC000042833251    0.1300
55     H55    -9.5308   -4.9090   -0.9266 H        1 ZINC000042833251    0.0600
56     H56    -9.0521   -6.5776   -1.3200 H        1 ZINC000042833251    0.0600
57     H57    -8.2855   -5.7300    0.0446 H        1 ZINC000042833251    0.1000
58     H58    -4.5820   -5.9302   -4.9811 H        1 ZINC000042833251    0.0900
59     H59    -5.5446   -5.1363   -6.2656 H        1 ZINC000042833251    0.1100
60     H60    -1.8489   -5.8936   -7.0745 H        1 ZINC000042833251    0.3800
61     H61    -1.6328   -4.2156   -5.2650 H        1 ZINC000042833251    0.0900
62     H62    -2.4317   -2.8525   -6.1059 H        1 ZINC000042833251    0.0900
63     H63    -3.0646    0.2641   -3.0207 H        1 ZINC000042833251    0.0900
64     H64    -1.6154   -0.1334   -2.0668 H        1 ZINC000042833251    0.0700
65     H65    -1.4509    0.3830   -3.7623 H        1 ZINC000042833251    0.0500
66     H66    -0.4774   -2.3430   -4.4699 H        1 ZINC000042833251    0.0600
67     H67    -0.2865   -2.0926   -2.7180 H        1 ZINC000042833251    0.0700
68     H68    -1.2599   -3.4552   -3.3214 H        1 ZINC000042833251    0.0700
69     H69    -5.1199   -6.9680   -4.0562 H        1 ZINC000042833251    0.1500
70     H70    -3.6938   -7.5846   -0.0823 H        1 ZINC000042833251    0.1500
71     H71    -4.1327   -5.2276    0.4489 H        1 ZINC000042833251    0.1700
72     H72    -0.8148   -4.8092   -0.9356 H        1 ZINC000042833251    0.0600
73     H73    -0.8231   -4.7816    0.8441 H        1 ZINC000042833251    0.0700
74     H74    -1.7577   -6.0180   -0.0312 H        1 ZINC000042833251    0.1100
75     H75    -0.1768   -3.0131   -0.0752 H        1 ZINC000042833251    0.1500
@<TRIPOS>BOND
1     1     2     1
2     1     46    1
3     1     47    1
4     1     48    1
5     2     3     1
6     3     45    ar
7     3     4     ar
8     4     5     ar
9     4     49    1
10    5     6     ar
11    5     50    1
12    6     7     1
13    6     42    ar
14    7     8     2
15    7     9     2
16    7     10    am
17    10    41    1
18    10    11    am
19    11    12    2
20    11    13    1
21    13    14    1
22    13    22    1
23    13    35    1
24    14    19    ar
25    14    15    ar
26    15    16    ar
27    15    51    1
28    16    17    ar
29    16    52    1
30    17    18    ar
31    17    53    1
32    18    19    ar
33    18    54    1
34    19    20    1
35    20    21    1
36    21    55    1
37    21    56    1
38    21    57    1
39    22    28    1
40    22    23    1
41    23    24    1
42    23    58    1
43    23    59    1
44    24    25    1
45    24    26    1
46    24    27    1
47    26    60    1
48    27    28    1
49    27    61    1
50    27    62    1
51    28    29    1
52    28    30    1
53    30    31    2
54    30    32    am
55    32    33    1
56    32    34    1
57    33    63    1
58    33    64    1
59    33    65    1
60    34    66    1
61    34    67    1
62    34    68    1
63    35    41    ar
64    35    36    ar
65    36    37    ar
66    36    69    1
67    37    38    1
68    37    39    ar
69    39    40    ar
70    39    70    1
71    40    41    ar
72    40    71    1
73    42    43    1
74    42    45    ar
75    43    44    1
76    44    72    1
77    44    73    1
78    44    74    1
79    45    75    1
@<TRIPOS>SUBSTRUCTURE
1   ZINC000042833251 1     RESIDUE    1   A     ZIN   1
