@<TRIPOS>MOLECULE
ZINC000003789766
29    31    1     0     0
SMALL
USER_CHARGES
@<TRIPOS>ATOM
1      N1     -0.0162    1.3436    0.0094 N.am     1 ZINC000003789766   -0.8500
2      C2      0.0021   -0.0041    0.0020 C.2      1 ZINC000003789766    0.5300
3      O3      1.0605   -0.5961   -0.0113 O.2      1 ZINC000003789766   -0.5300
4      C4     -1.2926   -0.7753    0.0102 C.3      1 ZINC000003789766    0.0700
5      H5     -1.9167   -0.4523   -0.8231 H        1 ZINC000003789766    0.1200
6      C6     -2.0310   -0.5297    1.3332 C.3      1 ZINC000003789766   -0.1300
7      C7     -3.3725   -1.2542    1.2766 C.3      1 ZINC000003789766    0.1200
8      N8     -4.0065   -1.2645    2.6010 N.am     1 ZINC000003789766   -0.7600
9      C9     -5.1693   -0.5974    2.4712 C.2      1 ZINC000003789766    0.6600
10     O10    -5.9506   -0.4169    3.3845 O.2      1 ZINC000003789766   -0.6000
11     N11    -5.3676   -0.1550    1.2233 N.pl3    1 ZINC000003789766   -0.7100
12     C12    -4.3468   -0.4928    0.4082 C.2      1 ZINC000003789766    0.5100
13     O13    -4.2347   -0.2385   -0.7719 O.2      1 ZINC000003789766   -0.5500
14     C14    -3.1990   -2.6573    0.7665 C.ar     1 ZINC000003789766   -0.1100
15     C15    -4.2164   -3.5755    0.9630 C.ar     1 ZINC000003789766   -0.1000
16     C16    -4.0846   -4.8735    0.5033 C.ar     1 ZINC000003789766    0.0600
17     F17    -5.0807   -5.7647    0.6997 F        1 ZINC000003789766   -0.1400
18     C18    -2.9309   -5.2586   -0.1578 C.ar     1 ZINC000003789766   -0.1200
19     C19    -1.9145   -4.3462   -0.3567 C.ar     1 ZINC000003789766   -0.1200
20     C20    -2.0436   -3.0415    0.1054 C.ar     1 ZINC000003789766    0.1300
21     O21    -1.0200   -2.1723   -0.1073 O.3      1 ZINC000003789766   -0.2900
22     H22     0.8172    1.8399    0.0041 H        1 ZINC000003789766    0.4100
23     H23    -0.8627    1.8171    0.0160 H        1 ZINC000003789766    0.4100
24     H24    -1.4387   -0.9180    2.1618 H        1 ZINC000003789766    0.0800
25     H25    -2.1963    0.5391    1.4686 H        1 ZINC000003789766    0.0900
26     H26    -3.6573   -1.6716    3.4092 H        1 ZINC000003789766    0.4000
27     H27    -5.1175   -3.2770    1.4782 H        1 ZINC000003789766    0.1400
28     H28    -2.8264   -6.2714   -0.5178 H        1 ZINC000003789766    0.1400
29     H29    -1.0151   -4.6473   -0.8733 H        1 ZINC000003789766    0.1400
@<TRIPOS>BOND
1     1     2     am
2     1     22    1
3     1     23    1
4     2     3     2
5     2     4     1
6     4     5     1
7     4     21    1
8     4     6     1
9     6     7     1
10    6     24    1
11    6     25    1
12    7     12    1
13    7     8     1
14    7     14    1
15    8     9     am
16    8     26    1
17    9     10    2
18    9     11    1
19    11    12    1
20    12    13    2
21    14    20    ar
22    14    15    ar
23    15    16    ar
24    15    27    1
25    16    17    1
26    16    18    ar
27    18    19    ar
28    18    28    1
29    19    20    ar
30    19    29    1
31    20    21    1
@<TRIPOS>SUBSTRUCTURE
1   ZINC000003789766 1     RESIDUE    1   A     ZIN   1
